data_image0
_cell_length_a       7.1753
_cell_length_b       20.8504
_cell_length_c       8.8844
_cell_angle_alpha    90
_cell_angle_beta     93.2888
_cell_angle_gamma    90

_symmetry_space_group_name_H-M    "P 1"
_symmetry_int_tables_number       1

loop_
  _symmetry_equiv_pos_as_xyz
  'x, y, z'

loop_
  _atom_site_label
  _atom_site_occupancy
  _atom_site_fract_x
  _atom_site_fract_y
  _atom_site_fract_z
  _atom_site_thermal_displace_type
  _atom_site_B_iso_or_equiv
  _atom_site_type_symbol
  Cu1      1.0000 0.25298  0.39046  0.17127  Biso   1.000  Cu
  Cu2      1.0000 0.74702  0.89046  0.32873  Biso   1.000  Cu
  Cu3      1.0000 0.74702  0.60954  0.82873  Biso   1.000  Cu
  Cu4      1.0000 0.25298  0.10954  0.67127  Biso   1.000  Cu
  O1       1.0000 0.00680  0.31490  0.15190  Biso   1.000  O
  O2       1.0000 0.99320  0.81490  0.34810  Biso   1.000  O
  O3       1.0000 0.99320  0.68510  0.84810  Biso   1.000  O
  O4       1.0000 0.00680  0.18510  0.65190  Biso   1.000  O
  O5       1.0000 0.11470  0.36690  0.34910  Biso   1.000  O
  O6       1.0000 0.88530  0.86690  0.15090  Biso   1.000  O
  O7       1.0000 0.88530  0.63310  0.65090  Biso   1.000  O
  O8       1.0000 0.11470  0.13310  0.84910  Biso   1.000  O
  O9       1.0000 0.43470  0.32190  0.22950  Biso   1.000  O
  O10      1.0000 0.56530  0.82190  0.27050  Biso   1.000  O
  O11      1.0000 0.56530  0.67810  0.77050  Biso   1.000  O
  O12      1.0000 0.43470  0.17810  0.72950  Biso   1.000  O
  O13      1.0000 0.65090  0.39410  0.26740  Biso   1.000  O
  O14      1.0000 0.34910  0.89410  0.23260  Biso   1.000  O
  O15      1.0000 0.34910  0.60590  0.73260  Biso   1.000  O
  O16      1.0000 0.65090  0.10590  0.76740  Biso   1.000  O
  N1       1.0000 0.30030  0.39680  0.95710  Biso   1.000  N
  N2       1.0000 0.69970  0.89680  0.54290  Biso   1.000  N
  N3       1.0000 0.69970  0.60320  0.04290  Biso   1.000  N
  N4       1.0000 0.30030  0.10320  0.45710  Biso   1.000  N
  N5       1.0000 0.27880  0.50880  0.93870  Biso   1.000  N
  N6       1.0000 0.72120  0.00880  0.56130  Biso   1.000  N
  N7       1.0000 0.72120  0.49120  0.06130  Biso   1.000  N
  N8       1.0000 0.27880  0.99120  0.43870  Biso   1.000  N
  H1       1.0000 0.29590  0.54040  0.87890  Biso   1.000  H
  H2       1.0000 0.70410  0.04040  0.62110  Biso   1.000  H
  H3       1.0000 0.70410  0.45960  0.12110  Biso   1.000  H
  H4       1.0000 0.29590  0.95960  0.37890  Biso   1.000  H
  N9       1.0000 0.20780  0.48360  0.18820  Biso   1.000  N
  N10      1.0000 0.79220  0.98360  0.31180  Biso   1.000  N
  N11      1.0000 0.79220  0.51640  0.81180  Biso   1.000  N
  N12      1.0000 0.20780  0.01640  0.68820  Biso   1.000  N
  C1       1.0000 0.32030  0.34030  0.88560  Biso   1.000  C
  C2       1.0000 0.67970  0.84030  0.61440  Biso   1.000  C
  C3       1.0000 0.67970  0.65970  0.11440  Biso   1.000  C
  C4       1.0000 0.32030  0.15970  0.38560  Biso   1.000  C
  H5       1.0000 0.31350  0.30280  0.94170  Biso   1.000  H
  H6       1.0000 0.68650  0.80280  0.55830  Biso   1.000  H
  H7       1.0000 0.68650  0.69720  0.05830  Biso   1.000  H
  H8       1.0000 0.31350  0.19720  0.44170  Biso   1.000  H
  C5       1.0000 0.34970  0.33500  0.73700  Biso   1.000  C
  C6       1.0000 0.65030  0.83500  0.76300  Biso   1.000  C
  C7       1.0000 0.65030  0.66500  0.26300  Biso   1.000  C
  C8       1.0000 0.34970  0.16500  0.23700  Biso   1.000  C
  H9       1.0000 0.35980  0.29510  0.69160  Biso   1.000  H
  H10      1.0000 0.64020  0.79510  0.80840  Biso   1.000  H
  H11      1.0000 0.64020  0.70490  0.30840  Biso   1.000  H
  H12      1.0000 0.35980  0.20490  0.19160  Biso   1.000  H
  C9       1.0000 0.36400  0.39060  0.65500  Biso   1.000  C
  C10      1.0000 0.63600  0.89060  0.84500  Biso   1.000  C
  C11      1.0000 0.63600  0.60940  0.34500  Biso   1.000  C
  C12      1.0000 0.36400  0.10940  0.15500  Biso   1.000  C
  H13      1.0000 0.38830  0.38850  0.55350  Biso   1.000  H
  H14      1.0000 0.61170  0.88850  0.94650  Biso   1.000  H
  H15      1.0000 0.61170  0.61150  0.44650  Biso   1.000  H
  H16      1.0000 0.38830  0.11150  0.05350  Biso   1.000  H
  C13      1.0000 0.34290  0.44880  0.72150  Biso   1.000  C
  C14      1.0000 0.65710  0.94880  0.77850  Biso   1.000  C
  C15      1.0000 0.65710  0.55120  0.27850  Biso   1.000  C
  C16      1.0000 0.34290  0.05120  0.22150  Biso   1.000  C
  H17      1.0000 0.35270  0.48650  0.66670  Biso   1.000  H
  H18      1.0000 0.64730  0.98650  0.83330  Biso   1.000  H
  H19      1.0000 0.64730  0.51350  0.33330  Biso   1.000  H
  H20      1.0000 0.35270  0.01350  0.16670  Biso   1.000  H
  C17      1.0000 0.30580  0.45040  0.87580  Biso   1.000  C
  C18      1.0000 0.69420  0.95040  0.62420  Biso   1.000  C
  C19      1.0000 0.69420  0.54960  0.12420  Biso   1.000  C
  C20      1.0000 0.30580  0.04960  0.37580  Biso   1.000  C
  C21      1.0000 0.22910  0.52730  0.08020  Biso   1.000  C
  C22      1.0000 0.77090  0.02730  0.41980  Biso   1.000  C
  C23      1.0000 0.77090  0.47270  0.91980  Biso   1.000  C
  C24      1.0000 0.22910  0.97270  0.58020  Biso   1.000  C
  C25      1.0000 0.20300  0.59300  0.10480  Biso   1.000  C
  C26      1.0000 0.79700  0.09300  0.39520  Biso   1.000  C
  C27      1.0000 0.79700  0.40700  0.89520  Biso   1.000  C
  C28      1.0000 0.20300  0.90700  0.60480  Biso   1.000  C
  H21      1.0000 0.21480  0.62230  0.02700  Biso   1.000  H
  H22      1.0000 0.78520  0.12230  0.47300  Biso   1.000  H
  H23      1.0000 0.78520  0.37770  0.97300  Biso   1.000  H
  H24      1.0000 0.21480  0.87770  0.52700  Biso   1.000  H
  C29      1.0000 0.16000  0.61330  0.24450  Biso   1.000  C
  C30      1.0000 0.84000  0.11330  0.25550  Biso   1.000  C
  C31      1.0000 0.84000  0.38670  0.75550  Biso   1.000  C
  C32      1.0000 0.16000  0.88670  0.74450  Biso   1.000  C
  H25      1.0000 0.14350  0.65680  0.26340  Biso   1.000  H
  H26      1.0000 0.85650  0.15680  0.23660  Biso   1.000  H
  H27      1.0000 0.85650  0.34320  0.73660  Biso   1.000  H
  H28      1.0000 0.14350  0.84320  0.76340  Biso   1.000  H
  C33      1.0000 0.14110  0.56860  0.35830  Biso   1.000  C
  C34      1.0000 0.85890  0.06860  0.14170  Biso   1.000  C
  C35      1.0000 0.85890  0.43140  0.64170  Biso   1.000  C
  C36      1.0000 0.14110  0.93140  0.85830  Biso   1.000  C
  H29      1.0000 0.11340  0.58130  0.45480  Biso   1.000  H
  H30      1.0000 0.88660  0.08130  0.04520  Biso   1.000  H
  H31      1.0000 0.88660  0.41870  0.54520  Biso   1.000  H
  H32      1.0000 0.11340  0.91870  0.95480  Biso   1.000  H
  C37      1.0000 0.16410  0.50610  0.32440  Biso   1.000  C
  C38      1.0000 0.83590  0.00610  0.17560  Biso   1.000  C
  C39      1.0000 0.83590  0.49390  0.67560  Biso   1.000  C
  C40      1.0000 0.16410  0.99390  0.82440  Biso   1.000  C
  H33      1.0000 0.14880  0.47630  0.40050  Biso   1.000  H
  H34      1.0000 0.85120  0.97630  0.09950  Biso   1.000  H
  H35      1.0000 0.85120  0.52370  0.59950  Biso   1.000  H
  H36      1.0000 0.14880  0.02370  0.90050  Biso   1.000  H
  C41      1.0000 0.00630  0.32490  0.28600  Biso   1.000  C
  C42      1.0000 0.99370  0.82490  0.21400  Biso   1.000  C
  C43      1.0000 0.99370  0.67510  0.71400  Biso   1.000  C
  C44      1.0000 0.00630  0.17510  0.78600  Biso   1.000  C
  C45      1.0000 0.88200  0.28870  0.38460  Biso   1.000  C
  C46      1.0000 0.11800  0.78870  0.11540  Biso   1.000  C
  C47      1.0000 0.11800  0.71130  0.61540  Biso   1.000  C
  C48      1.0000 0.88200  0.21130  0.88460  Biso   1.000  C
  H37      1.0000 0.93770  0.26030  0.45440  Biso   1.000  H
  H38      1.0000 0.06230  0.76030  0.04560  Biso   1.000  H
  H39      1.0000 0.06230  0.73970  0.54560  Biso   1.000  H
  H40      1.0000 0.93770  0.23970  0.95440  Biso   1.000  H
  C49      1.0000 0.69950  0.29390  0.37980  Biso   1.000  C
  C50      1.0000 0.30050  0.79390  0.12020  Biso   1.000  C
  C51      1.0000 0.30050  0.70610  0.62020  Biso   1.000  C
  C52      1.0000 0.69950  0.20610  0.87980  Biso   1.000  C
  H41      1.0000 0.63400  0.26650  0.44010  Biso   1.000  H
  H42      1.0000 0.36600  0.76650  0.05990  Biso   1.000  H
  H43      1.0000 0.36600  0.73350  0.55990  Biso   1.000  H
  H44      1.0000 0.63400  0.23350  0.94010  Biso   1.000  H
  C53      1.0000 0.59060  0.34080  0.28440  Biso   1.000  C
  C54      1.0000 0.40940  0.84080  0.21560  Biso   1.000  C
  C55      1.0000 0.40940  0.65920  0.71560  Biso   1.000  C
  C56      1.0000 0.59060  0.15920  0.78440  Biso   1.000  C
