data_image0
_cell_length_a       5.1912
_cell_length_b       7.3362
_cell_length_c       8.076
_cell_angle_alpha    72.38
_cell_angle_beta     73.35
_cell_angle_gamma    72.06

_symmetry_space_group_name_H-M    "P 1"
_symmetry_int_tables_number       1

loop_
  _symmetry_equiv_pos_as_xyz
  'x, y, z'

loop_
  _atom_site_label
  _atom_site_occupancy
  _atom_site_fract_x
  _atom_site_fract_y
  _atom_site_fract_z
  _atom_site_thermal_displace_type
  _atom_site_B_iso_or_equiv
  _atom_site_type_symbol
  Cu1      1.0000 0.50000  0.50000  0.50000  Biso   1.000  Cu
  O1       1.0000 0.22090  0.62730  0.35621  Biso   1.000  O
  O2       1.0000 0.77910  0.37270  0.64379  Biso   1.000  O
  O3       1.0000 0.78030  0.79960  0.37570  Biso   1.000  O
  O4       1.0000 0.21970  0.20040  0.62430  Biso   1.000  O
  N1       1.0000 0.22910  0.64330  0.67259  Biso   1.000  N
  N2       1.0000 0.77090  0.35670  0.32741  Biso   1.000  N
  N3       1.0000 0.80140  0.86500  0.87890  Biso   1.000  N
  N4       1.0000 0.19860  0.13500  0.12110  Biso   1.000  N
  H1       1.0000 0.65770  0.93940  0.94850  Biso   1.000  H
  H2       1.0000 0.34230  0.06060  0.05150  Biso   1.000  H
  C1       1.0000 0.24910  0.64710  0.83340  Biso   1.000  C
  C2       1.0000 0.75090  0.35290  0.16660  Biso   1.000  C
  C3       1.0000 0.03650  0.75700  0.93780  Biso   1.000  C
  C4       1.0000 0.96350  0.24300  0.06220  Biso   1.000  C
  C5       1.0000 0.78240  0.86110  0.71480  Biso   1.000  C
  C6       1.0000 0.21760  0.13890  0.28520  Biso   1.000  C
  C7       1.0000 0.99730  0.74830  0.61420  Biso   1.000  C
  C8       1.0000 0.00270  0.25170  0.38580  Biso   1.000  C
  C9       1.0000 0.99340  0.72770  0.43350  Biso   1.000  C
  C10      1.0000 0.00660  0.27230  0.56650  Biso   1.000  C
  H3       1.0000 0.41000  0.57700  0.86700  Biso   1.000  H
  H4       1.0000 0.59000  0.42300  0.13300  Biso   1.000  H
  H5       1.0000 0.05300  0.75200  0.04200  Biso   1.000  H
  H6       1.0000 0.94700  0.24800  0.95800  Biso   1.000  H
  H7       1.0000 0.62800  0.93500  0.66800  Biso   1.000  H
  H8       1.0000 0.37200  0.06500  0.33200  Biso   1.000  H
