data_image0
_cell_length_a       12.1263
_cell_length_b       12.1263
_cell_length_c       17.632
_cell_angle_alpha    90
_cell_angle_beta     90
_cell_angle_gamma    90

_symmetry_space_group_name_H-M    "P 1"
_symmetry_int_tables_number       1

loop_
  _symmetry_equiv_pos_as_xyz
  'x, y, z'

loop_
  _atom_site_label
  _atom_site_occupancy
  _atom_site_fract_x
  _atom_site_fract_y
  _atom_site_fract_z
  _atom_site_thermal_displace_type
  _atom_site_B_iso_or_equiv
  _atom_site_type_symbol
  Cu1      1.0000 0.75000  0.25000  0.00000  Biso   1.000  Cu
  Cu2      1.0000 0.25000  0.75000  0.50000  Biso   1.000  Cu
  Cu3      1.0000 0.25000  0.75000  0.00000  Biso   1.000  Cu
  Cu4      1.0000 0.75000  0.25000  0.50000  Biso   1.000  Cu
  C1       1.0000 0.61530  0.28280  0.14290  Biso   1.000  C
  C2       1.0000 0.21720  0.61530  0.64290  Biso   1.000  C
  C3       1.0000 0.28280  0.88470  0.64290  Biso   1.000  C
  C4       1.0000 0.78280  0.11530  0.85710  Biso   1.000  C
  C5       1.0000 0.88470  0.21720  0.14290  Biso   1.000  C
  C6       1.0000 0.38470  0.78280  0.35710  Biso   1.000  C
  C7       1.0000 0.11530  0.71720  0.35710  Biso   1.000  C
  C8       1.0000 0.71720  0.38470  0.85710  Biso   1.000  C
  C9       1.0000 0.38470  0.71720  0.85710  Biso   1.000  C
  C10      1.0000 0.78280  0.38470  0.35710  Biso   1.000  C
  C11      1.0000 0.71720  0.11530  0.35710  Biso   1.000  C
  C12      1.0000 0.21720  0.88470  0.14290  Biso   1.000  C
  C13      1.0000 0.11530  0.78280  0.85710  Biso   1.000  C
  C14      1.0000 0.61530  0.21720  0.64290  Biso   1.000  C
  C15      1.0000 0.88470  0.28280  0.64290  Biso   1.000  C
  C16      1.0000 0.28280  0.61530  0.14290  Biso   1.000  C
  H1       1.0000 0.61060  0.20720  0.15160  Biso   1.000  H
  H2       1.0000 0.29280  0.61060  0.65160  Biso   1.000  H
  H3       1.0000 0.20720  0.88940  0.65160  Biso   1.000  H
  H4       1.0000 0.70720  0.11060  0.84840  Biso   1.000  H
  H5       1.0000 0.88940  0.29280  0.15160  Biso   1.000  H
  H6       1.0000 0.38940  0.70720  0.34840  Biso   1.000  H
  H7       1.0000 0.11060  0.79280  0.34840  Biso   1.000  H
  H8       1.0000 0.79280  0.38940  0.84840  Biso   1.000  H
  H9       1.0000 0.38940  0.79280  0.84840  Biso   1.000  H
  H10      1.0000 0.70720  0.38940  0.34840  Biso   1.000  H
  H11      1.0000 0.79280  0.11060  0.34840  Biso   1.000  H
  H12      1.0000 0.29280  0.88940  0.15160  Biso   1.000  H
  H13      1.0000 0.11060  0.70720  0.84840  Biso   1.000  H
  H14      1.0000 0.61060  0.29280  0.65160  Biso   1.000  H
  H15      1.0000 0.88940  0.20720  0.65160  Biso   1.000  H
  H16      1.0000 0.20720  0.61060  0.15160  Biso   1.000  H
  C17      1.0000 0.57330  0.35970  0.18880  Biso   1.000  C
  C18      1.0000 0.14030  0.57330  0.68880  Biso   1.000  C
  C19      1.0000 0.35970  0.92670  0.68880  Biso   1.000  C
  C20      1.0000 0.85970  0.07330  0.81120  Biso   1.000  C
  C21      1.0000 0.92670  0.14030  0.18880  Biso   1.000  C
  C22      1.0000 0.42670  0.85970  0.31120  Biso   1.000  C
  C23      1.0000 0.07330  0.64030  0.31120  Biso   1.000  C
  C24      1.0000 0.64030  0.42670  0.81120  Biso   1.000  C
  C25      1.0000 0.42670  0.64030  0.81120  Biso   1.000  C
  C26      1.0000 0.85970  0.42670  0.31120  Biso   1.000  C
  C27      1.0000 0.64030  0.07330  0.31120  Biso   1.000  C
  C28      1.0000 0.14030  0.92670  0.18880  Biso   1.000  C
  C29      1.0000 0.07330  0.85970  0.81120  Biso   1.000  C
  C30      1.0000 0.57330  0.14030  0.68880  Biso   1.000  C
  C31      1.0000 0.92670  0.35970  0.68880  Biso   1.000  C
  C32      1.0000 0.35970  0.57330  0.18880  Biso   1.000  C
  H17      1.0000 0.53500  0.34870  0.23390  Biso   1.000  H
  H18      1.0000 0.15130  0.53500  0.73390  Biso   1.000  H
  H19      1.0000 0.34870  0.96500  0.73390  Biso   1.000  H
  H20      1.0000 0.84870  0.03500  0.76610  Biso   1.000  H
  H21      1.0000 0.96500  0.15130  0.23390  Biso   1.000  H
  H22      1.0000 0.46500  0.84870  0.26610  Biso   1.000  H
  H23      1.0000 0.03500  0.65130  0.26610  Biso   1.000  H
  H24      1.0000 0.65130  0.46500  0.76610  Biso   1.000  H
  H25      1.0000 0.46500  0.65130  0.76610  Biso   1.000  H
  H26      1.0000 0.84870  0.46500  0.26610  Biso   1.000  H
  H27      1.0000 0.65130  0.03500  0.26610  Biso   1.000  H
  H28      1.0000 0.15130  0.96500  0.23390  Biso   1.000  H
  H29      1.0000 0.03500  0.84870  0.76610  Biso   1.000  H
  H30      1.0000 0.53500  0.15130  0.73390  Biso   1.000  H
  H31      1.0000 0.96500  0.34870  0.73390  Biso   1.000  H
  H32      1.0000 0.34870  0.53500  0.23390  Biso   1.000  H
  C33      1.0000 0.65530  0.43540  0.09090  Biso   1.000  C
  C34      1.0000 0.06460  0.65530  0.59090  Biso   1.000  C
  C35      1.0000 0.43540  0.84470  0.59090  Biso   1.000  C
  C36      1.0000 0.93540  0.15530  0.90910  Biso   1.000  C
  C37      1.0000 0.84470  0.06460  0.09090  Biso   1.000  C
  C38      1.0000 0.34470  0.93540  0.40910  Biso   1.000  C
  C39      1.0000 0.15530  0.56460  0.40910  Biso   1.000  C
  C40      1.0000 0.56460  0.34470  0.90910  Biso   1.000  C
  C41      1.0000 0.34470  0.56460  0.90910  Biso   1.000  C
  C42      1.0000 0.93540  0.34470  0.40910  Biso   1.000  C
  C43      1.0000 0.56460  0.15530  0.40910  Biso   1.000  C
  C44      1.0000 0.06460  0.84470  0.09090  Biso   1.000  C
  C45      1.0000 0.15530  0.93540  0.90910  Biso   1.000  C
  C46      1.0000 0.65530  0.06460  0.59090  Biso   1.000  C
  C47      1.0000 0.84470  0.43540  0.59090  Biso   1.000  C
  C48      1.0000 0.43540  0.65530  0.09090  Biso   1.000  C
  H33      1.0000 0.68270  0.48820  0.05770  Biso   1.000  H
  H34      1.0000 0.01180  0.68270  0.55770  Biso   1.000  H
  H35      1.0000 0.48820  0.81730  0.55770  Biso   1.000  H
  H36      1.0000 0.98820  0.18270  0.94230  Biso   1.000  H
  H37      1.0000 0.81730  0.01180  0.05770  Biso   1.000  H
  H38      1.0000 0.31730  0.98820  0.44230  Biso   1.000  H
  H39      1.0000 0.18270  0.51180  0.44230  Biso   1.000  H
  H40      1.0000 0.51180  0.31730  0.94230  Biso   1.000  H
  H41      1.0000 0.31730  0.51180  0.94230  Biso   1.000  H
  H42      1.0000 0.98820  0.31730  0.44230  Biso   1.000  H
  H43      1.0000 0.51180  0.18270  0.44230  Biso   1.000  H
  H44      1.0000 0.01180  0.81730  0.05770  Biso   1.000  H
  H45      1.0000 0.18270  0.98820  0.94230  Biso   1.000  H
  H46      1.0000 0.68270  0.01180  0.55770  Biso   1.000  H
  H47      1.0000 0.81730  0.48820  0.55770  Biso   1.000  H
  H48      1.0000 0.48820  0.68270  0.05770  Biso   1.000  H
  C49      1.0000 0.56850  0.56850  0.18110  Biso   1.000  C
  C50      1.0000 0.93150  0.56850  0.68110  Biso   1.000  C
  C51      1.0000 0.56850  0.93150  0.68110  Biso   1.000  C
  C52      1.0000 0.06850  0.06850  0.81890  Biso   1.000  C
  C53      1.0000 0.93150  0.93150  0.18110  Biso   1.000  C
  C54      1.0000 0.43150  0.06850  0.31890  Biso   1.000  C
  C55      1.0000 0.06850  0.43150  0.31890  Biso   1.000  C
  C56      1.0000 0.43150  0.43150  0.81890  Biso   1.000  C
  H49      1.0000 0.57050  0.57050  0.23610  Biso   1.000  H
  H50      1.0000 0.92950  0.57050  0.73610  Biso   1.000  H
  H51      1.0000 0.57050  0.92950  0.73610  Biso   1.000  H
  H52      1.0000 0.07050  0.07050  0.76390  Biso   1.000  H
  H53      1.0000 0.92950  0.92950  0.23610  Biso   1.000  H
  H54      1.0000 0.42950  0.07050  0.26390  Biso   1.000  H
  H55      1.0000 0.07050  0.42950  0.26390  Biso   1.000  H
  H56      1.0000 0.42950  0.42950  0.76390  Biso   1.000  H
  H57      1.0000 0.62160  0.62160  0.16230  Biso   1.000  H
  H58      1.0000 0.87840  0.62160  0.66230  Biso   1.000  H
  H59      1.0000 0.62160  0.87840  0.66230  Biso   1.000  H
  H60      1.0000 0.12160  0.12160  0.83770  Biso   1.000  H
  H61      1.0000 0.87840  0.87840  0.16230  Biso   1.000  H
  H62      1.0000 0.37840  0.12160  0.33770  Biso   1.000  H
  H63      1.0000 0.12160  0.37840  0.33770  Biso   1.000  H
  H64      1.0000 0.37840  0.37840  0.83770  Biso   1.000  H
  C57      1.0000 0.66590  0.83410  0.91400  Biso   1.000  C
  C58      1.0000 0.66590  0.66590  0.41400  Biso   1.000  C
  C59      1.0000 0.83410  0.83410  0.41400  Biso   1.000  C
  C60      1.0000 0.33410  0.16590  0.08600  Biso   1.000  C
  C61      1.0000 0.83410  0.66590  0.91400  Biso   1.000  C
  C62      1.0000 0.33410  0.33410  0.58600  Biso   1.000  C
  C63      1.0000 0.16590  0.16590  0.58600  Biso   1.000  C
  C64      1.0000 0.16590  0.33410  0.08600  Biso   1.000  C
  H65      1.0000 0.65640  0.84360  0.96800  Biso   1.000  H
  H66      1.0000 0.65640  0.65640  0.46800  Biso   1.000  H
  H67      1.0000 0.84360  0.84360  0.46800  Biso   1.000  H
  H68      1.0000 0.34360  0.15640  0.03200  Biso   1.000  H
  H69      1.0000 0.84360  0.65640  0.96800  Biso   1.000  H
  H70      1.0000 0.34360  0.34360  0.53200  Biso   1.000  H
  H71      1.0000 0.15640  0.15640  0.53200  Biso   1.000  H
  H72      1.0000 0.15640  0.34360  0.03200  Biso   1.000  H
  H73      1.0000 0.68880  0.90290  0.89210  Biso   1.000  H
  H74      1.0000 0.59710  0.68880  0.39210  Biso   1.000  H
  H75      1.0000 0.90290  0.81120  0.39210  Biso   1.000  H
  H76      1.0000 0.40290  0.18880  0.10790  Biso   1.000  H
  H77      1.0000 0.81120  0.59710  0.89210  Biso   1.000  H
  H78      1.0000 0.31120  0.40290  0.60790  Biso   1.000  H
  H79      1.0000 0.18880  0.09710  0.60790  Biso   1.000  H
  H80      1.0000 0.09710  0.31120  0.10790  Biso   1.000  H
  H81      1.0000 0.31120  0.09710  0.10790  Biso   1.000  H
  H82      1.0000 0.40290  0.31120  0.60790  Biso   1.000  H
  H83      1.0000 0.09710  0.18880  0.60790  Biso   1.000  H
  H84      1.0000 0.59710  0.81120  0.89210  Biso   1.000  H
  H85      1.0000 0.18880  0.40290  0.10790  Biso   1.000  H
  H86      1.0000 0.68880  0.59710  0.39210  Biso   1.000  H
  H87      1.0000 0.81120  0.90290  0.39210  Biso   1.000  H
  H88      1.0000 0.90290  0.68880  0.89210  Biso   1.000  H
  C65      1.0000 0.75000  0.75000  0.90150  Biso   1.000  C
  C66      1.0000 0.75000  0.75000  0.40150  Biso   1.000  C
  C67      1.0000 0.25000  0.25000  0.09850  Biso   1.000  C
  C68      1.0000 0.25000  0.25000  0.59850  Biso   1.000  C
  Cl1      1.0000 0.54500  0.95500  0.13700  Biso   1.000  Cl
  Cl2      1.0000 0.54500  0.54500  0.63700  Biso   1.000  Cl
  Cl3      1.0000 0.95500  0.95500  0.63700  Biso   1.000  Cl
  Cl4      1.0000 0.45500  0.04500  0.86300  Biso   1.000  Cl
  Cl5      1.0000 0.95500  0.54500  0.13700  Biso   1.000  Cl
  Cl6      1.0000 0.45500  0.45500  0.36300  Biso   1.000  Cl
  Cl7      1.0000 0.04500  0.04500  0.36300  Biso   1.000  Cl
  Cl8      1.0000 0.04500  0.45500  0.86300  Biso   1.000  Cl
  Cl9      1.0000 0.49900  0.00100  0.13900  Biso   1.000  Cl
  Cl10     1.0000 0.49900  0.49900  0.63900  Biso   1.000  Cl
  Cl11     1.0000 0.00100  0.00100  0.63900  Biso   1.000  Cl
  Cl12     1.0000 0.50100  0.99900  0.86100  Biso   1.000  Cl
  Cl13     1.0000 0.00100  0.49900  0.13900  Biso   1.000  Cl
  Cl14     1.0000 0.50100  0.50100  0.36100  Biso   1.000  Cl
  Cl15     1.0000 0.99900  0.99900  0.36100  Biso   1.000  Cl
  Cl16     1.0000 0.99900  0.50100  0.86100  Biso   1.000  Cl
  N1       1.0000 0.66600  0.32920  0.08180  Biso   1.000  N
  N2       1.0000 0.17080  0.66600  0.58180  Biso   1.000  N
  N3       1.0000 0.32920  0.83400  0.58180  Biso   1.000  N
  N4       1.0000 0.82920  0.16600  0.91820  Biso   1.000  N
  N5       1.0000 0.83400  0.17080  0.08180  Biso   1.000  N
  N6       1.0000 0.33400  0.82920  0.41820  Biso   1.000  N
  N7       1.0000 0.16600  0.67080  0.41820  Biso   1.000  N
  N8       1.0000 0.67080  0.33400  0.91820  Biso   1.000  N
  N9       1.0000 0.33400  0.67080  0.91820  Biso   1.000  N
  N10      1.0000 0.82920  0.33400  0.41820  Biso   1.000  N
  N11      1.0000 0.67080  0.16600  0.41820  Biso   1.000  N
  N12      1.0000 0.17080  0.83400  0.08180  Biso   1.000  N
  N13      1.0000 0.16600  0.82920  0.91820  Biso   1.000  N
  N14      1.0000 0.66600  0.17080  0.58180  Biso   1.000  N
  N15      1.0000 0.83400  0.32920  0.58180  Biso   1.000  N
  N16      1.0000 0.32920  0.66600  0.08180  Biso   1.000  N
  N17      1.0000 0.59890  0.45840  0.15510  Biso   1.000  N
  N18      1.0000 0.04160  0.59890  0.65510  Biso   1.000  N
  N19      1.0000 0.45840  0.90110  0.65510  Biso   1.000  N
  N20      1.0000 0.95840  0.09890  0.84490  Biso   1.000  N
  N21      1.0000 0.90110  0.04160  0.15510  Biso   1.000  N
  N22      1.0000 0.40110  0.95840  0.34490  Biso   1.000  N
  N23      1.0000 0.09890  0.54160  0.34490  Biso   1.000  N
  N24      1.0000 0.54160  0.40110  0.84490  Biso   1.000  N
  N25      1.0000 0.40110  0.54160  0.84490  Biso   1.000  N
  N26      1.0000 0.95840  0.40110  0.34490  Biso   1.000  N
  N27      1.0000 0.54160  0.09890  0.34490  Biso   1.000  N
  N28      1.0000 0.04160  0.90110  0.15510  Biso   1.000  N
  N29      1.0000 0.09890  0.95840  0.84490  Biso   1.000  N
  N30      1.0000 0.59890  0.04160  0.65510  Biso   1.000  N
  N31      1.0000 0.90110  0.45840  0.65510  Biso   1.000  N
  N32      1.0000 0.45840  0.59890  0.15510  Biso   1.000  N
  O1       1.0000 0.75000  0.75000  0.81680  Biso   1.000  O
  O2       1.0000 0.75000  0.75000  0.31680  Biso   1.000  O
  O3       1.0000 0.25000  0.25000  0.18320  Biso   1.000  O
  O4       1.0000 0.25000  0.25000  0.68320  Biso   1.000  O
  O5       1.0000 0.60800  0.10800  0.00000  Biso   1.000  O
  O6       1.0000 0.39200  0.60800  0.50000  Biso   1.000  O
  O7       1.0000 0.10800  0.89200  0.50000  Biso   1.000  O
  O8       1.0000 0.89200  0.39200  0.00000  Biso   1.000  O
  O9       1.0000 0.39200  0.89200  0.00000  Biso   1.000  O
  O10      1.0000 0.60800  0.39200  0.50000  Biso   1.000  O
  O11      1.0000 0.89200  0.10800  0.50000  Biso   1.000  O
  O12      1.0000 0.10800  0.60800  0.00000  Biso   1.000  O
  O13      1.0000 0.69980  0.80020  0.12810  Biso   1.000  O
  O14      1.0000 0.69980  0.69980  0.62810  Biso   1.000  O
  O15      1.0000 0.80020  0.80020  0.62810  Biso   1.000  O
  O16      1.0000 0.30020  0.19980  0.87190  Biso   1.000  O
  O17      1.0000 0.80020  0.69980  0.12810  Biso   1.000  O
  O18      1.0000 0.30020  0.30020  0.37190  Biso   1.000  O
  O19      1.0000 0.19980  0.19980  0.37190  Biso   1.000  O
  O20      1.0000 0.19980  0.30020  0.87190  Biso   1.000  O
  O21      1.0000 0.70000  0.70000  0.93670  Biso   1.000  O
  O22      1.0000 0.80000  0.70000  0.43670  Biso   1.000  O
  O23      1.0000 0.70000  0.80000  0.43670  Biso   1.000  O
  O24      1.0000 0.20000  0.20000  0.06330  Biso   1.000  O
  O25      1.0000 0.80000  0.80000  0.93670  Biso   1.000  O
  O26      1.0000 0.30000  0.20000  0.56330  Biso   1.000  O
  O27      1.0000 0.20000  0.30000  0.56330  Biso   1.000  O
  O28      1.0000 0.30000  0.30000  0.06330  Biso   1.000  O
  O29      1.0000 0.66090  0.66090  0.99940  Biso   1.000  O
  O30      1.0000 0.83910  0.66090  0.49940  Biso   1.000  O
  O31      1.0000 0.66090  0.83910  0.49940  Biso   1.000  O
  O32      1.0000 0.16090  0.16090  0.00060  Biso   1.000  O
  O33      1.0000 0.83910  0.83910  0.99940  Biso   1.000  O
  O34      1.0000 0.33910  0.16090  0.50060  Biso   1.000  O
  O35      1.0000 0.16090  0.33910  0.50060  Biso   1.000  O
  O36      1.0000 0.33910  0.33910  0.00060  Biso   1.000  O
