data_image0
_cell_length_a       9.131
_cell_length_b       9.253
_cell_length_c       12.435
_cell_angle_alpha    90
_cell_angle_beta     92.58
_cell_angle_gamma    90

_symmetry_space_group_name_H-M    "P 1"
_symmetry_int_tables_number       1

loop_
  _symmetry_equiv_pos_as_xyz
  'x, y, z'

loop_
  _atom_site_label
  _atom_site_occupancy
  _atom_site_fract_x
  _atom_site_fract_y
  _atom_site_fract_z
  _atom_site_thermal_displace_type
  _atom_site_B_iso_or_equiv
  _atom_site_type_symbol
  Cu1      1.0000 0.00000  0.50000  0.50000  Biso   1.000  Cu
  Cu2      1.0000 0.50000  0.00000  0.00000  Biso   1.000  Cu
  N1       1.0000 0.03380  0.29170  0.53720  Biso   1.000  N
  N2       1.0000 0.46620  0.79170  0.96280  Biso   1.000  N
  N3       1.0000 0.96620  0.70830  0.46280  Biso   1.000  N
  N4       1.0000 0.53380  0.20830  0.03720  Biso   1.000  N
  N5       1.0000 0.05180  0.09660  0.63650  Biso   1.000  N
  N6       1.0000 0.44820  0.59660  0.86350  Biso   1.000  N
  N7       1.0000 0.94820  0.90340  0.36350  Biso   1.000  N
  N8       1.0000 0.55180  0.40340  0.13650  Biso   1.000  N
  N9       1.0000 0.29700  0.04020  0.93690  Biso   1.000  N
  N10      1.0000 0.20300  0.54020  0.56310  Biso   1.000  N
  N11      1.0000 0.70300  0.95980  0.06310  Biso   1.000  N
  N12      1.0000 0.79700  0.45980  0.43690  Biso   1.000  N
  N13      1.0000 0.11060  0.03240  0.82020  Biso   1.000  N
  N14      1.0000 0.38940  0.53240  0.67980  Biso   1.000  N
  N15      1.0000 0.88940  0.96760  0.17980  Biso   1.000  N
  N16      1.0000 0.61060  0.46760  0.32020  Biso   1.000  N
  Cl1      1.0000 0.08188  0.42369  0.21353  Biso   1.000  Cl
  Cl2      1.0000 0.41812  0.92369  0.28647  Biso   1.000  Cl
  Cl3      1.0000 0.91812  0.57631  0.78647  Biso   1.000  Cl
  Cl4      1.0000 0.58188  0.07631  0.71353  Biso   1.000  Cl
  O1       1.0000 0.12180  0.47000  0.31900  Biso   1.000  O
  O2       1.0000 0.37820  0.97000  0.18100  Biso   1.000  O
  O3       1.0000 0.87820  0.53000  0.68100  Biso   1.000  O
  O4       1.0000 0.62180  0.03000  0.81900  Biso   1.000  O
  O5       1.0000 0.96120  0.33480  0.20860  Biso   1.000  O
  O6       1.0000 0.53880  0.83480  0.29140  Biso   1.000  O
  O7       1.0000 0.03880  0.66520  0.79140  Biso   1.000  O
  O8       1.0000 0.46120  0.16520  0.70860  Biso   1.000  O
  O9       1.0000 0.99330  0.55700  0.17170  Biso   1.000  O
  O10      1.0000 0.50670  0.05700  0.32830  Biso   1.000  O
  O11      1.0000 0.00670  0.44300  0.82830  Biso   1.000  O
  O12      1.0000 0.49330  0.94300  0.67170  Biso   1.000  O
  O13      1.0000 0.14300  0.49610  0.13910  Biso   1.000  O
  O14      1.0000 0.35700  0.99610  0.36090  Biso   1.000  O
  O15      1.0000 0.85700  0.50390  0.86090  Biso   1.000  O
  O16      1.0000 0.64300  0.00390  0.63910  Biso   1.000  O
  O17      1.0000 0.19090  0.40920  0.14400  Biso   1.000  O
  O18      1.0000 0.30910  0.90920  0.35600  Biso   1.000  O
  O19      1.0000 0.80910  0.59080  0.85600  Biso   1.000  O
  O20      1.0000 0.69090  0.09080  0.64400  Biso   1.000  O
  O21      1.0000 0.17910  0.28120  0.22600  Biso   1.000  O
  O22      1.0000 0.32090  0.78120  0.27400  Biso   1.000  O
  O23      1.0000 0.82090  0.71880  0.77400  Biso   1.000  O
  O24      1.0000 0.67910  0.21880  0.72600  Biso   1.000  O
  C1       1.0000 0.14150  0.20330  0.49800  Biso   1.000  C
  C2       1.0000 0.35850  0.70330  0.00200  Biso   1.000  C
  C3       1.0000 0.85850  0.79670  0.50200  Biso   1.000  C
  C4       1.0000 0.64150  0.29670  0.99800  Biso   1.000  C
  H1       1.0000 0.19690  0.22310  0.43880  Biso   1.000  H
  H2       1.0000 0.30310  0.72310  0.06120  Biso   1.000  H
  H3       1.0000 0.80310  0.77690  0.56120  Biso   1.000  H
  H4       1.0000 0.69690  0.27690  0.93880  Biso   1.000  H
  C5       1.0000 0.98290  0.22360  0.62020  Biso   1.000  C
  C6       1.0000 0.51710  0.72360  0.87980  Biso   1.000  C
  C7       1.0000 0.01710  0.77640  0.37980  Biso   1.000  C
  C8       1.0000 0.48290  0.27640  0.12020  Biso   1.000  C
  H5       1.0000 0.90900  0.25860  0.66220  Biso   1.000  H
  H6       1.0000 0.59100  0.75860  0.83780  Biso   1.000  H
  H7       1.0000 0.09100  0.74140  0.33780  Biso   1.000  H
  H8       1.0000 0.40900  0.24140  0.16220  Biso   1.000  H
  C9       1.0000 0.15260  0.08430  0.55950  Biso   1.000  C
  C10      1.0000 0.34740  0.58430  0.94050  Biso   1.000  C
  C11      1.0000 0.84740  0.91570  0.44050  Biso   1.000  C
  C12      1.0000 0.65260  0.41570  0.05950  Biso   1.000  C
  H9       1.0000 0.21700  0.00780  0.55110  Biso   1.000  H
  H10      1.0000 0.28300  0.50780  0.94890  Biso   1.000  H
  H11      1.0000 0.78300  0.99220  0.44890  Biso   1.000  H
  H12      1.0000 0.71700  0.49220  0.05110  Biso   1.000  H
  C13      1.0000 0.19510  0.13840  0.96530  Biso   1.000  C
  C14      1.0000 0.30490  0.63840  0.53470  Biso   1.000  C
  C15      1.0000 0.80490  0.86160  0.03470  Biso   1.000  C
  C16      1.0000 0.69510  0.36160  0.46530  Biso   1.000  C
  H13      1.0000 0.20370  0.19890  0.02500  Biso   1.000  H
  H14      1.0000 0.29630  0.69890  0.47500  Biso   1.000  H
  H15      1.0000 0.79630  0.80110  0.97500  Biso   1.000  H
  H16      1.0000 0.70370  0.30110  0.52500  Biso   1.000  H
  C17      1.0000 0.24210  0.97860  0.84890  Biso   1.000  C
  C18      1.0000 0.25790  0.47860  0.65110  Biso   1.000  C
  C19      1.0000 0.75790  0.02140  0.15110  Biso   1.000  C
  C20      1.0000 0.74210  0.52140  0.34890  Biso   1.000  C
  H17      1.0000 0.28900  0.90650  0.81130  Biso   1.000  H
  H18      1.0000 0.21100  0.40650  0.68870  Biso   1.000  H
  H19      1.0000 0.71100  0.09350  0.18870  Biso   1.000  H
  H20      1.0000 0.78900  0.59350  0.31130  Biso   1.000  H
  C21      1.0000 0.08020  0.13480  0.89420  Biso   1.000  C
  C22      1.0000 0.41980  0.63480  0.60580  Biso   1.000  C
  C23      1.0000 0.91980  0.86520  0.10580  Biso   1.000  C
  C24      1.0000 0.58020  0.36520  0.39420  Biso   1.000  C
  H21      1.0000 0.99610  0.19150  0.89540  Biso   1.000  H
  H22      1.0000 0.50390  0.69150  0.60460  Biso   1.000  H
  H23      1.0000 0.00390  0.80850  0.10460  Biso   1.000  H
  H24      1.0000 0.49610  0.30850  0.39540  Biso   1.000  H
  C25      1.0000 0.02440  0.99620  0.72260  Biso   1.000  C
  C26      1.0000 0.47560  0.49620  0.77740  Biso   1.000  C
  C27      1.0000 0.97560  0.00380  0.27740  Biso   1.000  C
  C28      1.0000 0.52440  0.50380  0.22260  Biso   1.000  C
  H25      1.0000 0.04880  0.89900  0.70010  Biso   1.000  H
  H26      1.0000 0.45120  0.39900  0.79990  Biso   1.000  H
  H27      1.0000 0.95120  0.10100  0.29990  Biso   1.000  H
  H28      1.0000 0.54880  0.60100  0.20010  Biso   1.000  H
  H29      1.0000 0.92110  0.99800  0.73750  Biso   1.000  H
  H30      1.0000 0.57890  0.49800  0.76250  Biso   1.000  H
  H31      1.0000 0.07890  0.00200  0.26250  Biso   1.000  H
  H32      1.0000 0.42110  0.50200  0.23750  Biso   1.000  H
