data_image0
_cell_length_a       9
_cell_length_b       9.14
_cell_length_c       12.421
_cell_angle_alpha    90
_cell_angle_beta     91.048
_cell_angle_gamma    90

_symmetry_space_group_name_H-M    "P 1"
_symmetry_int_tables_number       1

loop_
  _symmetry_equiv_pos_as_xyz
  'x, y, z'

loop_
  _atom_site_label
  _atom_site_occupancy
  _atom_site_fract_x
  _atom_site_fract_y
  _atom_site_fract_z
  _atom_site_thermal_displace_type
  _atom_site_B_iso_or_equiv
  _atom_site_type_symbol
  Cu1      1.0000 0.00000  0.50000  0.50000  Biso   1.000  Cu
  Cu2      1.0000 0.50000  0.00000  0.00000  Biso   1.000  Cu
  N1       1.0000 0.03350  0.29020  0.53890  Biso   1.000  N
  N2       1.0000 0.46650  0.79020  0.96110  Biso   1.000  N
  N3       1.0000 0.96650  0.70980  0.46110  Biso   1.000  N
  N4       1.0000 0.53350  0.20980  0.03890  Biso   1.000  N
  N5       1.0000 0.04980  0.09560  0.64040  Biso   1.000  N
  N6       1.0000 0.45020  0.59560  0.85960  Biso   1.000  N
  N7       1.0000 0.95020  0.90440  0.35960  Biso   1.000  N
  N8       1.0000 0.54980  0.40440  0.14040  Biso   1.000  N
  N9       1.0000 0.29580  0.04170  0.93890  Biso   1.000  N
  N10      1.0000 0.20420  0.54170  0.56110  Biso   1.000  N
  N11      1.0000 0.70420  0.95830  0.06110  Biso   1.000  N
  N12      1.0000 0.79580  0.45830  0.43890  Biso   1.000  N
  N13      1.0000 0.10750  0.03450  0.82430  Biso   1.000  N
  N14      1.0000 0.39250  0.53450  0.67570  Biso   1.000  N
  N15      1.0000 0.89250  0.96550  0.17570  Biso   1.000  N
  N16      1.0000 0.60750  0.46550  0.32430  Biso   1.000  N
  B1       1.0000 0.08270  0.42220  0.21600  Biso   1.000  B
  B2       1.0000 0.41730  0.92220  0.28400  Biso   1.000  B
  B3       1.0000 0.91730  0.57780  0.78400  Biso   1.000  B
  B4       1.0000 0.58270  0.07780  0.71600  Biso   1.000  B
  F1       1.0000 0.11660  0.46550  0.31920  Biso   1.000  F
  F2       1.0000 0.38340  0.96550  0.18080  Biso   1.000  F
  F3       1.0000 0.88340  0.53450  0.68080  Biso   1.000  F
  F4       1.0000 0.61660  0.03450  0.81920  Biso   1.000  F
  F5       1.0000 0.95990  0.34180  0.21070  Biso   1.000  F
  F6       1.0000 0.54010  0.84180  0.28930  Biso   1.000  F
  F7       1.0000 0.04010  0.65820  0.78930  Biso   1.000  F
  F8       1.0000 0.45990  0.15820  0.71070  Biso   1.000  F
  F9       1.0000 0.99690  0.54880  0.17630  Biso   1.000  F
  F10      1.0000 0.50310  0.04880  0.32370  Biso   1.000  F
  F11      1.0000 0.00310  0.45120  0.82370  Biso   1.000  F
  F12      1.0000 0.49690  0.95120  0.67630  Biso   1.000  F
  F13      1.0000 0.14360  0.50300  0.14820  Biso   1.000  F
  F14      1.0000 0.35640  0.00300  0.35180  Biso   1.000  F
  F15      1.0000 0.85640  0.49700  0.85180  Biso   1.000  F
  F16      1.0000 0.64360  0.99700  0.64820  Biso   1.000  F
  F17      1.0000 0.18860  0.40840  0.14840  Biso   1.000  F
  F18      1.0000 0.31140  0.90840  0.35160  Biso   1.000  F
  F19      1.0000 0.81140  0.59160  0.85160  Biso   1.000  F
  F20      1.0000 0.68860  0.09160  0.64840  Biso   1.000  F
  F21      1.0000 0.17170  0.28630  0.22200  Biso   1.000  F
  F22      1.0000 0.32830  0.78630  0.27800  Biso   1.000  F
  F23      1.0000 0.82830  0.71370  0.77800  Biso   1.000  F
  F24      1.0000 0.67170  0.21370  0.72200  Biso   1.000  F
  C1       1.0000 0.14100  0.19930  0.49880  Biso   1.000  C
  C2       1.0000 0.35900  0.69930  0.00120  Biso   1.000  C
  C3       1.0000 0.85900  0.80070  0.50120  Biso   1.000  C
  C4       1.0000 0.64100  0.30070  0.99880  Biso   1.000  C
  H1       1.0000 0.19730  0.21800  0.43830  Biso   1.000  H
  H2       1.0000 0.30270  0.71800  0.06170  Biso   1.000  H
  H3       1.0000 0.80270  0.78200  0.56170  Biso   1.000  H
  H4       1.0000 0.69730  0.28200  0.93830  Biso   1.000  H
  C5       1.0000 0.98120  0.22440  0.62380  Biso   1.000  C
  C6       1.0000 0.51880  0.72440  0.87620  Biso   1.000  C
  C7       1.0000 0.01880  0.77560  0.37620  Biso   1.000  C
  C8       1.0000 0.48120  0.27560  0.12380  Biso   1.000  C
  H5       1.0000 0.90660  0.26160  0.66670  Biso   1.000  H
  H6       1.0000 0.59340  0.76160  0.83330  Biso   1.000  H
  H7       1.0000 0.09340  0.73840  0.33330  Biso   1.000  H
  H8       1.0000 0.40660  0.23840  0.16670  Biso   1.000  H
  C9       1.0000 0.15210  0.07960  0.56080  Biso   1.000  C
  C10      1.0000 0.34790  0.57960  0.93920  Biso   1.000  C
  C11      1.0000 0.84790  0.92040  0.43920  Biso   1.000  C
  C12      1.0000 0.65210  0.42040  0.06080  Biso   1.000  C
  H9       1.0000 0.21640  0.00110  0.55160  Biso   1.000  H
  H10      1.0000 0.28360  0.50110  0.94840  Biso   1.000  H
  H11      1.0000 0.78360  0.99890  0.44840  Biso   1.000  H
  H12      1.0000 0.71640  0.49890  0.05160  Biso   1.000  H
  C13      1.0000 0.19290  0.14430  0.96770  Biso   1.000  C
  C14      1.0000 0.30710  0.64430  0.53230  Biso   1.000  C
  C15      1.0000 0.80710  0.85570  0.03230  Biso   1.000  C
  C16      1.0000 0.69290  0.35570  0.46770  Biso   1.000  C
  H13      1.0000 0.20160  0.20660  0.02660  Biso   1.000  H
  H14      1.0000 0.29840  0.70660  0.47340  Biso   1.000  H
  H15      1.0000 0.79840  0.79340  0.97340  Biso   1.000  H
  H16      1.0000 0.70160  0.29340  0.52660  Biso   1.000  H
  C17      1.0000 0.23950  0.97820  0.85230  Biso   1.000  C
  C18      1.0000 0.26050  0.47820  0.64770  Biso   1.000  C
  C19      1.0000 0.76050  0.02180  0.14770  Biso   1.000  C
  C20      1.0000 0.73950  0.52180  0.35230  Biso   1.000  C
  H17      1.0000 0.28600  0.90320  0.81510  Biso   1.000  H
  H18      1.0000 0.21400  0.40320  0.68490  Biso   1.000  H
  H19      1.0000 0.71400  0.09680  0.18490  Biso   1.000  H
  H20      1.0000 0.78600  0.59680  0.31510  Biso   1.000  H
  C21      1.0000 0.07770  0.14080  0.89750  Biso   1.000  C
  C22      1.0000 0.42230  0.64080  0.60250  Biso   1.000  C
  C23      1.0000 0.92230  0.85920  0.10250  Biso   1.000  C
  C24      1.0000 0.57770  0.35920  0.39750  Biso   1.000  C
  H21      1.0000 0.99360  0.19980  0.89880  Biso   1.000  H
  H22      1.0000 0.50640  0.69980  0.60120  Biso   1.000  H
  H23      1.0000 0.00640  0.80020  0.10120  Biso   1.000  H
  H24      1.0000 0.49360  0.30020  0.39880  Biso   1.000  H
  C25      1.0000 0.02040  0.99620  0.72820  Biso   1.000  C
  C26      1.0000 0.47960  0.49620  0.77180  Biso   1.000  C
  C27      1.0000 0.97960  0.00380  0.27180  Biso   1.000  C
  C28      1.0000 0.52040  0.50380  0.22820  Biso   1.000  C
  H25      1.0000 0.04450  0.89720  0.70650  Biso   1.000  H
  H26      1.0000 0.45550  0.39720  0.79350  Biso   1.000  H
  H27      1.0000 0.95550  0.10280  0.29350  Biso   1.000  H
  H28      1.0000 0.54450  0.60280  0.20650  Biso   1.000  H
  H29      1.0000 0.91550  0.99930  0.74460  Biso   1.000  H
  H30      1.0000 0.58450  0.49930  0.75540  Biso   1.000  H
  H31      1.0000 0.08450  0.00070  0.25540  Biso   1.000  H
  H32      1.0000 0.41550  0.50070  0.24460  Biso   1.000  H
