data_image0
_cell_length_a       17.8369
_cell_length_b       17.8369
_cell_length_c       17.01
_cell_angle_alpha    90
_cell_angle_beta     90
_cell_angle_gamma    90

_symmetry_space_group_name_H-M    "P 1"
_symmetry_int_tables_number       1

loop_
  _symmetry_equiv_pos_as_xyz
  'x, y, z'

loop_
  _atom_site_label
  _atom_site_occupancy
  _atom_site_fract_x
  _atom_site_fract_y
  _atom_site_fract_z
  _atom_site_thermal_displace_type
  _atom_site_B_iso_or_equiv
  _atom_site_type_symbol
  Cu1      1.0000 0.30765  0.50127  0.06639  Biso   1.000  Cu
  Cu2      1.0000 0.69235  0.49873  0.06639  Biso   1.000  Cu
  Cu3      1.0000 0.50127  0.69235  0.93361  Biso   1.000  Cu
  Cu4      1.0000 0.49873  0.30765  0.93361  Biso   1.000  Cu
  Cu5      1.0000 0.80765  0.00127  0.56639  Biso   1.000  Cu
  Cu6      1.0000 0.19235  0.99873  0.56639  Biso   1.000  Cu
  Cu7      1.0000 0.00127  0.19235  0.43361  Biso   1.000  Cu
  Cu8      1.0000 0.99873  0.80765  0.43361  Biso   1.000  Cu
  Cu9      1.0000 0.20863  0.49496  0.17867  Biso   1.000  Cu
  Cu10     1.0000 0.79137  0.50504  0.17867  Biso   1.000  Cu
  Cu11     1.0000 0.49496  0.79137  0.82133  Biso   1.000  Cu
  Cu12     1.0000 0.50504  0.20863  0.82133  Biso   1.000  Cu
  Cu13     1.0000 0.70863  0.99496  0.67867  Biso   1.000  Cu
  Cu14     1.0000 0.29137  0.00504  0.67867  Biso   1.000  Cu
  Cu15     1.0000 0.99496  0.29137  0.32133  Biso   1.000  Cu
  Cu16     1.0000 0.00504  0.70863  0.32133  Biso   1.000  Cu
  O1       1.0000 0.26580  0.60260  0.06040  Biso   1.000  O
  O2       1.0000 0.73420  0.39740  0.06040  Biso   1.000  O
  O3       1.0000 0.60260  0.73420  0.93960  Biso   1.000  O
  O4       1.0000 0.39740  0.26580  0.93960  Biso   1.000  O
  O5       1.0000 0.76580  0.10260  0.56040  Biso   1.000  O
  O6       1.0000 0.23420  0.89740  0.56040  Biso   1.000  O
  O7       1.0000 0.10260  0.23420  0.43960  Biso   1.000  O
  O8       1.0000 0.89740  0.76580  0.43960  Biso   1.000  O
  O9       1.0000 0.18250  0.59960  0.15850  Biso   1.000  O
  O10      1.0000 0.81750  0.40040  0.15850  Biso   1.000  O
  O11      1.0000 0.59960  0.81750  0.84150  Biso   1.000  O
  O12      1.0000 0.40040  0.18250  0.84150  Biso   1.000  O
  O13      1.0000 0.68250  0.09960  0.65850  Biso   1.000  O
  O14      1.0000 0.31750  0.90040  0.65850  Biso   1.000  O
  O15      1.0000 0.09960  0.31750  0.34150  Biso   1.000  O
  O16      1.0000 0.90040  0.68250  0.34150  Biso   1.000  O
  O17      1.0000 0.16770  0.94200  0.06130  Biso   1.000  O
  O18      1.0000 0.83230  0.05800  0.06130  Biso   1.000  O
  O19      1.0000 0.94200  0.83230  0.93870  Biso   1.000  O
  O20      1.0000 0.05800  0.16770  0.93870  Biso   1.000  O
  O21      1.0000 0.66770  0.44200  0.56130  Biso   1.000  O
  O22      1.0000 0.33230  0.55800  0.56130  Biso   1.000  O
  O23      1.0000 0.44200  0.33230  0.43870  Biso   1.000  O
  O24      1.0000 0.55800  0.66770  0.43870  Biso   1.000  O
  O25      1.0000 0.02660  0.20360  0.25950  Biso   1.000  O
  O26      1.0000 0.97340  0.79640  0.25950  Biso   1.000  O
  O27      1.0000 0.20360  0.97340  0.74050  Biso   1.000  O
  O28      1.0000 0.79640  0.02660  0.74050  Biso   1.000  O
  O29      1.0000 0.52660  0.70360  0.75950  Biso   1.000  O
  O30      1.0000 0.47340  0.29640  0.75950  Biso   1.000  O
  O31      1.0000 0.70360  0.47340  0.24050  Biso   1.000  O
  O32      1.0000 0.29640  0.52660  0.24050  Biso   1.000  O
  O33      1.0000 0.03870  0.11980  0.35620  Biso   1.000  O
  O34      1.0000 0.96130  0.88020  0.35620  Biso   1.000  O
  O35      1.0000 0.11980  0.96130  0.64380  Biso   1.000  O
  O36      1.0000 0.88020  0.03870  0.64380  Biso   1.000  O
  O37      1.0000 0.53870  0.61980  0.85620  Biso   1.000  O
  O38      1.0000 0.46130  0.38020  0.85620  Biso   1.000  O
  O39      1.0000 0.61980  0.46130  0.14380  Biso   1.000  O
  O40      1.0000 0.38020  0.53870  0.14380  Biso   1.000  O
  O41      1.0000 0.24200  0.39170  0.18180  Biso   1.000  O
  O42      1.0000 0.75800  0.60830  0.18180  Biso   1.000  O
  O43      1.0000 0.39170  0.75800  0.81820  Biso   1.000  O
  O44      1.0000 0.60830  0.24200  0.81820  Biso   1.000  O
  O45      1.0000 0.74200  0.89170  0.68180  Biso   1.000  O
  O46      1.0000 0.25800  0.10830  0.68180  Biso   1.000  O
  O47      1.0000 0.89170  0.25800  0.31820  Biso   1.000  O
  O48      1.0000 0.10830  0.74200  0.31820  Biso   1.000  O
  O49      1.0000 0.33640  0.39770  0.09550  Biso   1.000  O
  O50      1.0000 0.66360  0.60230  0.09550  Biso   1.000  O
  O51      1.0000 0.39770  0.66360  0.90450  Biso   1.000  O
  O52      1.0000 0.60230  0.33640  0.90450  Biso   1.000  O
  O53      1.0000 0.83640  0.89770  0.59550  Biso   1.000  O
  O54      1.0000 0.16360  0.10230  0.59550  Biso   1.000  O
  O55      1.0000 0.89770  0.16360  0.40450  Biso   1.000  O
  O56      1.0000 0.10230  0.83640  0.40450  Biso   1.000  O
  O57      1.0000 0.32870  0.05100  0.18540  Biso   1.000  O
  O58      1.0000 0.67130  0.94900  0.18540  Biso   1.000  O
  O59      1.0000 0.05100  0.67130  0.81460  Biso   1.000  O
  O60      1.0000 0.94900  0.32870  0.81460  Biso   1.000  O
  O61      1.0000 0.82870  0.55100  0.68540  Biso   1.000  O
  O62      1.0000 0.17130  0.44900  0.68540  Biso   1.000  O
  O63      1.0000 0.55100  0.17130  0.31460  Biso   1.000  O
  O64      1.0000 0.44900  0.82870  0.31460  Biso   1.000  O
  O65      1.0000 0.46630  0.86150  0.90590  Biso   1.000  O
  O66      1.0000 0.53370  0.13850  0.90590  Biso   1.000  O
  O67      1.0000 0.86150  0.53370  0.09410  Biso   1.000  O
  O68      1.0000 0.13850  0.46630  0.09410  Biso   1.000  O
  O69      1.0000 0.96630  0.36150  0.40590  Biso   1.000  O
  O70      1.0000 0.03370  0.63850  0.40590  Biso   1.000  O
  O71      1.0000 0.36150  0.03370  0.59410  Biso   1.000  O
  O72      1.0000 0.63850  0.96630  0.59410  Biso   1.000  O
  O73      1.0000 0.46250  0.77470  0.00000  Biso   1.000  O
  O74      1.0000 0.53750  0.22530  0.00000  Biso   1.000  O
  O75      1.0000 0.77470  0.53750  0.00000  Biso   1.000  O
  O76      1.0000 0.22530  0.46250  0.00000  Biso   1.000  O
  O77      1.0000 0.96250  0.27470  0.50000  Biso   1.000  O
  O78      1.0000 0.03750  0.72530  0.50000  Biso   1.000  O
  O79      1.0000 0.27470  0.03750  0.50000  Biso   1.000  O
  O80      1.0000 0.72530  0.96250  0.50000  Biso   1.000  O
  O81      1.0000 0.38650  0.51330  0.96800  Biso   1.000  O
  O82      1.0000 0.61350  0.48670  0.96800  Biso   1.000  O
  O83      1.0000 0.51330  0.61350  0.03200  Biso   1.000  O
  O84      1.0000 0.48670  0.38650  0.03200  Biso   1.000  O
  O85      1.0000 0.88650  0.01330  0.46800  Biso   1.000  O
  O86      1.0000 0.11350  0.98670  0.46800  Biso   1.000  O
  O87      1.0000 0.01330  0.11350  0.53200  Biso   1.000  O
  O88      1.0000 0.98670  0.88650  0.53200  Biso   1.000  O
  O89      1.0000 0.12810  0.46610  0.26940  Biso   1.000  O
  O90      1.0000 0.87190  0.53390  0.26940  Biso   1.000  O
  O91      1.0000 0.46610  0.87190  0.73060  Biso   1.000  O
  O92      1.0000 0.53390  0.12810  0.73060  Biso   1.000  O
  O93      1.0000 0.62810  0.96610  0.76940  Biso   1.000  O
  O94      1.0000 0.37190  0.03390  0.76940  Biso   1.000  O
  O95      1.0000 0.96610  0.37190  0.23060  Biso   1.000  O
  O96      1.0000 0.03390  0.62810  0.23060  Biso   1.000  O
  C1       1.0000 0.21710  0.63310  0.10290  Biso   1.000  C
  C2       1.0000 0.78290  0.36690  0.10290  Biso   1.000  C
  C3       1.0000 0.63310  0.78290  0.89710  Biso   1.000  C
  C4       1.0000 0.36690  0.21710  0.89710  Biso   1.000  C
  C5       1.0000 0.71710  0.13310  0.60290  Biso   1.000  C
  C6       1.0000 0.28290  0.86690  0.60290  Biso   1.000  C
  C7       1.0000 0.13310  0.28290  0.39710  Biso   1.000  C
  C8       1.0000 0.86690  0.71710  0.39710  Biso   1.000  C
  C9       1.0000 0.20040  0.71320  0.09030  Biso   1.000  C
  C10      1.0000 0.79960  0.28680  0.09030  Biso   1.000  C
  C11      1.0000 0.71320  0.79960  0.90970  Biso   1.000  C
  C12      1.0000 0.28680  0.20040  0.90970  Biso   1.000  C
  C13      1.0000 0.70040  0.21320  0.59030  Biso   1.000  C
  C14      1.0000 0.29960  0.78680  0.59030  Biso   1.000  C
  C15      1.0000 0.21320  0.29960  0.40970  Biso   1.000  C
  C16      1.0000 0.78680  0.70040  0.40970  Biso   1.000  C
  C17      1.0000 0.25040  0.75750  0.04770  Biso   1.000  C
  C18      1.0000 0.74960  0.24250  0.04770  Biso   1.000  C
  C19      1.0000 0.75750  0.74960  0.95230  Biso   1.000  C
  C20      1.0000 0.24250  0.25040  0.95230  Biso   1.000  C
  C21      1.0000 0.75040  0.25750  0.54770  Biso   1.000  C
  C22      1.0000 0.24960  0.74250  0.54770  Biso   1.000  C
  C23      1.0000 0.25750  0.24960  0.45230  Biso   1.000  C
  C24      1.0000 0.74250  0.75040  0.45230  Biso   1.000  C
  H1       1.0000 0.29280  0.73590  0.02530  Biso   1.000  H
  H2       1.0000 0.70720  0.26410  0.02530  Biso   1.000  H
  H3       1.0000 0.73590  0.70720  0.97470  Biso   1.000  H
  H4       1.0000 0.26410  0.29280  0.97470  Biso   1.000  H
  H5       1.0000 0.79280  0.23590  0.52530  Biso   1.000  H
  H6       1.0000 0.20720  0.76410  0.52530  Biso   1.000  H
  H7       1.0000 0.23590  0.20720  0.47470  Biso   1.000  H
  H8       1.0000 0.76410  0.79280  0.47470  Biso   1.000  H
  C25      1.0000 0.23730  0.83380  0.03870  Biso   1.000  C
  C26      1.0000 0.76270  0.16620  0.03870  Biso   1.000  C
  C27      1.0000 0.83380  0.76270  0.96130  Biso   1.000  C
  C28      1.0000 0.16620  0.23730  0.96130  Biso   1.000  C
  C29      1.0000 0.73730  0.33380  0.53870  Biso   1.000  C
  C30      1.0000 0.26270  0.66620  0.53870  Biso   1.000  C
  C31      1.0000 0.33380  0.26270  0.46130  Biso   1.000  C
  C32      1.0000 0.66620  0.73730  0.46130  Biso   1.000  C
  H9       1.0000 0.26990  0.86290  0.00890  Biso   1.000  H
  H10      1.0000 0.73010  0.13710  0.00890  Biso   1.000  H
  H11      1.0000 0.86290  0.73010  0.99110  Biso   1.000  H
  H12      1.0000 0.13710  0.26990  0.99110  Biso   1.000  H
  H13      1.0000 0.76990  0.36290  0.50890  Biso   1.000  H
  H14      1.0000 0.23010  0.63710  0.50890  Biso   1.000  H
  H15      1.0000 0.36290  0.23010  0.49110  Biso   1.000  H
  H16      1.0000 0.63710  0.76990  0.49110  Biso   1.000  H
  C33      1.0000 0.17710  0.86540  0.07340  Biso   1.000  C
  C34      1.0000 0.82290  0.13460  0.07340  Biso   1.000  C
  C35      1.0000 0.86540  0.82290  0.92660  Biso   1.000  C
  C36      1.0000 0.13460  0.17710  0.92660  Biso   1.000  C
  C37      1.0000 0.67710  0.36540  0.57340  Biso   1.000  C
  C38      1.0000 0.32290  0.63460  0.57340  Biso   1.000  C
  C39      1.0000 0.36540  0.32290  0.42660  Biso   1.000  C
  C40      1.0000 0.63460  0.67710  0.42660  Biso   1.000  C
  C41      1.0000 0.12600  0.82260  0.11350  Biso   1.000  C
  C42      1.0000 0.87400  0.17740  0.11350  Biso   1.000  C
  C43      1.0000 0.82260  0.87400  0.88650  Biso   1.000  C
  C44      1.0000 0.17740  0.12600  0.88650  Biso   1.000  C
  C45      1.0000 0.62600  0.32260  0.61350  Biso   1.000  C
  C46      1.0000 0.37400  0.67740  0.61350  Biso   1.000  C
  C47      1.0000 0.32260  0.37400  0.38650  Biso   1.000  C
  C48      1.0000 0.67740  0.62600  0.38650  Biso   1.000  C
  H17      1.0000 0.08360  0.84480  0.13520  Biso   1.000  H
  H18      1.0000 0.91640  0.15520  0.13520  Biso   1.000  H
  H19      1.0000 0.84480  0.91640  0.86480  Biso   1.000  H
  H20      1.0000 0.15520  0.08360  0.86480  Biso   1.000  H
  H21      1.0000 0.58360  0.34480  0.63520  Biso   1.000  H
  H22      1.0000 0.41640  0.65520  0.63520  Biso   1.000  H
  H23      1.0000 0.34480  0.41640  0.36480  Biso   1.000  H
  H24      1.0000 0.65520  0.58360  0.36480  Biso   1.000  H
  C49      1.0000 0.13760  0.74670  0.12140  Biso   1.000  C
  C50      1.0000 0.86240  0.25330  0.12140  Biso   1.000  C
  C51      1.0000 0.74670  0.86240  0.87860  Biso   1.000  C
  C52      1.0000 0.25330  0.13760  0.87860  Biso   1.000  C
  C53      1.0000 0.63760  0.24670  0.62140  Biso   1.000  C
  C54      1.0000 0.36240  0.75330  0.62140  Biso   1.000  C
  C55      1.0000 0.24670  0.36240  0.37860  Biso   1.000  C
  C56      1.0000 0.75330  0.63760  0.37860  Biso   1.000  C
  H25      1.0000 0.10260  0.71780  0.14820  Biso   1.000  H
  H26      1.0000 0.89740  0.28220  0.14820  Biso   1.000  H
  H27      1.0000 0.71780  0.89740  0.85180  Biso   1.000  H
  H28      1.0000 0.28220  0.10260  0.85180  Biso   1.000  H
  H29      1.0000 0.60260  0.21780  0.64820  Biso   1.000  H
  H30      1.0000 0.39740  0.78220  0.64820  Biso   1.000  H
  H31      1.0000 0.21780  0.39740  0.35180  Biso   1.000  H
  H32      1.0000 0.78220  0.60260  0.35180  Biso   1.000  H
  C57      1.0000 0.13670  0.98690  0.11980  Biso   1.000  C
  C58      1.0000 0.86330  0.01310  0.11980  Biso   1.000  C
  C59      1.0000 0.98690  0.86330  0.88020  Biso   1.000  C
  C60      1.0000 0.01310  0.13670  0.88020  Biso   1.000  C
  C61      1.0000 0.63670  0.48690  0.61980  Biso   1.000  C
  C62      1.0000 0.36330  0.51310  0.61980  Biso   1.000  C
  C63      1.0000 0.48690  0.36330  0.38020  Biso   1.000  C
  C64      1.0000 0.51310  0.63670  0.38020  Biso   1.000  C
  C65      1.0000 0.10300  0.05150  0.09340  Biso   1.000  C
  C66      1.0000 0.89700  0.94850  0.09340  Biso   1.000  C
  C67      1.0000 0.05150  0.89700  0.90660  Biso   1.000  C
  C68      1.0000 0.94850  0.10300  0.90660  Biso   1.000  C
  C69      1.0000 0.60300  0.55150  0.59340  Biso   1.000  C
  C70      1.0000 0.39700  0.44850  0.59340  Biso   1.000  C
  C71      1.0000 0.55150  0.39700  0.40660  Biso   1.000  C
  C72      1.0000 0.44850  0.60300  0.40660  Biso   1.000  C
  H33      1.0000 0.09930  0.06110  0.03980  Biso   1.000  H
  H34      1.0000 0.90070  0.93890  0.03980  Biso   1.000  H
  H35      1.0000 0.06110  0.90070  0.96020  Biso   1.000  H
  H36      1.0000 0.93890  0.09930  0.96020  Biso   1.000  H
  H37      1.0000 0.59930  0.56110  0.53980  Biso   1.000  H
  H38      1.0000 0.40070  0.43890  0.53980  Biso   1.000  H
  H39      1.0000 0.56110  0.40070  0.46020  Biso   1.000  H
  H40      1.0000 0.43890  0.59930  0.46020  Biso   1.000  H
  C73      1.0000 0.07470  0.10170  0.14700  Biso   1.000  C
  C74      1.0000 0.92530  0.89830  0.14700  Biso   1.000  C
  C75      1.0000 0.10170  0.92530  0.85300  Biso   1.000  C
  C76      1.0000 0.89830  0.07470  0.85300  Biso   1.000  C
  C77      1.0000 0.57470  0.60170  0.64700  Biso   1.000  C
  C78      1.0000 0.42530  0.39830  0.64700  Biso   1.000  C
  C79      1.0000 0.60170  0.42530  0.35300  Biso   1.000  C
  C80      1.0000 0.39830  0.57470  0.35300  Biso   1.000  C
  H41      1.0000 0.05460  0.14680  0.12930  Biso   1.000  H
  H42      1.0000 0.94540  0.85320  0.12930  Biso   1.000  H
  H43      1.0000 0.14680  0.94540  0.87070  Biso   1.000  H
  H44      1.0000 0.85320  0.05460  0.87070  Biso   1.000  H
  H45      1.0000 0.55460  0.64680  0.62930  Biso   1.000  H
  H46      1.0000 0.44540  0.35320  0.62930  Biso   1.000  H
  H47      1.0000 0.64680  0.44540  0.37070  Biso   1.000  H
  H48      1.0000 0.35320  0.55460  0.37070  Biso   1.000  H
  C81      1.0000 0.07570  0.08640  0.22740  Biso   1.000  C
  C82      1.0000 0.92430  0.91360  0.22740  Biso   1.000  C
  C83      1.0000 0.08640  0.92430  0.77260  Biso   1.000  C
  C84      1.0000 0.91360  0.07570  0.77260  Biso   1.000  C
  C85      1.0000 0.57570  0.58640  0.72740  Biso   1.000  C
  C86      1.0000 0.42430  0.41360  0.72740  Biso   1.000  C
  C87      1.0000 0.58640  0.42430  0.27260  Biso   1.000  C
  C88      1.0000 0.41360  0.57570  0.27260  Biso   1.000  C
  C89      1.0000 0.11080  0.02100  0.25120  Biso   1.000  C
  C90      1.0000 0.88920  0.97900  0.25120  Biso   1.000  C
  C91      1.0000 0.02100  0.88920  0.74880  Biso   1.000  C
  C92      1.0000 0.97900  0.11080  0.74880  Biso   1.000  C
  C93      1.0000 0.61080  0.52100  0.75120  Biso   1.000  C
  C94      1.0000 0.38920  0.47900  0.75120  Biso   1.000  C
  C95      1.0000 0.52100  0.38920  0.24880  Biso   1.000  C
  C96      1.0000 0.47900  0.61080  0.24880  Biso   1.000  C
  H49      1.0000 0.11280  0.00980  0.30460  Biso   1.000  H
  H50      1.0000 0.88720  0.99020  0.30460  Biso   1.000  H
  H51      1.0000 0.00980  0.88720  0.69540  Biso   1.000  H
  H52      1.0000 0.99020  0.11280  0.69540  Biso   1.000  H
  H53      1.0000 0.61280  0.50980  0.80460  Biso   1.000  H
  H54      1.0000 0.38720  0.49020  0.80460  Biso   1.000  H
  H55      1.0000 0.50980  0.38720  0.19540  Biso   1.000  H
  H56      1.0000 0.49020  0.61280  0.19540  Biso   1.000  H
  C97      1.0000 0.14260  0.97220  0.19890  Biso   1.000  C
  C98      1.0000 0.85740  0.02780  0.19890  Biso   1.000  C
  C99      1.0000 0.97220  0.85740  0.80110  Biso   1.000  C
  C100     1.0000 0.02780  0.14260  0.80110  Biso   1.000  C
  C101     1.0000 0.64260  0.47220  0.69890  Biso   1.000  C
  C102     1.0000 0.35740  0.52780  0.69890  Biso   1.000  C
  C103     1.0000 0.47220  0.35740  0.30110  Biso   1.000  C
  C104     1.0000 0.52780  0.64260  0.30110  Biso   1.000  C
  H57      1.0000 0.16780  0.92980  0.21660  Biso   1.000  H
  H58      1.0000 0.83220  0.07020  0.21660  Biso   1.000  H
  H59      1.0000 0.92980  0.83220  0.78340  Biso   1.000  H
  H60      1.0000 0.07020  0.16780  0.78340  Biso   1.000  H
  H61      1.0000 0.66780  0.42980  0.71660  Biso   1.000  H
  H62      1.0000 0.33220  0.57020  0.71660  Biso   1.000  H
  H63      1.0000 0.42980  0.33220  0.28340  Biso   1.000  H
  H64      1.0000 0.57020  0.66780  0.28340  Biso   1.000  H
  C105     1.0000 0.04440  0.14070  0.28520  Biso   1.000  C
  C106     1.0000 0.95560  0.85930  0.28520  Biso   1.000  C
  C107     1.0000 0.14070  0.95560  0.71480  Biso   1.000  C
  C108     1.0000 0.85930  0.04440  0.71480  Biso   1.000  C
  C109     1.0000 0.54440  0.64070  0.78520  Biso   1.000  C
  C110     1.0000 0.45560  0.35930  0.78520  Biso   1.000  C
  C111     1.0000 0.64070  0.45560  0.21480  Biso   1.000  C
  C112     1.0000 0.35930  0.54440  0.21480  Biso   1.000  C
  C113     1.0000 0.29500  0.36240  0.14380  Biso   1.000  C
  C114     1.0000 0.70500  0.63760  0.14380  Biso   1.000  C
  C115     1.0000 0.36240  0.70500  0.85620  Biso   1.000  C
  C116     1.0000 0.63760  0.29500  0.85620  Biso   1.000  C
  C117     1.0000 0.79500  0.86240  0.64380  Biso   1.000  C
  C118     1.0000 0.20500  0.13760  0.64380  Biso   1.000  C
  C119     1.0000 0.86240  0.20500  0.35620  Biso   1.000  C
  C120     1.0000 0.13760  0.79500  0.35620  Biso   1.000  C
  C121     1.0000 0.30800  0.27980  0.15630  Biso   1.000  C
  C122     1.0000 0.69200  0.72020  0.15630  Biso   1.000  C
  C123     1.0000 0.27980  0.69200  0.84370  Biso   1.000  C
  C124     1.0000 0.72020  0.30800  0.84370  Biso   1.000  C
  C125     1.0000 0.80800  0.77980  0.65630  Biso   1.000  C
  C126     1.0000 0.19200  0.22020  0.65630  Biso   1.000  C
  C127     1.0000 0.77980  0.19200  0.34370  Biso   1.000  C
  C128     1.0000 0.22020  0.80800  0.34370  Biso   1.000  C
  C129     1.0000 0.25640  0.23970  0.19930  Biso   1.000  C
  C130     1.0000 0.74360  0.76030  0.19930  Biso   1.000  C
  C131     1.0000 0.23970  0.74360  0.80070  Biso   1.000  C
  C132     1.0000 0.76030  0.25640  0.80070  Biso   1.000  C
  C133     1.0000 0.75640  0.73970  0.69930  Biso   1.000  C
  C134     1.0000 0.24360  0.26030  0.69930  Biso   1.000  C
  C135     1.0000 0.73970  0.24360  0.30070  Biso   1.000  C
  C136     1.0000 0.26030  0.75640  0.30070  Biso   1.000  C
  H65      1.0000 0.21700  0.26460  0.22370  Biso   1.000  H
  H66      1.0000 0.78300  0.73540  0.22370  Biso   1.000  H
  H67      1.0000 0.26460  0.78300  0.77630  Biso   1.000  H
  H68      1.0000 0.73540  0.21700  0.77630  Biso   1.000  H
  H69      1.0000 0.71700  0.76460  0.72370  Biso   1.000  H
  H70      1.0000 0.28300  0.23540  0.72370  Biso   1.000  H
  H71      1.0000 0.76460  0.28300  0.27630  Biso   1.000  H
  H72      1.0000 0.23540  0.71700  0.27630  Biso   1.000  H
  C137     1.0000 0.26280  0.16300  0.20660  Biso   1.000  C
  C138     1.0000 0.73720  0.83700  0.20660  Biso   1.000  C
  C139     1.0000 0.16300  0.73720  0.79340  Biso   1.000  C
  C140     1.0000 0.83700  0.26280  0.79340  Biso   1.000  C
  C141     1.0000 0.76280  0.66300  0.70660  Biso   1.000  C
  C142     1.0000 0.23720  0.33700  0.70660  Biso   1.000  C
  C143     1.0000 0.66300  0.23720  0.29340  Biso   1.000  C
  C144     1.0000 0.33700  0.76280  0.29340  Biso   1.000  C
  H73      1.0000 0.22710  0.13560  0.23410  Biso   1.000  H
  H74      1.0000 0.77290  0.86440  0.23410  Biso   1.000  H
  H75      1.0000 0.13560  0.77290  0.76590  Biso   1.000  H
  H76      1.0000 0.86440  0.22710  0.76590  Biso   1.000  H
  H77      1.0000 0.72710  0.63560  0.73410  Biso   1.000  H
  H78      1.0000 0.27290  0.36440  0.73410  Biso   1.000  H
  H79      1.0000 0.63560  0.27290  0.26590  Biso   1.000  H
  H80      1.0000 0.36440  0.72710  0.26590  Biso   1.000  H
  C145     1.0000 0.32400  0.12740  0.17180  Biso   1.000  C
  C146     1.0000 0.67600  0.87260  0.17180  Biso   1.000  C
  C147     1.0000 0.12740  0.67600  0.82820  Biso   1.000  C
  C148     1.0000 0.87260  0.32400  0.82820  Biso   1.000  C
  C149     1.0000 0.82400  0.62740  0.67180  Biso   1.000  C
  C150     1.0000 0.17600  0.37260  0.67180  Biso   1.000  C
  C151     1.0000 0.62740  0.17600  0.32820  Biso   1.000  C
  C152     1.0000 0.37260  0.82400  0.32820  Biso   1.000  C
  C153     1.0000 0.37710  0.16750  0.13200  Biso   1.000  C
  C154     1.0000 0.62290  0.83250  0.13200  Biso   1.000  C
  C155     1.0000 0.16750  0.62290  0.86800  Biso   1.000  C
  C156     1.0000 0.83250  0.37710  0.86800  Biso   1.000  C
  C157     1.0000 0.87710  0.66750  0.63200  Biso   1.000  C
  C158     1.0000 0.12290  0.33250  0.63200  Biso   1.000  C
  C159     1.0000 0.66750  0.12290  0.36800  Biso   1.000  C
  C160     1.0000 0.33250  0.87710  0.36800  Biso   1.000  C
  H81      1.0000 0.41840  0.14330  0.11030  Biso   1.000  H
  H82      1.0000 0.58160  0.85670  0.11030  Biso   1.000  H
  H83      1.0000 0.14330  0.58160  0.88970  Biso   1.000  H
  H84      1.0000 0.85670  0.41840  0.88970  Biso   1.000  H
  H85      1.0000 0.91840  0.64330  0.61030  Biso   1.000  H
  H86      1.0000 0.08160  0.35670  0.61030  Biso   1.000  H
  H87      1.0000 0.64330  0.08160  0.38970  Biso   1.000  H
  H88      1.0000 0.35670  0.91840  0.38970  Biso   1.000  H
  C161     1.0000 0.36900  0.24470  0.12420  Biso   1.000  C
  C162     1.0000 0.63100  0.75530  0.12420  Biso   1.000  C
  C163     1.0000 0.24470  0.63100  0.87580  Biso   1.000  C
  C164     1.0000 0.75530  0.36900  0.87580  Biso   1.000  C
  C165     1.0000 0.86900  0.74470  0.62420  Biso   1.000  C
  C166     1.0000 0.13100  0.25530  0.62420  Biso   1.000  C
  C167     1.0000 0.74470  0.13100  0.37580  Biso   1.000  C
  C168     1.0000 0.25530  0.86900  0.37580  Biso   1.000  C
  H89      1.0000 0.40500  0.27240  0.09730  Biso   1.000  H
  H90      1.0000 0.59500  0.72760  0.09730  Biso   1.000  H
  H91      1.0000 0.27240  0.59500  0.90270  Biso   1.000  H
  H92      1.0000 0.72760  0.40500  0.90270  Biso   1.000  H
  H93      1.0000 0.90500  0.77240  0.59730  Biso   1.000  H
  H94      1.0000 0.09500  0.22760  0.59730  Biso   1.000  H
  H95      1.0000 0.77240  0.09500  0.40270  Biso   1.000  H
  H96      1.0000 0.22760  0.90500  0.40270  Biso   1.000  H
  C169     1.0000 0.36130  0.00360  0.13010  Biso   1.000  C
  C170     1.0000 0.63870  0.99640  0.13010  Biso   1.000  C
  C171     1.0000 0.00360  0.63870  0.86990  Biso   1.000  C
  C172     1.0000 0.99640  0.36130  0.86990  Biso   1.000  C
  C173     1.0000 0.86130  0.50360  0.63010  Biso   1.000  C
  C174     1.0000 0.13870  0.49640  0.63010  Biso   1.000  C
  C175     1.0000 0.50360  0.13870  0.36990  Biso   1.000  C
  C176     1.0000 0.49640  0.86130  0.36990  Biso   1.000  C
  C177     1.0000 0.35730  0.01450  0.05020  Biso   1.000  C
  C178     1.0000 0.64270  0.98550  0.05020  Biso   1.000  C
  C179     1.0000 0.01450  0.64270  0.94980  Biso   1.000  C
  C180     1.0000 0.98550  0.35730  0.94980  Biso   1.000  C
  C181     1.0000 0.85730  0.51450  0.55020  Biso   1.000  C
  C182     1.0000 0.14270  0.48550  0.55020  Biso   1.000  C
  C183     1.0000 0.51450  0.14270  0.44980  Biso   1.000  C
  C184     1.0000 0.48550  0.85730  0.44980  Biso   1.000  C
  H97      1.0000 0.33350  0.05660  0.02980  Biso   1.000  H
  H98      1.0000 0.66650  0.94340  0.02980  Biso   1.000  H
  H99      1.0000 0.05660  0.66650  0.97020  Biso   1.000  H
  H100     1.0000 0.94340  0.33350  0.97020  Biso   1.000  H
  H101     1.0000 0.83350  0.55660  0.52980  Biso   1.000  H
  H102     1.0000 0.16650  0.44340  0.52980  Biso   1.000  H
  H103     1.0000 0.55660  0.16650  0.47020  Biso   1.000  H
  H104     1.0000 0.44340  0.83350  0.47020  Biso   1.000  H
  C185     1.0000 0.38870  0.96260  0.00120  Biso   1.000  C
  C186     1.0000 0.61130  0.03740  0.00120  Biso   1.000  C
  C187     1.0000 0.96260  0.61130  0.99880  Biso   1.000  C
  C188     1.0000 0.03740  0.38870  0.99880  Biso   1.000  C
  C189     1.0000 0.88870  0.46260  0.50120  Biso   1.000  C
  C190     1.0000 0.11130  0.53740  0.50120  Biso   1.000  C
  C191     1.0000 0.46260  0.11130  0.49880  Biso   1.000  C
  C192     1.0000 0.53740  0.88870  0.49880  Biso   1.000  C
  H105     1.0000 0.38810  0.97090  0.94730  Biso   1.000  H
  H106     1.0000 0.61190  0.02910  0.94730  Biso   1.000  H
  H107     1.0000 0.97090  0.61190  0.05270  Biso   1.000  H
  H108     1.0000 0.02910  0.38810  0.05270  Biso   1.000  H
  H109     1.0000 0.88810  0.47090  0.44730  Biso   1.000  H
  H110     1.0000 0.11190  0.52910  0.44730  Biso   1.000  H
  H111     1.0000 0.47090  0.11190  0.55270  Biso   1.000  H
  H112     1.0000 0.52910  0.88810  0.55270  Biso   1.000  H
  C193     1.0000 0.42190  0.89740  0.03050  Biso   1.000  C
  C194     1.0000 0.57810  0.10260  0.03050  Biso   1.000  C
  C195     1.0000 0.89740  0.57810  0.96950  Biso   1.000  C
  C196     1.0000 0.10260  0.42190  0.96950  Biso   1.000  C
  C197     1.0000 0.92190  0.39740  0.53050  Biso   1.000  C
  C198     1.0000 0.07810  0.60260  0.53050  Biso   1.000  C
  C199     1.0000 0.39740  0.07810  0.46950  Biso   1.000  C
  C200     1.0000 0.60260  0.92190  0.46950  Biso   1.000  C
  C201     1.0000 0.42200  0.88580  0.11080  Biso   1.000  C
  C202     1.0000 0.57800  0.11420  0.11080  Biso   1.000  C
  C203     1.0000 0.88580  0.57800  0.88920  Biso   1.000  C
  C204     1.0000 0.11420  0.42200  0.88920  Biso   1.000  C
  C205     1.0000 0.92200  0.38580  0.61080  Biso   1.000  C
  C206     1.0000 0.07800  0.61420  0.61080  Biso   1.000  C
  C207     1.0000 0.38580  0.07800  0.38920  Biso   1.000  C
  C208     1.0000 0.61420  0.92200  0.38920  Biso   1.000  C
  H113     1.0000 0.44180  0.84160  0.13120  Biso   1.000  H
  H114     1.0000 0.55820  0.15840  0.13120  Biso   1.000  H
  H115     1.0000 0.84160  0.55820  0.86880  Biso   1.000  H
  H116     1.0000 0.15840  0.44180  0.86880  Biso   1.000  H
  H117     1.0000 0.94180  0.34160  0.63120  Biso   1.000  H
  H118     1.0000 0.05820  0.65840  0.63120  Biso   1.000  H
  H119     1.0000 0.34160  0.05820  0.36880  Biso   1.000  H
  H120     1.0000 0.65840  0.94180  0.36880  Biso   1.000  H
  C209     1.0000 0.39320  0.93920  0.16080  Biso   1.000  C
  C210     1.0000 0.60680  0.06080  0.16080  Biso   1.000  C
  C211     1.0000 0.93920  0.60680  0.83920  Biso   1.000  C
  C212     1.0000 0.06080  0.39320  0.83920  Biso   1.000  C
  C213     1.0000 0.89320  0.43920  0.66080  Biso   1.000  C
  C214     1.0000 0.10680  0.56080  0.66080  Biso   1.000  C
  C215     1.0000 0.43920  0.10680  0.33920  Biso   1.000  C
  C216     1.0000 0.56080  0.89320  0.33920  Biso   1.000  C
  H121     1.0000 0.39510  0.93210  0.21490  Biso   1.000  H
  H122     1.0000 0.60490  0.06790  0.21490  Biso   1.000  H
  H123     1.0000 0.93210  0.60490  0.78510  Biso   1.000  H
  H124     1.0000 0.06790  0.39510  0.78510  Biso   1.000  H
  H125     1.0000 0.89510  0.43210  0.71490  Biso   1.000  H
  H126     1.0000 0.10490  0.56790  0.71490  Biso   1.000  H
  H127     1.0000 0.43210  0.10490  0.28510  Biso   1.000  H
  H128     1.0000 0.56790  0.89510  0.28510  Biso   1.000  H
  C217     1.0000 0.45280  0.84010  0.97560  Biso   1.000  C
  C218     1.0000 0.54720  0.15990  0.97560  Biso   1.000  C
  C219     1.0000 0.84010  0.54720  0.02440  Biso   1.000  C
  C220     1.0000 0.15990  0.45280  0.02440  Biso   1.000  C
  C221     1.0000 0.95280  0.34010  0.47560  Biso   1.000  C
  C222     1.0000 0.04720  0.65990  0.47560  Biso   1.000  C
  C223     1.0000 0.34010  0.04720  0.52440  Biso   1.000  C
  C224     1.0000 0.65990  0.95280  0.52440  Biso   1.000  C
  H129     1.0000 0.39700  0.54100  0.94000  Biso   1.000  H
  H130     1.0000 0.60300  0.45900  0.94000  Biso   1.000  H
  H131     1.0000 0.54100  0.60300  0.06000  Biso   1.000  H
  H132     1.0000 0.45900  0.39700  0.06000  Biso   1.000  H
  H133     1.0000 0.89700  0.04100  0.44000  Biso   1.000  H
  H134     1.0000 0.10300  0.95900  0.44000  Biso   1.000  H
  H135     1.0000 0.04100  0.10300  0.56000  Biso   1.000  H
  H136     1.0000 0.95900  0.89700  0.56000  Biso   1.000  H
  H137     1.0000 0.15100  0.52000  0.28700  Biso   1.000  H
  H138     1.0000 0.84900  0.48000  0.28700  Biso   1.000  H
  H139     1.0000 0.52000  0.84900  0.71300  Biso   1.000  H
  H140     1.0000 0.48000  0.15100  0.71300  Biso   1.000  H
  H141     1.0000 0.65100  0.02000  0.78700  Biso   1.000  H
  H142     1.0000 0.34900  0.98000  0.78700  Biso   1.000  H
  H143     1.0000 0.02000  0.34900  0.21300  Biso   1.000  H
  H144     1.0000 0.98000  0.65100  0.21300  Biso   1.000  H
  H145     1.0000 0.08900  0.49300  0.27700  Biso   1.000  H
  H146     1.0000 0.91100  0.50700  0.27700  Biso   1.000  H
  H147     1.0000 0.49300  0.91100  0.72300  Biso   1.000  H
  H148     1.0000 0.50700  0.08900  0.72300  Biso   1.000  H
  H149     1.0000 0.58900  0.99300  0.77700  Biso   1.000  H
  H150     1.0000 0.41100  0.00700  0.77700  Biso   1.000  H
  H151     1.0000 0.99300  0.41100  0.22300  Biso   1.000  H
  H152     1.0000 0.00700  0.58900  0.22300  Biso   1.000  H
  O97      1.0000 0.00000  0.50000  0.34680  Biso   1.000  O
  O98      1.0000 0.50000  0.00000  0.65320  Biso   1.000  O
  O99      1.0000 0.50000  0.00000  0.84680  Biso   1.000  O
  O100     1.0000 0.00000  0.50000  0.15320  Biso   1.000  O
