data_image0
_cell_length_a       17.832
_cell_length_b       17.832
_cell_length_c       16.876
_cell_angle_alpha    90
_cell_angle_beta     90
_cell_angle_gamma    90

_symmetry_space_group_name_H-M    "P 1"
_symmetry_int_tables_number       1

loop_
  _symmetry_equiv_pos_as_xyz
  'x, y, z'

loop_
  _atom_site_label
  _atom_site_occupancy
  _atom_site_fract_x
  _atom_site_fract_y
  _atom_site_fract_z
  _atom_site_thermal_displace_type
  _atom_site_B_iso_or_equiv
  _atom_site_type_symbol
  Cu1      1.0000 0.30832  0.99894  0.18412  Biso   1.000  Cu
  Cu2      1.0000 0.69168  0.00106  0.18412  Biso   1.000  Cu
  Cu3      1.0000 0.99894  0.69168  0.81588  Biso   1.000  Cu
  Cu4      1.0000 0.00106  0.30832  0.81588  Biso   1.000  Cu
  Cu5      1.0000 0.80832  0.49894  0.68412  Biso   1.000  Cu
  Cu6      1.0000 0.19168  0.50106  0.68412  Biso   1.000  Cu
  Cu7      1.0000 0.49894  0.19168  0.31588  Biso   1.000  Cu
  Cu8      1.0000 0.50106  0.80832  0.31588  Biso   1.000  Cu
  Cu9      1.0000 0.20914  0.00492  0.07086  Biso   1.000  Cu
  Cu10     1.0000 0.79086  0.99508  0.07086  Biso   1.000  Cu
  Cu11     1.0000 0.00492  0.79086  0.92914  Biso   1.000  Cu
  Cu12     1.0000 0.99508  0.20914  0.92914  Biso   1.000  Cu
  Cu13     1.0000 0.70914  0.50492  0.57086  Biso   1.000  Cu
  Cu14     1.0000 0.29086  0.49508  0.57086  Biso   1.000  Cu
  Cu15     1.0000 0.50492  0.29086  0.42914  Biso   1.000  Cu
  Cu16     1.0000 0.49508  0.70914  0.42914  Biso   1.000  Cu
  C1       1.0000 0.21772  0.86698  0.14555  Biso   1.000  C
  C2       1.0000 0.78228  0.13302  0.14555  Biso   1.000  C
  C3       1.0000 0.86698  0.78228  0.85445  Biso   1.000  C
  C4       1.0000 0.13302  0.21772  0.85445  Biso   1.000  C
  C5       1.0000 0.71772  0.36698  0.64555  Biso   1.000  C
  C6       1.0000 0.28228  0.63302  0.64555  Biso   1.000  C
  C7       1.0000 0.36698  0.28228  0.35445  Biso   1.000  C
  C8       1.0000 0.63302  0.71772  0.35445  Biso   1.000  C
  C9       1.0000 0.20148  0.78656  0.15972  Biso   1.000  C
  C10      1.0000 0.79852  0.21344  0.15972  Biso   1.000  C
  C11      1.0000 0.78656  0.79852  0.84028  Biso   1.000  C
  C12      1.0000 0.21344  0.20148  0.84028  Biso   1.000  C
  C13      1.0000 0.70148  0.28656  0.65972  Biso   1.000  C
  C14      1.0000 0.29852  0.71344  0.65972  Biso   1.000  C
  C15      1.0000 0.28656  0.29852  0.34028  Biso   1.000  C
  C16      1.0000 0.71344  0.70148  0.34028  Biso   1.000  C
  C17      1.0000 0.13811  0.75272  0.12818  Biso   1.000  C
  C18      1.0000 0.86189  0.24728  0.12818  Biso   1.000  C
  C19      1.0000 0.75272  0.86189  0.87182  Biso   1.000  C
  C20      1.0000 0.24728  0.13811  0.87182  Biso   1.000  C
  C21      1.0000 0.63811  0.25272  0.62818  Biso   1.000  C
  C22      1.0000 0.36189  0.74728  0.62818  Biso   1.000  C
  C23      1.0000 0.25272  0.36189  0.37182  Biso   1.000  C
  C24      1.0000 0.74728  0.63811  0.37182  Biso   1.000  C
  H1       1.0000 0.10320  0.78150  0.10080  Biso   1.000  H
  H2       1.0000 0.89680  0.21850  0.10080  Biso   1.000  H
  H3       1.0000 0.78150  0.89680  0.89920  Biso   1.000  H
  H4       1.0000 0.21850  0.10320  0.89920  Biso   1.000  H
  H5       1.0000 0.60320  0.28150  0.60080  Biso   1.000  H
  H6       1.0000 0.39680  0.71850  0.60080  Biso   1.000  H
  H7       1.0000 0.28150  0.39680  0.39920  Biso   1.000  H
  H8       1.0000 0.71850  0.60320  0.39920  Biso   1.000  H
  C25      1.0000 0.12650  0.67626  0.13728  Biso   1.000  C
  C26      1.0000 0.87350  0.32374  0.13728  Biso   1.000  C
  C27      1.0000 0.67626  0.87350  0.86272  Biso   1.000  C
  C28      1.0000 0.32374  0.12650  0.86272  Biso   1.000  C
  C29      1.0000 0.62650  0.17626  0.63728  Biso   1.000  C
  C30      1.0000 0.37350  0.82374  0.63728  Biso   1.000  C
  C31      1.0000 0.17626  0.37350  0.36272  Biso   1.000  C
  C32      1.0000 0.82374  0.62650  0.36272  Biso   1.000  C
  H9       1.0000 0.08410  0.65370  0.11590  Biso   1.000  H
  H10      1.0000 0.91590  0.34630  0.11590  Biso   1.000  H
  H11      1.0000 0.65370  0.91590  0.88410  Biso   1.000  H
  H12      1.0000 0.34630  0.08410  0.88410  Biso   1.000  H
  H13      1.0000 0.58410  0.15370  0.61590  Biso   1.000  H
  H14      1.0000 0.41590  0.84630  0.61590  Biso   1.000  H
  H15      1.0000 0.15370  0.41590  0.38410  Biso   1.000  H
  H16      1.0000 0.84630  0.58410  0.38410  Biso   1.000  H
  C33      1.0000 0.17787  0.63437  0.17789  Biso   1.000  C
  C34      1.0000 0.82213  0.36563  0.17789  Biso   1.000  C
  C35      1.0000 0.63437  0.82213  0.82211  Biso   1.000  C
  C36      1.0000 0.36563  0.17787  0.82211  Biso   1.000  C
  C37      1.0000 0.67787  0.13437  0.67789  Biso   1.000  C
  C38      1.0000 0.32213  0.86563  0.67789  Biso   1.000  C
  C39      1.0000 0.13437  0.32213  0.32211  Biso   1.000  C
  C40      1.0000 0.86563  0.67787  0.32211  Biso   1.000  C
  C41      1.0000 0.23898  0.66735  0.21296  Biso   1.000  C
  C42      1.0000 0.76102  0.33265  0.21296  Biso   1.000  C
  C43      1.0000 0.66735  0.76102  0.78704  Biso   1.000  C
  C44      1.0000 0.33265  0.23898  0.78704  Biso   1.000  C
  C45      1.0000 0.73898  0.16735  0.71296  Biso   1.000  C
  C46      1.0000 0.26102  0.83265  0.71296  Biso   1.000  C
  C47      1.0000 0.16735  0.26102  0.28704  Biso   1.000  C
  C48      1.0000 0.83265  0.73898  0.28704  Biso   1.000  C
  H17      1.0000 0.27200  0.63860  0.24290  Biso   1.000  H
  H18      1.0000 0.72800  0.36140  0.24290  Biso   1.000  H
  H19      1.0000 0.63860  0.72800  0.75710  Biso   1.000  H
  H20      1.0000 0.36140  0.27200  0.75710  Biso   1.000  H
  H21      1.0000 0.77200  0.13860  0.74290  Biso   1.000  H
  H22      1.0000 0.22800  0.86140  0.74290  Biso   1.000  H
  H23      1.0000 0.13860  0.22800  0.25710  Biso   1.000  H
  H24      1.0000 0.86140  0.77200  0.25710  Biso   1.000  H
  C49      1.0000 0.25128  0.74360  0.20368  Biso   1.000  C
  C50      1.0000 0.74872  0.25640  0.20368  Biso   1.000  C
  C51      1.0000 0.74360  0.74872  0.79632  Biso   1.000  C
  C52      1.0000 0.25640  0.25128  0.79632  Biso   1.000  C
  C53      1.0000 0.75128  0.24360  0.70368  Biso   1.000  C
  C54      1.0000 0.24872  0.75640  0.70368  Biso   1.000  C
  C55      1.0000 0.24360  0.24872  0.29632  Biso   1.000  C
  C56      1.0000 0.75640  0.75128  0.29632  Biso   1.000  C
  H25      1.0000 0.29290  0.76600  0.22690  Biso   1.000  H
  H26      1.0000 0.70710  0.23400  0.22690  Biso   1.000  H
  H27      1.0000 0.76600  0.70710  0.77310  Biso   1.000  H
  H28      1.0000 0.23400  0.29290  0.77310  Biso   1.000  H
  H29      1.0000 0.79290  0.26600  0.72690  Biso   1.000  H
  H30      1.0000 0.20710  0.73400  0.72690  Biso   1.000  H
  H31      1.0000 0.26600  0.20710  0.27310  Biso   1.000  H
  H32      1.0000 0.73400  0.79290  0.27310  Biso   1.000  H
  C57      1.0000 0.04388  0.36006  0.96571  Biso   1.000  C
  C58      1.0000 0.95612  0.63994  0.96571  Biso   1.000  C
  C59      1.0000 0.36006  0.95612  0.03429  Biso   1.000  C
  C60      1.0000 0.63994  0.04388  0.03429  Biso   1.000  C
  C61      1.0000 0.54388  0.86006  0.46571  Biso   1.000  C
  C62      1.0000 0.45612  0.13994  0.46571  Biso   1.000  C
  C63      1.0000 0.86006  0.45612  0.53429  Biso   1.000  C
  C64      1.0000 0.13994  0.54388  0.53429  Biso   1.000  C
  C65      1.0000 0.07597  0.41437  0.02401  Biso   1.000  C
  C66      1.0000 0.92403  0.58563  0.02401  Biso   1.000  C
  C67      1.0000 0.41437  0.92403  0.97599  Biso   1.000  C
  C68      1.0000 0.58563  0.07597  0.97599  Biso   1.000  C
  C69      1.0000 0.57597  0.91437  0.52401  Biso   1.000  C
  C70      1.0000 0.42403  0.08563  0.52401  Biso   1.000  C
  C71      1.0000 0.91437  0.42403  0.47599  Biso   1.000  C
  C72      1.0000 0.08563  0.57597  0.47599  Biso   1.000  C
  C73      1.0000 0.11176  0.47931  0.99856  Biso   1.000  C
  C74      1.0000 0.88824  0.52069  0.99856  Biso   1.000  C
  C75      1.0000 0.47931  0.88824  0.00144  Biso   1.000  C
  C76      1.0000 0.52069  0.11176  0.00144  Biso   1.000  C
  C77      1.0000 0.61176  0.97931  0.49856  Biso   1.000  C
  C78      1.0000 0.38824  0.02069  0.49856  Biso   1.000  C
  C79      1.0000 0.97931  0.38824  0.50144  Biso   1.000  C
  C80      1.0000 0.02069  0.61176  0.50144  Biso   1.000  C
  H33      1.0000 0.11360  0.49010  0.94470  Biso   1.000  H
  H34      1.0000 0.88640  0.50990  0.94470  Biso   1.000  H
  H35      1.0000 0.49010  0.88640  0.05530  Biso   1.000  H
  H36      1.0000 0.50990  0.11360  0.05530  Biso   1.000  H
  H37      1.0000 0.61360  0.99010  0.44470  Biso   1.000  H
  H38      1.0000 0.38640  0.00990  0.44470  Biso   1.000  H
  H39      1.0000 0.99010  0.38640  0.55530  Biso   1.000  H
  H40      1.0000 0.00990  0.61360  0.55530  Biso   1.000  H
  C81      1.0000 0.14460  0.52803  0.05191  Biso   1.000  C
  C82      1.0000 0.85540  0.47197  0.05191  Biso   1.000  C
  C83      1.0000 0.52803  0.85540  0.94809  Biso   1.000  C
  C84      1.0000 0.47197  0.14460  0.94809  Biso   1.000  C
  C85      1.0000 0.64460  0.02803  0.55191  Biso   1.000  C
  C86      1.0000 0.35540  0.97197  0.55191  Biso   1.000  C
  C87      1.0000 0.02803  0.35540  0.44809  Biso   1.000  C
  C88      1.0000 0.97197  0.64460  0.44809  Biso   1.000  C
  H41      1.0000 0.17060  0.57000  0.03420  Biso   1.000  H
  H42      1.0000 0.82940  0.43000  0.03420  Biso   1.000  H
  H43      1.0000 0.57000  0.82940  0.96580  Biso   1.000  H
  H44      1.0000 0.43000  0.17060  0.96580  Biso   1.000  H
  H45      1.0000 0.67060  0.07000  0.53420  Biso   1.000  H
  H46      1.0000 0.32940  0.93000  0.53420  Biso   1.000  H
  H47      1.0000 0.07000  0.32940  0.46580  Biso   1.000  H
  H48      1.0000 0.93000  0.67060  0.46580  Biso   1.000  H
  C89      1.0000 0.13803  0.51325  0.13228  Biso   1.000  C
  C90      1.0000 0.86197  0.48675  0.13228  Biso   1.000  C
  C91      1.0000 0.51325  0.86197  0.86772  Biso   1.000  C
  C92      1.0000 0.48675  0.13803  0.86772  Biso   1.000  C
  C93      1.0000 0.63803  0.01325  0.63228  Biso   1.000  C
  C94      1.0000 0.36197  0.98675  0.63228  Biso   1.000  C
  C95      1.0000 0.01325  0.36197  0.36772  Biso   1.000  C
  C96      1.0000 0.98675  0.63803  0.36772  Biso   1.000  C
  C97      1.0000 0.10312  0.44920  0.15872  Biso   1.000  C
  C98      1.0000 0.89688  0.55080  0.15872  Biso   1.000  C
  C99      1.0000 0.44920  0.89688  0.84128  Biso   1.000  C
  C100     1.0000 0.55080  0.10312  0.84128  Biso   1.000  C
  C101     1.0000 0.60312  0.94920  0.65872  Biso   1.000  C
  C102     1.0000 0.39688  0.05080  0.65872  Biso   1.000  C
  C103     1.0000 0.94920  0.39688  0.34128  Biso   1.000  C
  C104     1.0000 0.05080  0.60312  0.34128  Biso   1.000  C
  H49      1.0000 0.09960  0.43950  0.21270  Biso   1.000  H
  H50      1.0000 0.90040  0.56050  0.21270  Biso   1.000  H
  H51      1.0000 0.43950  0.90040  0.78730  Biso   1.000  H
  H52      1.0000 0.56050  0.09960  0.78730  Biso   1.000  H
  H53      1.0000 0.59960  0.93950  0.71270  Biso   1.000  H
  H54      1.0000 0.40040  0.06050  0.71270  Biso   1.000  H
  H55      1.0000 0.93950  0.40040  0.28730  Biso   1.000  H
  H56      1.0000 0.06050  0.59960  0.28730  Biso   1.000  H
  C105     1.0000 0.07330  0.39935  0.10457  Biso   1.000  C
  C106     1.0000 0.92670  0.60065  0.10457  Biso   1.000  C
  C107     1.0000 0.39935  0.92670  0.89543  Biso   1.000  C
  C108     1.0000 0.60065  0.07330  0.89543  Biso   1.000  C
  C109     1.0000 0.57330  0.89935  0.60457  Biso   1.000  C
  C110     1.0000 0.42670  0.10065  0.60457  Biso   1.000  C
  C111     1.0000 0.89935  0.42670  0.39543  Biso   1.000  C
  C112     1.0000 0.10065  0.57330  0.39543  Biso   1.000  C
  H57      1.0000 0.05120  0.35520  0.12230  Biso   1.000  H
  H58      1.0000 0.94880  0.64480  0.12230  Biso   1.000  H
  H59      1.0000 0.35520  0.94880  0.87770  Biso   1.000  H
  H60      1.0000 0.64480  0.05120  0.87770  Biso   1.000  H
  H61      1.0000 0.55120  0.85520  0.62230  Biso   1.000  H
  H62      1.0000 0.44880  0.14480  0.62230  Biso   1.000  H
  H63      1.0000 0.85520  0.44880  0.37770  Biso   1.000  H
  H64      1.0000 0.14480  0.55120  0.37770  Biso   1.000  H
  C113     1.0000 0.45360  0.66076  0.27321  Biso   1.000  C
  C114     1.0000 0.54640  0.33924  0.27321  Biso   1.000  C
  C115     1.0000 0.66076  0.54640  0.72679  Biso   1.000  C
  C116     1.0000 0.33924  0.45360  0.72679  Biso   1.000  C
  C117     1.0000 0.95360  0.16076  0.77321  Biso   1.000  C
  C118     1.0000 0.04640  0.83924  0.77321  Biso   1.000  C
  C119     1.0000 0.16076  0.04640  0.22679  Biso   1.000  C
  C120     1.0000 0.83924  0.95360  0.22679  Biso   1.000  C
  C121     1.0000 0.42187  0.60305  0.21819  Biso   1.000  C
  C122     1.0000 0.57813  0.39695  0.21819  Biso   1.000  C
  C123     1.0000 0.60305  0.57813  0.78181  Biso   1.000  C
  C124     1.0000 0.39695  0.42187  0.78181  Biso   1.000  C
  C125     1.0000 0.92187  0.10305  0.71819  Biso   1.000  C
  C126     1.0000 0.07813  0.89695  0.71819  Biso   1.000  C
  C127     1.0000 0.10305  0.07813  0.28181  Biso   1.000  C
  C128     1.0000 0.89695  0.92187  0.28181  Biso   1.000  C
  C129     1.0000 0.38824  0.53931  0.24835  Biso   1.000  C
  C130     1.0000 0.61176  0.46069  0.24835  Biso   1.000  C
  C131     1.0000 0.53931  0.61176  0.75165  Biso   1.000  C
  C132     1.0000 0.46069  0.38824  0.75165  Biso   1.000  C
  C133     1.0000 0.88824  0.03931  0.74835  Biso   1.000  C
  C134     1.0000 0.11176  0.96069  0.74835  Biso   1.000  C
  C135     1.0000 0.03931  0.11176  0.25165  Biso   1.000  C
  C136     1.0000 0.96069  0.88824  0.25165  Biso   1.000  C
  H65      1.0000 0.38740  0.53180  0.30290  Biso   1.000  H
  H66      1.0000 0.61260  0.46820  0.30290  Biso   1.000  H
  H67      1.0000 0.53180  0.61260  0.69710  Biso   1.000  H
  H68      1.0000 0.46820  0.38740  0.69710  Biso   1.000  H
  H69      1.0000 0.88740  0.03180  0.80290  Biso   1.000  H
  H70      1.0000 0.11260  0.96820  0.80290  Biso   1.000  H
  H71      1.0000 0.03180  0.11260  0.19710  Biso   1.000  H
  H72      1.0000 0.96820  0.88740  0.19710  Biso   1.000  H
  C137     1.0000 0.35575  0.48647  0.19917  Biso   1.000  C
  C138     1.0000 0.64425  0.51353  0.19917  Biso   1.000  C
  C139     1.0000 0.48647  0.64425  0.80083  Biso   1.000  C
  C140     1.0000 0.51353  0.35575  0.80083  Biso   1.000  C
  C141     1.0000 0.85575  0.98647  0.69917  Biso   1.000  C
  C142     1.0000 0.14425  0.01353  0.69917  Biso   1.000  C
  C143     1.0000 0.98647  0.14425  0.30083  Biso   1.000  C
  C144     1.0000 0.01353  0.85575  0.30083  Biso   1.000  C
  H73      1.0000 0.33150  0.44480  0.22010  Biso   1.000  H
  H74      1.0000 0.66850  0.55520  0.22010  Biso   1.000  H
  H75      1.0000 0.44480  0.66850  0.77990  Biso   1.000  H
  H76      1.0000 0.55520  0.33150  0.77990  Biso   1.000  H
  H77      1.0000 0.83150  0.94480  0.72010  Biso   1.000  H
  H78      1.0000 0.16850  0.05520  0.72010  Biso   1.000  H
  H79      1.0000 0.94480  0.16850  0.27990  Biso   1.000  H
  H80      1.0000 0.05520  0.83150  0.27990  Biso   1.000  H
  C145     1.0000 0.36017  0.49705  0.11786  Biso   1.000  C
  C146     1.0000 0.63983  0.50295  0.11786  Biso   1.000  C
  C147     1.0000 0.49705  0.63983  0.88214  Biso   1.000  C
  C148     1.0000 0.50295  0.36017  0.88214  Biso   1.000  C
  C149     1.0000 0.86017  0.99705  0.61786  Biso   1.000  C
  C150     1.0000 0.13983  0.00295  0.61786  Biso   1.000  C
  C151     1.0000 0.99705  0.13983  0.38214  Biso   1.000  C
  C152     1.0000 0.00295  0.86017  0.38214  Biso   1.000  C
  C153     1.0000 0.39311  0.56011  0.08666  Biso   1.000  C
  C154     1.0000 0.60689  0.43989  0.08666  Biso   1.000  C
  C155     1.0000 0.56011  0.60689  0.91334  Biso   1.000  C
  C156     1.0000 0.43989  0.39311  0.91334  Biso   1.000  C
  C157     1.0000 0.89311  0.06011  0.58666  Biso   1.000  C
  C158     1.0000 0.10689  0.93989  0.58666  Biso   1.000  C
  C159     1.0000 0.06011  0.10689  0.41334  Biso   1.000  C
  C160     1.0000 0.93989  0.89311  0.41334  Biso   1.000  C
  H81      1.0000 0.39530  0.56660  0.03200  Biso   1.000  H
  H82      1.0000 0.60470  0.43340  0.03200  Biso   1.000  H
  H83      1.0000 0.56660  0.60470  0.96800  Biso   1.000  H
  H84      1.0000 0.43340  0.39530  0.96800  Biso   1.000  H
  H85      1.0000 0.89530  0.06660  0.53200  Biso   1.000  H
  H86      1.0000 0.10470  0.93340  0.53200  Biso   1.000  H
  H87      1.0000 0.06660  0.10470  0.46800  Biso   1.000  H
  H88      1.0000 0.93340  0.89530  0.46800  Biso   1.000  H
  C161     1.0000 0.42323  0.61432  0.13678  Biso   1.000  C
  C162     1.0000 0.57677  0.38568  0.13678  Biso   1.000  C
  C163     1.0000 0.61432  0.57677  0.86322  Biso   1.000  C
  C164     1.0000 0.38568  0.42323  0.86322  Biso   1.000  C
  C165     1.0000 0.92323  0.11432  0.63678  Biso   1.000  C
  C166     1.0000 0.07677  0.88568  0.63678  Biso   1.000  C
  C167     1.0000 0.11432  0.07677  0.36322  Biso   1.000  C
  C168     1.0000 0.88568  0.92323  0.36322  Biso   1.000  C
  H89      1.0000 0.44410  0.65780  0.11590  Biso   1.000  H
  H90      1.0000 0.55590  0.34220  0.11590  Biso   1.000  H
  H91      1.0000 0.65780  0.55590  0.88410  Biso   1.000  H
  H92      1.0000 0.34220  0.44410  0.88410  Biso   1.000  H
  H93      1.0000 0.94410  0.15780  0.61590  Biso   1.000  H
  H94      1.0000 0.05590  0.84220  0.61590  Biso   1.000  H
  H95      1.0000 0.15780  0.05590  0.38410  Biso   1.000  H
  H96      1.0000 0.84220  0.94410  0.38410  Biso   1.000  H
  C169     1.0000 0.29511  0.13788  0.10680  Biso   1.000  C
  C170     1.0000 0.70489  0.86212  0.10680  Biso   1.000  C
  C171     1.0000 0.13788  0.70489  0.89320  Biso   1.000  C
  C172     1.0000 0.86212  0.29511  0.89320  Biso   1.000  C
  C173     1.0000 0.79511  0.63788  0.60680  Biso   1.000  C
  C174     1.0000 0.20489  0.36212  0.60680  Biso   1.000  C
  C175     1.0000 0.63788  0.20489  0.39320  Biso   1.000  C
  C176     1.0000 0.36212  0.79511  0.39320  Biso   1.000  C
  C177     1.0000 0.30761  0.21953  0.09400  Biso   1.000  C
  C178     1.0000 0.69239  0.78047  0.09400  Biso   1.000  C
  C179     1.0000 0.21953  0.69239  0.90600  Biso   1.000  C
  C180     1.0000 0.78047  0.30761  0.90600  Biso   1.000  C
  C181     1.0000 0.80761  0.71953  0.59400  Biso   1.000  C
  C182     1.0000 0.19239  0.28047  0.59400  Biso   1.000  C
  C183     1.0000 0.71953  0.19239  0.40600  Biso   1.000  C
  C184     1.0000 0.28047  0.80761  0.40600  Biso   1.000  C
  C185     1.0000 0.25461  0.26047  0.05173  Biso   1.000  C
  C186     1.0000 0.74539  0.73953  0.05173  Biso   1.000  C
  C187     1.0000 0.26047  0.74539  0.94827  Biso   1.000  C
  C188     1.0000 0.73953  0.25461  0.94827  Biso   1.000  C
  C189     1.0000 0.75461  0.76047  0.55173  Biso   1.000  C
  C190     1.0000 0.24539  0.23953  0.55173  Biso   1.000  C
  C191     1.0000 0.76047  0.24539  0.44827  Biso   1.000  C
  C192     1.0000 0.23953  0.75461  0.44827  Biso   1.000  C
  H97      1.0000 0.21400  0.23600  0.02880  Biso   1.000  H
  H98      1.0000 0.78600  0.76400  0.02880  Biso   1.000  H
  H99      1.0000 0.23600  0.78600  0.97120  Biso   1.000  H
  H100     1.0000 0.76400  0.21400  0.97120  Biso   1.000  H
  H101     1.0000 0.71400  0.73600  0.52880  Biso   1.000  H
  H102     1.0000 0.28600  0.26400  0.52880  Biso   1.000  H
  H103     1.0000 0.73600  0.28600  0.47120  Biso   1.000  H
  H104     1.0000 0.26400  0.71400  0.47120  Biso   1.000  H
  C193     1.0000 0.26188  0.33698  0.04361  Biso   1.000  C
  C194     1.0000 0.73812  0.66302  0.04361  Biso   1.000  C
  C195     1.0000 0.33698  0.73812  0.95639  Biso   1.000  C
  C196     1.0000 0.66302  0.26188  0.95639  Biso   1.000  C
  C197     1.0000 0.76188  0.83698  0.54361  Biso   1.000  C
  C198     1.0000 0.23812  0.16302  0.54361  Biso   1.000  C
  C199     1.0000 0.83698  0.23812  0.45639  Biso   1.000  C
  C200     1.0000 0.16302  0.76188  0.45639  Biso   1.000  C
  H105     1.0000 0.22630  0.36420  0.01550  Biso   1.000  H
  H106     1.0000 0.77370  0.63580  0.01550  Biso   1.000  H
  H107     1.0000 0.36420  0.77370  0.98450  Biso   1.000  H
  H108     1.0000 0.63580  0.22630  0.98450  Biso   1.000  H
  H109     1.0000 0.72630  0.86420  0.51550  Biso   1.000  H
  H110     1.0000 0.27370  0.13580  0.51550  Biso   1.000  H
  H111     1.0000 0.86420  0.27370  0.48450  Biso   1.000  H
  H112     1.0000 0.13580  0.72630  0.48450  Biso   1.000  H
  C201     1.0000 0.32271  0.37305  0.07778  Biso   1.000  C
  C202     1.0000 0.67729  0.62695  0.07778  Biso   1.000  C
  C203     1.0000 0.37305  0.67729  0.92222  Biso   1.000  C
  C204     1.0000 0.62695  0.32271  0.92222  Biso   1.000  C
  C205     1.0000 0.82271  0.87305  0.57778  Biso   1.000  C
  C206     1.0000 0.17729  0.12695  0.57778  Biso   1.000  C
  C207     1.0000 0.87305  0.17729  0.42222  Biso   1.000  C
  C208     1.0000 0.12695  0.82271  0.42222  Biso   1.000  C
  C209     1.0000 0.37688  0.33343  0.11829  Biso   1.000  C
  C210     1.0000 0.62312  0.66657  0.11829  Biso   1.000  C
  C211     1.0000 0.33343  0.62312  0.88171  Biso   1.000  C
  C212     1.0000 0.66657  0.37688  0.88171  Biso   1.000  C
  C213     1.0000 0.87688  0.83343  0.61829  Biso   1.000  C
  C214     1.0000 0.12312  0.16657  0.61829  Biso   1.000  C
  C215     1.0000 0.83343  0.12312  0.38171  Biso   1.000  C
  C216     1.0000 0.16657  0.87688  0.38171  Biso   1.000  C
  H113     1.0000 0.41820  0.35800  0.13970  Biso   1.000  H
  H114     1.0000 0.58180  0.64200  0.13970  Biso   1.000  H
  H115     1.0000 0.35800  0.58180  0.86030  Biso   1.000  H
  H116     1.0000 0.64200  0.41820  0.86030  Biso   1.000  H
  H117     1.0000 0.91820  0.85800  0.63970  Biso   1.000  H
  H118     1.0000 0.08180  0.14200  0.63970  Biso   1.000  H
  H119     1.0000 0.85800  0.08180  0.36030  Biso   1.000  H
  H120     1.0000 0.14200  0.91820  0.36030  Biso   1.000  H
  C217     1.0000 0.36888  0.25611  0.12670  Biso   1.000  C
  C218     1.0000 0.63112  0.74389  0.12670  Biso   1.000  C
  C219     1.0000 0.25611  0.63112  0.87330  Biso   1.000  C
  C220     1.0000 0.74389  0.36888  0.87330  Biso   1.000  C
  C221     1.0000 0.86888  0.75611  0.62670  Biso   1.000  C
  C222     1.0000 0.13112  0.24389  0.62670  Biso   1.000  C
  C223     1.0000 0.75611  0.13112  0.37330  Biso   1.000  C
  C224     1.0000 0.24389  0.86888  0.37330  Biso   1.000  C
  H121     1.0000 0.40480  0.22890  0.15440  Biso   1.000  H
  H122     1.0000 0.59520  0.77110  0.15440  Biso   1.000  H
  H123     1.0000 0.22890  0.59520  0.84560  Biso   1.000  H
  H124     1.0000 0.77110  0.40480  0.84560  Biso   1.000  H
  H125     1.0000 0.90480  0.72890  0.65440  Biso   1.000  H
  H126     1.0000 0.09520  0.27110  0.65440  Biso   1.000  H
  H127     1.0000 0.72890  0.09520  0.34560  Biso   1.000  H
  H128     1.0000 0.27110  0.90480  0.34560  Biso   1.000  H
  O1       1.0000 0.26521  0.89797  0.18969  Biso   1.000  O
  O2       1.0000 0.73479  0.10203  0.18969  Biso   1.000  O
  O3       1.0000 0.89797  0.73479  0.81031  Biso   1.000  O
  O4       1.0000 0.10203  0.26521  0.81031  Biso   1.000  O
  O5       1.0000 0.76521  0.39797  0.68969  Biso   1.000  O
  O6       1.0000 0.23479  0.60203  0.68969  Biso   1.000  O
  O7       1.0000 0.39797  0.23479  0.31031  Biso   1.000  O
  O8       1.0000 0.60203  0.76521  0.31031  Biso   1.000  O
  O9       1.0000 0.18387  0.89956  0.08842  Biso   1.000  O
  O10      1.0000 0.81613  0.10044  0.08842  Biso   1.000  O
  O11      1.0000 0.89956  0.81613  0.91158  Biso   1.000  O
  O12      1.0000 0.10044  0.18387  0.91158  Biso   1.000  O
  O13      1.0000 0.68387  0.39956  0.58842  Biso   1.000  O
  O14      1.0000 0.31613  0.60044  0.58842  Biso   1.000  O
  O15      1.0000 0.39956  0.31613  0.41158  Biso   1.000  O
  O16      1.0000 0.60044  0.68387  0.41158  Biso   1.000  O
  O17      1.0000 0.12928  0.03583  0.98151  Biso   1.000  O
  O18      1.0000 0.87072  0.96417  0.98151  Biso   1.000  O
  O19      1.0000 0.03583  0.87072  0.01849  Biso   1.000  O
  O20      1.0000 0.96417  0.12928  0.01849  Biso   1.000  O
  O21      1.0000 0.62928  0.53583  0.48151  Biso   1.000  O
  O22      1.0000 0.37072  0.46417  0.48151  Biso   1.000  O
  O23      1.0000 0.53583  0.37072  0.51849  Biso   1.000  O
  O24      1.0000 0.46417  0.62928  0.51849  Biso   1.000  O
  H129     1.0000 0.09100  0.01720  0.96170  Biso   1.000  H
  H130     1.0000 0.90900  0.98280  0.96170  Biso   1.000  H
  H131     1.0000 0.01720  0.90900  0.03830  Biso   1.000  H
  H132     1.0000 0.98280  0.09100  0.03830  Biso   1.000  H
  H133     1.0000 0.59100  0.51720  0.46170  Biso   1.000  H
  H134     1.0000 0.40900  0.48280  0.46170  Biso   1.000  H
  H135     1.0000 0.51720  0.40900  0.53830  Biso   1.000  H
  H136     1.0000 0.48280  0.59100  0.53830  Biso   1.000  H
  H137     1.0000 0.12510  0.08310  0.97230  Biso   1.000  H
  H138     1.0000 0.87490  0.91690  0.97230  Biso   1.000  H
  H139     1.0000 0.08310  0.87490  0.02770  Biso   1.000  H
  H140     1.0000 0.91690  0.12510  0.02770  Biso   1.000  H
  H141     1.0000 0.62510  0.58310  0.47230  Biso   1.000  H
  H142     1.0000 0.37490  0.41690  0.47230  Biso   1.000  H
  H143     1.0000 0.58310  0.37490  0.52770  Biso   1.000  H
  H144     1.0000 0.41690  0.62510  0.52770  Biso   1.000  H
  O25      1.0000 0.03918  0.38057  0.89367  Biso   1.000  O
  O26      1.0000 0.96082  0.61943  0.89367  Biso   1.000  O
  O27      1.0000 0.38057  0.96082  0.10633  Biso   1.000  O
  O28      1.0000 0.61943  0.03918  0.10633  Biso   1.000  O
  O29      1.0000 0.53918  0.88057  0.39367  Biso   1.000  O
  O30      1.0000 0.46082  0.11943  0.39367  Biso   1.000  O
  O31      1.0000 0.88057  0.46082  0.60633  Biso   1.000  O
  O32      1.0000 0.11943  0.53918  0.60633  Biso   1.000  O
  O33      1.0000 0.38673  0.98490  0.28241  Biso   1.000  O
  O34      1.0000 0.61327  0.01510  0.28241  Biso   1.000  O
  O35      1.0000 0.98490  0.61327  0.71759  Biso   1.000  O
  O36      1.0000 0.01510  0.38673  0.71759  Biso   1.000  O
  O37      1.0000 0.88673  0.48490  0.78241  Biso   1.000  O
  O38      1.0000 0.11327  0.51510  0.78241  Biso   1.000  O
  O39      1.0000 0.48490  0.11327  0.21759  Biso   1.000  O
  O40      1.0000 0.51510  0.88673  0.21759  Biso   1.000  O
  H145     1.0000 0.38610  0.94670  0.30270  Biso   1.000  H
  H146     1.0000 0.61390  0.05330  0.30270  Biso   1.000  H
  H147     1.0000 0.94670  0.61390  0.69730  Biso   1.000  H
  H148     1.0000 0.05330  0.38610  0.69730  Biso   1.000  H
  H149     1.0000 0.88610  0.44670  0.80270  Biso   1.000  H
  H150     1.0000 0.11390  0.55330  0.80270  Biso   1.000  H
  H151     1.0000 0.44670  0.11390  0.19730  Biso   1.000  H
  H152     1.0000 0.55330  0.88610  0.19730  Biso   1.000  H
  H153     1.0000 0.40980  0.01810  0.29500  Biso   1.000  H
  H154     1.0000 0.59020  0.98190  0.29500  Biso   1.000  H
  H155     1.0000 0.01810  0.59020  0.70500  Biso   1.000  H
  H156     1.0000 0.98190  0.40980  0.70500  Biso   1.000  H
  H157     1.0000 0.90980  0.51810  0.79500  Biso   1.000  H
  H158     1.0000 0.09020  0.48190  0.79500  Biso   1.000  H
  H159     1.0000 0.51810  0.09020  0.20500  Biso   1.000  H
  H160     1.0000 0.48190  0.90980  0.20500  Biso   1.000  H
  O41      1.0000 0.02438  0.29698  0.99184  Biso   1.000  O
  O42      1.0000 0.97562  0.70302  0.99184  Biso   1.000  O
  O43      1.0000 0.29698  0.97562  0.00816  Biso   1.000  O
  O44      1.0000 0.70302  0.02438  0.00816  Biso   1.000  O
  O45      1.0000 0.52438  0.79698  0.49184  Biso   1.000  O
  O46      1.0000 0.47562  0.20302  0.49184  Biso   1.000  O
  O47      1.0000 0.79698  0.47562  0.50816  Biso   1.000  O
  O48      1.0000 0.20302  0.52438  0.50816  Biso   1.000  O
  O49      1.0000 0.33759  0.10238  0.15451  Biso   1.000  O
  O50      1.0000 0.66241  0.89762  0.15451  Biso   1.000  O
  O51      1.0000 0.10238  0.66241  0.84549  Biso   1.000  O
  O52      1.0000 0.89762  0.33759  0.84549  Biso   1.000  O
  O53      1.0000 0.83759  0.60238  0.65451  Biso   1.000  O
  O54      1.0000 0.16241  0.39762  0.65451  Biso   1.000  O
  O55      1.0000 0.60238  0.16241  0.34549  Biso   1.000  O
  O56      1.0000 0.39762  0.83759  0.34549  Biso   1.000  O
  O57      1.0000 0.24107  0.10879  0.06994  Biso   1.000  O
  O58      1.0000 0.75893  0.89121  0.06994  Biso   1.000  O
  O59      1.0000 0.10879  0.75893  0.93006  Biso   1.000  O
  O60      1.0000 0.89121  0.24107  0.93006  Biso   1.000  O
  O61      1.0000 0.74107  0.60879  0.56994  Biso   1.000  O
  O62      1.0000 0.25893  0.39121  0.56994  Biso   1.000  O
  O63      1.0000 0.60879  0.25893  0.43006  Biso   1.000  O
  O64      1.0000 0.39121  0.74107  0.43006  Biso   1.000  O
  O65      1.0000 0.46146  0.72679  0.24876  Biso   1.000  O
  O66      1.0000 0.53854  0.27321  0.24876  Biso   1.000  O
  O67      1.0000 0.72679  0.53854  0.75124  Biso   1.000  O
  O68      1.0000 0.27321  0.46146  0.75124  Biso   1.000  O
  O69      1.0000 0.96146  0.22679  0.74876  Biso   1.000  O
  O70      1.0000 0.03854  0.77321  0.74876  Biso   1.000  O
  O71      1.0000 0.22679  0.03854  0.25124  Biso   1.000  O
  O72      1.0000 0.77321  0.96146  0.25124  Biso   1.000  O
  O73      1.0000 0.46944  0.63850  0.34251  Biso   1.000  O
  O74      1.0000 0.53056  0.36150  0.34251  Biso   1.000  O
  O75      1.0000 0.63850  0.53056  0.65749  Biso   1.000  O
  O76      1.0000 0.36150  0.46944  0.65749  Biso   1.000  O
  O77      1.0000 0.96944  0.13850  0.84251  Biso   1.000  O
  O78      1.0000 0.03056  0.86150  0.84251  Biso   1.000  O
  O79      1.0000 0.13850  0.03056  0.15749  Biso   1.000  O
  O80      1.0000 0.86150  0.96944  0.15749  Biso   1.000  O
  O81      1.0000 0.16960  0.55798  0.19057  Biso   1.000  O
  O82      1.0000 0.83040  0.44202  0.19057  Biso   1.000  O
  O83      1.0000 0.55798  0.83040  0.80943  Biso   1.000  O
  O84      1.0000 0.44202  0.16960  0.80943  Biso   1.000  O
  O85      1.0000 0.66960  0.05798  0.69057  Biso   1.000  O
  O86      1.0000 0.33040  0.94202  0.69057  Biso   1.000  O
  O87      1.0000 0.05798  0.33040  0.30943  Biso   1.000  O
  O88      1.0000 0.94202  0.66960  0.30943  Biso   1.000  O
  O89      1.0000 0.32745  0.44921  0.06336  Biso   1.000  O
  O90      1.0000 0.67255  0.55079  0.06336  Biso   1.000  O
  O91      1.0000 0.44921  0.67255  0.93664  Biso   1.000  O
  O92      1.0000 0.55079  0.32745  0.93664  Biso   1.000  O
  O93      1.0000 0.82745  0.94921  0.56336  Biso   1.000  O
  O94      1.0000 0.17255  0.05079  0.56336  Biso   1.000  O
  O95      1.0000 0.94921  0.17255  0.43664  Biso   1.000  O
  O96      1.0000 0.05079  0.82745  0.43664  Biso   1.000  O
  O97      1.0000 0.00000  0.00000  0.90521  Biso   1.000  O
  O98      1.0000 0.00000  0.00000  0.09479  Biso   1.000  O
  O99      1.0000 0.50000  0.50000  0.40521  Biso   1.000  O
  O100     1.0000 0.50000  0.50000  0.59479  Biso   1.000  O
  H161     1.0000 0.01380  0.95930  0.87370  Biso   1.000  H
  H162     1.0000 0.98620  0.04070  0.87370  Biso   1.000  H
  H163     1.0000 0.95930  0.98620  0.12630  Biso   1.000  H
  H164     1.0000 0.04070  0.01380  0.12630  Biso   1.000  H
  H165     1.0000 0.51380  0.45930  0.37370  Biso   1.000  H
  H166     1.0000 0.48620  0.54070  0.37370  Biso   1.000  H
  H167     1.0000 0.45930  0.48620  0.62630  Biso   1.000  H
  H168     1.0000 0.54070  0.51380  0.62630  Biso   1.000  H
