data_image0
_cell_length_a       9.6992
_cell_length_b       6.7216
_cell_length_c       17.336
_cell_angle_alpha    90
_cell_angle_beta     108.646
_cell_angle_gamma    90

_symmetry_space_group_name_H-M    "P 1"
_symmetry_int_tables_number       1

loop_
  _symmetry_equiv_pos_as_xyz
  'x, y, z'

loop_
  _atom_site_label
  _atom_site_occupancy
  _atom_site_fract_x
  _atom_site_fract_y
  _atom_site_fract_z
  _atom_site_thermal_displace_type
  _atom_site_B_iso_or_equiv
  _atom_site_type_symbol
  Cu1      1.0000 0.60172  0.01491  0.11799  Biso   1.000  Cu
  Cu2      1.0000 0.89828  0.51491  0.38201  Biso   1.000  Cu
  Cu3      1.0000 0.39828  0.98509  0.88201  Biso   1.000  Cu
  Cu4      1.0000 0.10172  0.48509  0.61799  Biso   1.000  Cu
  Cl1      1.0000 0.70319  0.25714  0.06861  Biso   1.000  Cl
  Cl2      1.0000 0.79681  0.75714  0.43139  Biso   1.000  Cl
  Cl3      1.0000 0.29681  0.74286  0.93139  Biso   1.000  Cl
  Cl4      1.0000 0.20319  0.24286  0.56861  Biso   1.000  Cl
  O1       1.0000 0.50774  0.77000  0.14649  Biso   1.000  O
  O2       1.0000 0.99226  0.27000  0.35351  Biso   1.000  O
  O3       1.0000 0.49226  0.23000  0.85351  Biso   1.000  O
  O4       1.0000 0.00774  0.73000  0.64649  Biso   1.000  O
  O5       1.0000 0.86650  0.61270  0.25044  Biso   1.000  O
  O6       1.0000 0.63350  0.11270  0.24956  Biso   1.000  O
  O7       1.0000 0.13350  0.38730  0.74956  Biso   1.000  O
  O8       1.0000 0.36650  0.88730  0.75044  Biso   1.000  O
  O9       1.0000 0.76856  0.83830  0.15452  Biso   1.000  O
  O10      1.0000 0.73144  0.33830  0.34548  Biso   1.000  O
  O11      1.0000 0.23144  0.16170  0.84548  Biso   1.000  O
  O12      1.0000 0.26856  0.66170  0.65452  Biso   1.000  O
  N1       1.0000 0.39700  0.10960  0.08455  Biso   1.000  N
  N2       1.0000 0.10300  0.60960  0.41545  Biso   1.000  N
  N3       1.0000 0.60300  0.89040  0.91545  Biso   1.000  N
  N4       1.0000 0.89700  0.39040  0.58455  Biso   1.000  N
  C1       1.0000 0.34040  0.27490  0.04600  Biso   1.000  C
  C2       1.0000 0.15960  0.77490  0.45400  Biso   1.000  C
  C3       1.0000 0.65960  0.72510  0.95400  Biso   1.000  C
  C4       1.0000 0.84040  0.22510  0.54600  Biso   1.000  C
  H1       1.0000 0.40000  0.35950  0.02620  Biso   1.000  H
  H2       1.0000 0.10000  0.85950  0.47380  Biso   1.000  H
  H3       1.0000 0.60000  0.64050  0.97380  Biso   1.000  H
  H4       1.0000 0.90000  0.14050  0.52620  Biso   1.000  H
  C5       1.0000 0.19540  0.32950  0.03330  Biso   1.000  C
  C6       1.0000 0.30460  0.82950  0.46670  Biso   1.000  C
  C7       1.0000 0.80460  0.67050  0.96670  Biso   1.000  C
  C8       1.0000 0.69540  0.17050  0.53330  Biso   1.000  C
  H5       1.0000 0.15790  0.44830  0.00460  Biso   1.000  H
  H6       1.0000 0.34210  0.94830  0.49540  Biso   1.000  H
  H7       1.0000 0.84210  0.55170  0.99540  Biso   1.000  H
  H8       1.0000 0.65790  0.05170  0.50460  Biso   1.000  H
  C9       1.0000 0.10790  0.21220  0.06218  Biso   1.000  C
  C10      1.0000 0.39210  0.71220  0.43782  Biso   1.000  C
  C11      1.0000 0.89210  0.78780  0.93782  Biso   1.000  C
  C12      1.0000 0.60790  0.28780  0.56218  Biso   1.000  C
  H9       1.0000 0.01020  0.25060  0.05470  Biso   1.000  H
  H10      1.0000 0.48980  0.75060  0.44530  Biso   1.000  H
  H11      1.0000 0.98980  0.74940  0.94530  Biso   1.000  H
  H12      1.0000 0.51020  0.24940  0.55470  Biso   1.000  H
  C13      1.0000 0.16380  0.03280  0.10341  Biso   1.000  C
  C14      1.0000 0.33620  0.53280  0.39659  Biso   1.000  C
  C15      1.0000 0.83620  0.96720  0.89659  Biso   1.000  C
  C16      1.0000 0.66380  0.46720  0.60341  Biso   1.000  C
  C17      1.0000 0.08320  0.89920  0.13560  Biso   1.000  C
  C18      1.0000 0.41680  0.39920  0.36440  Biso   1.000  C
  C19      1.0000 0.91680  0.10080  0.86440  Biso   1.000  C
  C20      1.0000 0.58320  0.60080  0.63560  Biso   1.000  C
  H13      1.0000 0.98460  0.92780  0.13010  Biso   1.000  H
  H14      1.0000 0.51540  0.42780  0.36990  Biso   1.000  H
  H15      1.0000 0.01540  0.07220  0.86990  Biso   1.000  H
  H16      1.0000 0.48460  0.57220  0.63010  Biso   1.000  H
  C21      1.0000 0.14610  0.73010  0.17441  Biso   1.000  C
  C22      1.0000 0.35390  0.23010  0.32559  Biso   1.000  C
  C23      1.0000 0.85390  0.26990  0.82559  Biso   1.000  C
  C24      1.0000 0.64610  0.76990  0.67441  Biso   1.000  C
  H17      1.0000 0.09150  0.64450  0.19720  Biso   1.000  H
  H18      1.0000 0.40850  0.14450  0.30280  Biso   1.000  H
  H19      1.0000 0.90850  0.35550  0.80280  Biso   1.000  H
  H20      1.0000 0.59150  0.85550  0.69720  Biso   1.000  H
  C25      1.0000 0.29200  0.67890  0.18151  Biso   1.000  C
  C26      1.0000 0.20800  0.17890  0.31849  Biso   1.000  C
  C27      1.0000 0.70800  0.32110  0.81849  Biso   1.000  C
  C28      1.0000 0.79200  0.82110  0.68151  Biso   1.000  C
  H21      1.0000 0.33430  0.55950  0.20790  Biso   1.000  H
  H22      1.0000 0.16570  0.05950  0.29210  Biso   1.000  H
  H23      1.0000 0.66570  0.44050  0.79210  Biso   1.000  H
  H24      1.0000 0.83430  0.94050  0.70790  Biso   1.000  H
  C29      1.0000 0.36970  0.80480  0.14961  Biso   1.000  C
  C30      1.0000 0.13030  0.30480  0.35039  Biso   1.000  C
  C31      1.0000 0.63030  0.19520  0.85039  Biso   1.000  C
  C32      1.0000 0.86970  0.69520  0.64961  Biso   1.000  C
  C33      1.0000 0.30980  0.98560  0.11181  Biso   1.000  C
  C34      1.0000 0.19020  0.48560  0.38819  Biso   1.000  C
  C35      1.0000 0.69020  0.01440  0.88819  Biso   1.000  C
  C36      1.0000 0.80980  0.51440  0.61181  Biso   1.000  C
  C37      1.0000 0.60960  0.64930  0.20790  Biso   1.000  C
  C38      1.0000 0.89040  0.14930  0.29210  Biso   1.000  C
  C39      1.0000 0.39040  0.35070  0.79210  Biso   1.000  C
  C40      1.0000 0.10960  0.85070  0.70790  Biso   1.000  C
  H25      1.0000 0.58880  0.50620  0.19640  Biso   1.000  H
  H26      1.0000 0.91120  0.00620  0.30360  Biso   1.000  H
  H27      1.0000 0.41120  0.49380  0.80360  Biso   1.000  H
  H28      1.0000 0.08880  0.99380  0.69640  Biso   1.000  H
  H29      1.0000 0.60280  0.67950  0.26250  Biso   1.000  H
  H30      1.0000 0.89720  0.17950  0.23750  Biso   1.000  H
  H31      1.0000 0.39720  0.32050  0.73750  Biso   1.000  H
  H32      1.0000 0.10280  0.82050  0.76250  Biso   1.000  H
  C41      1.0000 0.76140  0.70130  0.20439  Biso   1.000  C
  C42      1.0000 0.73860  0.20130  0.29561  Biso   1.000  C
  C43      1.0000 0.23860  0.29870  0.79561  Biso   1.000  C
  C44      1.0000 0.26140  0.79870  0.70439  Biso   1.000  C
