data_image0
_cell_length_a       17.133
_cell_length_b       22.219
_cell_length_c       19.058
_cell_angle_alpha    90
_cell_angle_beta     112.408
_cell_angle_gamma    90

_symmetry_space_group_name_H-M    "P 1"
_symmetry_int_tables_number       1

loop_
  _symmetry_equiv_pos_as_xyz
  'x, y, z'

loop_
  _atom_site_label
  _atom_site_occupancy
  _atom_site_fract_x
  _atom_site_fract_y
  _atom_site_fract_z
  _atom_site_thermal_displace_type
  _atom_site_B_iso_or_equiv
  _atom_site_type_symbol
  Cu1      1.0000 0.84794  0.83285  0.67511  Biso   1.000  Cu
  Cu2      1.0000 0.15206  0.33285  0.82489  Biso   1.000  Cu
  Cu3      1.0000 0.15206  0.16715  0.32489  Biso   1.000  Cu
  Cu4      1.0000 0.84794  0.66715  0.17511  Biso   1.000  Cu
  Cu5      1.0000 0.92237  0.01683  0.62373  Biso   1.000  Cu
  Cu6      1.0000 0.07763  0.51683  0.87627  Biso   1.000  Cu
  Cu7      1.0000 0.07763  0.98317  0.37627  Biso   1.000  Cu
  Cu8      1.0000 0.92237  0.48317  0.12373  Biso   1.000  Cu
  Cu9      1.0000 0.55665  0.96098  0.45609  Biso   1.000  Cu
  Cu10     1.0000 0.44335  0.46098  0.04391  Biso   1.000  Cu
  Cu11     1.0000 0.44335  0.03902  0.54391  Biso   1.000  Cu
  Cu12     1.0000 0.55665  0.53902  0.95609  Biso   1.000  Cu
  Cu13     1.0000 0.06104  0.97393  0.95097  Biso   1.000  Cu
  Cu14     1.0000 0.93896  0.47393  0.54903  Biso   1.000  Cu
  Cu15     1.0000 0.93896  0.02607  0.04903  Biso   1.000  Cu
  Cu16     1.0000 0.06104  0.52607  0.45097  Biso   1.000  Cu
  Cl1      1.0000 0.84035  0.94847  0.68049  Biso   1.000  Cl
  Cl2      1.0000 0.15965  0.44847  0.81951  Biso   1.000  Cl
  Cl3      1.0000 0.15965  0.05153  0.31951  Biso   1.000  Cl
  Cl4      1.0000 0.84035  0.55153  0.18049  Biso   1.000  Cl
  Cl5      1.0000 0.59604  0.99594  0.58072  Biso   1.000  Cl
  Cl6      1.0000 0.40396  0.49594  0.91928  Biso   1.000  Cl
  Cl7      1.0000 0.40396  0.00406  0.41928  Biso   1.000  Cl
  Cl8      1.0000 0.59604  0.50406  0.08072  Biso   1.000  Cl
  Cl9      1.0000 0.91796  0.99562  0.90829  Biso   1.000  Cl
  Cl10     1.0000 0.08204  0.49562  0.59171  Biso   1.000  Cl
  Cl11     1.0000 0.08204  0.00438  0.09171  Biso   1.000  Cl
  Cl12     1.0000 0.91796  0.50438  0.40829  Biso   1.000  Cl
  Cl13     1.0000 0.92857  0.68731  0.81379  Biso   1.000  Cl
  Cl14     1.0000 0.07143  0.18731  0.68621  Biso   1.000  Cl
  Cl15     1.0000 0.07143  0.31269  0.18621  Biso   1.000  Cl
  Cl16     1.0000 0.92857  0.81269  0.31379  Biso   1.000  Cl
  Cl17     1.0000 0.87342  0.15565  0.46440  Biso   1.000  Cl
  Cl18     1.0000 0.12658  0.65565  0.03560  Biso   1.000  Cl
  Cl19     1.0000 0.12658  0.84435  0.53560  Biso   1.000  Cl
  Cl20     1.0000 0.87342  0.34435  0.96440  Biso   1.000  Cl
  O1       1.0000 0.54300  0.92050  0.34591  Biso   1.000  O
  O2       1.0000 0.45700  0.42050  0.15409  Biso   1.000  O
  O3       1.0000 0.45700  0.07950  0.65409  Biso   1.000  O
  O4       1.0000 0.54300  0.57950  0.84591  Biso   1.000  O
  O5       1.0000 0.19472  0.94911  0.97074  Biso   1.000  O
  O6       1.0000 0.80528  0.44911  0.52926  Biso   1.000  O
  O7       1.0000 0.80528  0.05089  0.02926  Biso   1.000  O
  O8       1.0000 0.19472  0.55089  0.47074  Biso   1.000  O
  N1       1.0000 0.71920  0.82684  0.64810  Biso   1.000  N
  N2       1.0000 0.28080  0.32684  0.85190  Biso   1.000  N
  N3       1.0000 0.28080  0.17316  0.35190  Biso   1.000  N
  N4       1.0000 0.71920  0.67316  0.14810  Biso   1.000  N
  H1       1.0000 0.70670  0.78690  0.64390  Biso   1.000  H
  H2       1.0000 0.29330  0.28690  0.85610  Biso   1.000  H
  H3       1.0000 0.29330  0.21310  0.35610  Biso   1.000  H
  H4       1.0000 0.70670  0.71310  0.14390  Biso   1.000  H
  N5       1.0000 0.88000  0.82756  0.79070  Biso   1.000  N
  N6       1.0000 0.12000  0.32756  0.70930  Biso   1.000  N
  N7       1.0000 0.12000  0.17244  0.20930  Biso   1.000  N
  N8       1.0000 0.88000  0.67244  0.29070  Biso   1.000  N
  H5       1.0000 0.88610  0.78770  0.80230  Biso   1.000  H
  H6       1.0000 0.11390  0.28770  0.69770  Biso   1.000  H
  H7       1.0000 0.11390  0.21230  0.19770  Biso   1.000  H
  H8       1.0000 0.88610  0.71230  0.30230  Biso   1.000  H
  N9       1.0000 0.81330  0.81842  0.56290  Biso   1.000  N
  N10      1.0000 0.18670  0.31842  0.93710  Biso   1.000  N
  N11      1.0000 0.18670  0.18158  0.43710  Biso   1.000  N
  N12      1.0000 0.81330  0.68158  0.06290  Biso   1.000  N
  N13      1.0000 0.70770  0.81540  0.45120  Biso   1.000  N
  N14      1.0000 0.29230  0.31540  0.04880  Biso   1.000  N
  N15      1.0000 0.29230  0.18460  0.54880  Biso   1.000  N
  N16      1.0000 0.70770  0.68460  0.95120  Biso   1.000  N
  H9       1.0000 0.65800  0.81740  0.41610  Biso   1.000  H
  H10      1.0000 0.34200  0.31740  0.08390  Biso   1.000  H
  H11      1.0000 0.34200  0.18260  0.58390  Biso   1.000  H
  H12      1.0000 0.65800  0.68260  0.91610  Biso   1.000  H
  N17      1.0000 0.97180  0.81897  0.70950  Biso   1.000  N
  N18      1.0000 0.02820  0.31897  0.79050  Biso   1.000  N
  N19      1.0000 0.02820  0.18103  0.29050  Biso   1.000  N
  N20      1.0000 0.97180  0.68103  0.20950  Biso   1.000  N
  N21      1.0000 0.09470  0.81730  0.80500  Biso   1.000  N
  N22      1.0000 0.90530  0.31730  0.69500  Biso   1.000  N
  N23      1.0000 0.90530  0.18270  0.19500  Biso   1.000  N
  N24      1.0000 0.09470  0.68270  0.30500  Biso   1.000  N
  H13      1.0000 0.13360  0.82110  0.84950  Biso   1.000  H
  H14      1.0000 0.86640  0.32110  0.65050  Biso   1.000  H
  H15      1.0000 0.86640  0.17890  0.15050  Biso   1.000  H
  H16      1.0000 0.13360  0.67890  0.34950  Biso   1.000  H
  N25      1.0000 0.54590  0.78630  0.53420  Biso   1.000  N
  N26      1.0000 0.45410  0.28630  0.96580  Biso   1.000  N
  N27      1.0000 0.45410  0.21370  0.46580  Biso   1.000  N
  N28      1.0000 0.54590  0.71370  0.03420  Biso   1.000  N
  H17      1.0000 0.56890  0.75460  0.55950  Biso   1.000  H
  H18      1.0000 0.43110  0.25460  0.94050  Biso   1.000  H
  H19      1.0000 0.43110  0.24540  0.44050  Biso   1.000  H
  H20      1.0000 0.56890  0.74540  0.05950  Biso   1.000  H
  N29      1.0000 0.53220  0.88148  0.48710  Biso   1.000  N
  N30      1.0000 0.46780  0.38148  0.01290  Biso   1.000  N
  N31      1.0000 0.46780  0.11852  0.51290  Biso   1.000  N
  N32      1.0000 0.53220  0.61852  0.98710  Biso   1.000  N
  N33      1.0000 0.01940  0.78821  0.94290  Biso   1.000  N
  N34      1.0000 0.98060  0.28821  0.55710  Biso   1.000  N
  N35      1.0000 0.98060  0.21179  0.05710  Biso   1.000  N
  N36      1.0000 0.01940  0.71179  0.44290  Biso   1.000  N
  H21      1.0000 0.00490  0.75400  0.92040  Biso   1.000  H
  H22      1.0000 0.99510  0.25400  0.57960  Biso   1.000  H
  H23      1.0000 0.99510  0.24600  0.07960  Biso   1.000  H
  H24      1.0000 0.00490  0.74600  0.42040  Biso   1.000  H
  N37      1.0000 0.03950  0.88700  0.96240  Biso   1.000  N
  N38      1.0000 0.96050  0.38700  0.53760  Biso   1.000  N
  N39      1.0000 0.96050  0.11300  0.03760  Biso   1.000  N
  N40      1.0000 0.03950  0.61300  0.46240  Biso   1.000  N
  N41      1.0000 0.81520  0.06549  0.56340  Biso   1.000  N
  N42      1.0000 0.18480  0.56549  0.93660  Biso   1.000  N
  N43      1.0000 0.18480  0.93451  0.43660  Biso   1.000  N
  N44      1.0000 0.81520  0.43451  0.06340  Biso   1.000  N
  H25      1.0000 0.83020  0.09270  0.53510  Biso   1.000  H
  H26      1.0000 0.16980  0.59270  0.96490  Biso   1.000  H
  H27      1.0000 0.16980  0.90730  0.46490  Biso   1.000  H
  H28      1.0000 0.83020  0.40730  0.03510  Biso   1.000  H
  N45      1.0000 0.96050  0.07544  0.71650  Biso   1.000  N
  N46      1.0000 0.03950  0.57544  0.78350  Biso   1.000  N
  N47      1.0000 0.03950  0.92456  0.28350  Biso   1.000  N
  N48      1.0000 0.96050  0.42456  0.21650  Biso   1.000  N
  H29      1.0000 0.99200  0.10460  0.70630  Biso   1.000  H
  H30      1.0000 0.00800  0.60460  0.79370  Biso   1.000  H
  H31      1.0000 0.00800  0.89540  0.29370  Biso   1.000  H
  H32      1.0000 0.99200  0.39540  0.20630  Biso   1.000  H
  N49      1.0000 0.88970  0.97739  0.52110  Biso   1.000  N
  N50      1.0000 0.11030  0.47739  0.97890  Biso   1.000  N
  N51      1.0000 0.11030  0.02261  0.47890  Biso   1.000  N
  N52      1.0000 0.88970  0.52261  0.02110  Biso   1.000  N
  N53      1.0000 0.79160  0.95850  0.41160  Biso   1.000  N
  N54      1.0000 0.20840  0.45850  0.08840  Biso   1.000  N
  N55      1.0000 0.20840  0.04150  0.58840  Biso   1.000  N
  N56      1.0000 0.79160  0.54150  0.91160  Biso   1.000  N
  N57      1.0000 0.03770  0.98402  0.67780  Biso   1.000  N
  N58      1.0000 0.96230  0.48402  0.82220  Biso   1.000  N
  N59      1.0000 0.96230  0.01598  0.32220  Biso   1.000  N
  N60      1.0000 0.03770  0.51598  0.17780  Biso   1.000  N
  N61      1.0000 0.15040  0.98680  0.78490  Biso   1.000  N
  N62      1.0000 0.84960  0.48680  0.71510  Biso   1.000  N
  N63      1.0000 0.84960  0.01320  0.21510  Biso   1.000  N
  N64      1.0000 0.15040  0.51320  0.28490  Biso   1.000  N
  N65      1.0000 0.60490  0.03428  0.42590  Biso   1.000  N
  N66      1.0000 0.39510  0.53428  0.07410  Biso   1.000  N
  N67      1.0000 0.39510  0.96572  0.57410  Biso   1.000  N
  N68      1.0000 0.60490  0.46572  0.92590  Biso   1.000  N
  N69      1.0000 0.68700  0.09990  0.40610  Biso   1.000  N
  N70      1.0000 0.31300  0.59990  0.09390  Biso   1.000  N
  N71      1.0000 0.31300  0.90010  0.59390  Biso   1.000  N
  N72      1.0000 0.68700  0.40010  0.90610  Biso   1.000  N
  H33      1.0000 0.73060  0.12030  0.40860  Biso   1.000  H
  H34      1.0000 0.26940  0.62030  0.09140  Biso   1.000  H
  H35      1.0000 0.26940  0.87970  0.59140  Biso   1.000  H
  H36      1.0000 0.73060  0.37970  0.90860  Biso   1.000  H
  N73      1.0000 0.08730  0.05576  0.91990  Biso   1.000  N
  N74      1.0000 0.91270  0.55576  0.58010  Biso   1.000  N
  N75      1.0000 0.91270  0.94424  0.08010  Biso   1.000  N
  N76      1.0000 0.08730  0.44424  0.41990  Biso   1.000  N
  N77      1.0000 0.10600  0.12808  0.85140  Biso   1.000  N
  N78      1.0000 0.89400  0.62808  0.64860  Biso   1.000  N
  N79      1.0000 0.89400  0.87192  0.14860  Biso   1.000  N
  N80      1.0000 0.10600  0.37192  0.35140  Biso   1.000  N
  H37      1.0000 0.10350  0.14830  0.81210  Biso   1.000  H
  H38      1.0000 0.89650  0.64830  0.68790  Biso   1.000  H
  H39      1.0000 0.89650  0.85170  0.18790  Biso   1.000  H
  H40      1.0000 0.10350  0.35170  0.31210  Biso   1.000  H
  C1       1.0000 0.45940  0.85620  0.46110  Biso   1.000  C
  C2       1.0000 0.54060  0.35620  0.03890  Biso   1.000  C
  C3       1.0000 0.54060  0.14380  0.53890  Biso   1.000  C
  C4       1.0000 0.45940  0.64380  0.96110  Biso   1.000  C
  H41      1.0000 0.41000  0.87490  0.42930  Biso   1.000  H
  H42      1.0000 0.59000  0.37490  0.07070  Biso   1.000  H
  H43      1.0000 0.59000  0.12510  0.57070  Biso   1.000  H
  H44      1.0000 0.41000  0.62510  0.92930  Biso   1.000  H
  C5       1.0000 0.46420  0.79490  0.48780  Biso   1.000  C
  C6       1.0000 0.53580  0.29490  0.01220  Biso   1.000  C
  C7       1.0000 0.53580  0.20510  0.51220  Biso   1.000  C
  C8       1.0000 0.46420  0.70510  0.98780  Biso   1.000  C
  H45      1.0000 0.42040  0.76710  0.47550  Biso   1.000  H
  H46      1.0000 0.57960  0.26710  0.02450  Biso   1.000  H
  H47      1.0000 0.57960  0.23290  0.52450  Biso   1.000  H
  H48      1.0000 0.42040  0.73290  0.97550  Biso   1.000  H
  C9       1.0000 0.58480  0.84310  0.53100  Biso   1.000  C
  C10      1.0000 0.41520  0.34310  0.96900  Biso   1.000  C
  C11      1.0000 0.41520  0.15690  0.46900  Biso   1.000  C
  C12      1.0000 0.58480  0.65690  0.03100  Biso   1.000  C
  C13      1.0000 0.67830  0.85250  0.56990  Biso   1.000  C
  C14      1.0000 0.32170  0.35250  0.93010  Biso   1.000  C
  C15      1.0000 0.32170  0.14750  0.43010  Biso   1.000  C
  C16      1.0000 0.67830  0.64750  0.06990  Biso   1.000  C
  H49      1.0000 0.68810  0.89610  0.57420  Biso   1.000  H
  H50      1.0000 0.31190  0.39610  0.92580  Biso   1.000  H
  H51      1.0000 0.31190  0.10390  0.42580  Biso   1.000  H
  H52      1.0000 0.68810  0.60390  0.07420  Biso   1.000  H
  C17      1.0000 0.73150  0.82690  0.52850  Biso   1.000  C
  C18      1.0000 0.26850  0.32690  0.97150  Biso   1.000  C
  C19      1.0000 0.26850  0.17310  0.47150  Biso   1.000  C
  C20      1.0000 0.73150  0.67310  0.02850  Biso   1.000  C
  C21      1.0000 0.78680  0.79910  0.44390  Biso   1.000  C
  C22      1.0000 0.21320  0.29910  0.05610  Biso   1.000  C
  C23      1.0000 0.21320  0.20090  0.55610  Biso   1.000  C
  C24      1.0000 0.78680  0.70090  0.94390  Biso   1.000  C
  H53      1.0000 0.79350  0.78980  0.39890  Biso   1.000  H
  H54      1.0000 0.20650  0.28980  0.10110  Biso   1.000  H
  H55      1.0000 0.20650  0.21020  0.60110  Biso   1.000  H
  H56      1.0000 0.79350  0.71020  0.89890  Biso   1.000  H
  C25      1.0000 0.84620  0.79970  0.51130  Biso   1.000  C
  C26      1.0000 0.15380  0.29970  0.98870  Biso   1.000  C
  C27      1.0000 0.15380  0.20030  0.48870  Biso   1.000  C
  C28      1.0000 0.84620  0.70030  0.01130  Biso   1.000  C
  H57      1.0000 0.90230  0.78920  0.52270  Biso   1.000  H
  H58      1.0000 0.09770  0.28920  0.97730  Biso   1.000  H
  H59      1.0000 0.09770  0.21080  0.47730  Biso   1.000  H
  H60      1.0000 0.90230  0.71080  0.02270  Biso   1.000  H
  C29      1.0000 0.68280  0.85180  0.70180  Biso   1.000  C
  C30      1.0000 0.31720  0.35180  0.79820  Biso   1.000  C
  C31      1.0000 0.31720  0.14820  0.29820  Biso   1.000  C
  C32      1.0000 0.68280  0.64820  0.20180  Biso   1.000  C
  H61      1.0000 0.62350  0.84130  0.68450  Biso   1.000  H
  H62      1.0000 0.37650  0.34130  0.81550  Biso   1.000  H
  H63      1.0000 0.37650  0.15870  0.31550  Biso   1.000  H
  H64      1.0000 0.62350  0.65870  0.18450  Biso   1.000  H
  H65      1.0000 0.68730  0.89530  0.70290  Biso   1.000  H
  H66      1.0000 0.31270  0.39530  0.79710  Biso   1.000  H
  H67      1.0000 0.31270  0.10470  0.29710  Biso   1.000  H
  H68      1.0000 0.68730  0.60470  0.20290  Biso   1.000  H
  C33      1.0000 0.73080  0.82600  0.78300  Biso   1.000  C
  C34      1.0000 0.26920  0.32600  0.71700  Biso   1.000  C
  C35      1.0000 0.26920  0.17400  0.21700  Biso   1.000  C
  C36      1.0000 0.73080  0.67400  0.28300  Biso   1.000  C
  H69      1.0000 0.69740  0.83390  0.81330  Biso   1.000  H
  H70      1.0000 0.30260  0.33390  0.68670  Biso   1.000  H
  H71      1.0000 0.30260  0.16610  0.18670  Biso   1.000  H
  H72      1.0000 0.69740  0.66610  0.31330  Biso   1.000  H
  H73      1.0000 0.73520  0.78270  0.77930  Biso   1.000  H
  H74      1.0000 0.26480  0.28270  0.72070  Biso   1.000  H
  H75      1.0000 0.26480  0.21730  0.22070  Biso   1.000  H
  H76      1.0000 0.73520  0.71730  0.27930  Biso   1.000  H
  C37      1.0000 0.81910  0.85160  0.82460  Biso   1.000  C
  C38      1.0000 0.18090  0.35160  0.67540  Biso   1.000  C
  C39      1.0000 0.18090  0.14840  0.17540  Biso   1.000  C
  C40      1.0000 0.81910  0.64840  0.32460  Biso   1.000  C
  H77      1.0000 0.81710  0.89510  0.82110  Biso   1.000  H
  H78      1.0000 0.18290  0.39510  0.67890  Biso   1.000  H
  H79      1.0000 0.18290  0.10490  0.17890  Biso   1.000  H
  H80      1.0000 0.81710  0.60490  0.32110  Biso   1.000  H
  H81      1.0000 0.83900  0.84070  0.87780  Biso   1.000  H
  H82      1.0000 0.16100  0.34070  0.62220  Biso   1.000  H
  H83      1.0000 0.16100  0.15930  0.12220  Biso   1.000  H
  H84      1.0000 0.83900  0.65930  0.37780  Biso   1.000  H
  C41      1.0000 0.96440  0.85398  0.82730  Biso   1.000  C
  C42      1.0000 0.03560  0.35398  0.67270  Biso   1.000  C
  C43      1.0000 0.03560  0.14602  0.17270  Biso   1.000  C
  C44      1.0000 0.96440  0.64602  0.32730  Biso   1.000  C
  H85      1.0000 0.95880  0.89760  0.81900  Biso   1.000  H
  H86      1.0000 0.04120  0.39760  0.68100  Biso   1.000  H
  H87      1.0000 0.04120  0.10240  0.18100  Biso   1.000  H
  H88      1.0000 0.95880  0.60240  0.31900  Biso   1.000  H
  C45      1.0000 0.01440  0.82960  0.78230  Biso   1.000  C
  C46      1.0000 0.98560  0.32960  0.71770  Biso   1.000  C
  C47      1.0000 0.98560  0.17040  0.21770  Biso   1.000  C
  C48      1.0000 0.01440  0.67040  0.28230  Biso   1.000  C
  C49      1.0000 0.02560  0.79710  0.67660  Biso   1.000  C
  C50      1.0000 0.97440  0.29710  0.82340  Biso   1.000  C
  C51      1.0000 0.97440  0.20290  0.32340  Biso   1.000  C
  C52      1.0000 0.02560  0.70290  0.17660  Biso   1.000  C
  H89      1.0000 0.01160  0.78650  0.62600  Biso   1.000  H
  H90      1.0000 0.98840  0.28650  0.87400  Biso   1.000  H
  H91      1.0000 0.98840  0.21350  0.37400  Biso   1.000  H
  H92      1.0000 0.01160  0.71350  0.12600  Biso   1.000  H
  C53      1.0000 0.10190  0.79440  0.73270  Biso   1.000  C
  C54      1.0000 0.89810  0.29440  0.76730  Biso   1.000  C
  C55      1.0000 0.89810  0.20560  0.26730  Biso   1.000  C
  C56      1.0000 0.10190  0.70560  0.23270  Biso   1.000  C
  H93      1.0000 0.15110  0.78070  0.72820  Biso   1.000  H
  H94      1.0000 0.84890  0.28070  0.77180  Biso   1.000  H
  H95      1.0000 0.84890  0.21930  0.27180  Biso   1.000  H
  H96      1.0000 0.15110  0.71930  0.22820  Biso   1.000  H
  C57      1.0000 0.00750  0.84398  0.90910  Biso   1.000  C
  C58      1.0000 0.99250  0.34398  0.59090  Biso   1.000  C
  C59      1.0000 0.99250  0.15602  0.09090  Biso   1.000  C
  C60      1.0000 0.00750  0.65602  0.40910  Biso   1.000  C
  C61      1.0000 0.05820  0.79780  0.01820  Biso   1.000  C
  C62      1.0000 0.94180  0.29780  0.48180  Biso   1.000  C
  C63      1.0000 0.94180  0.20220  0.98180  Biso   1.000  C
  C64      1.0000 0.05820  0.70220  0.51820  Biso   1.000  C
  H97      1.0000 0.07250  0.76850  0.05580  Biso   1.000  H
  H98      1.0000 0.92750  0.26850  0.44420  Biso   1.000  H
  H99      1.0000 0.92750  0.23150  0.94420  Biso   1.000  H
  H100     1.0000 0.07250  0.73150  0.55580  Biso   1.000  H
  C65      1.0000 0.07240  0.85758  0.02930  Biso   1.000  C
  C66      1.0000 0.92760  0.35758  0.47070  Biso   1.000  C
  C67      1.0000 0.92760  0.14242  0.97070  Biso   1.000  C
  C68      1.0000 0.07240  0.64242  0.52930  Biso   1.000  C
  H101     1.0000 0.10080  0.87570  0.07610  Biso   1.000  H
  H102     1.0000 0.89920  0.37570  0.42390  Biso   1.000  H
  H103     1.0000 0.89920  0.12430  0.92390  Biso   1.000  H
  H104     1.0000 0.10080  0.62430  0.57610  Biso   1.000  H
  C69      1.0000 0.55380  0.06700  0.36940  Biso   1.000  C
  C70      1.0000 0.44620  0.56700  0.13060  Biso   1.000  C
  C71      1.0000 0.44620  0.93300  0.63060  Biso   1.000  C
  C72      1.0000 0.55380  0.43300  0.86940  Biso   1.000  C
  H105     1.0000 0.49630  0.06120  0.34260  Biso   1.000  H
  H106     1.0000 0.50370  0.56120  0.15740  Biso   1.000  H
  H107     1.0000 0.50370  0.93880  0.65740  Biso   1.000  H
  H108     1.0000 0.49630  0.43880  0.84260  Biso   1.000  H
  C73      1.0000 0.59970  0.10810  0.35910  Biso   1.000  C
  C74      1.0000 0.40030  0.60810  0.14090  Biso   1.000  C
  C75      1.0000 0.40030  0.89190  0.64090  Biso   1.000  C
  C76      1.0000 0.59970  0.39190  0.85910  Biso   1.000  C
  H109     1.0000 0.57920  0.13980  0.32520  Biso   1.000  H
  H110     1.0000 0.42080  0.63980  0.17480  Biso   1.000  H
  H111     1.0000 0.42080  0.86020  0.67480  Biso   1.000  H
  H112     1.0000 0.57920  0.36020  0.82520  Biso   1.000  H
  C77      1.0000 0.68100  0.05000  0.44620  Biso   1.000  C
  C78      1.0000 0.31900  0.55000  0.05380  Biso   1.000  C
  C79      1.0000 0.31900  0.95000  0.55380  Biso   1.000  C
  C80      1.0000 0.68100  0.45000  0.94620  Biso   1.000  C
  C81      1.0000 0.75560  0.02450  0.51030  Biso   1.000  C
  C82      1.0000 0.24440  0.52450  0.98970  Biso   1.000  C
  C83      1.0000 0.24440  0.97550  0.48970  Biso   1.000  C
  C84      1.0000 0.75560  0.47550  0.01030  Biso   1.000  C
  H113     1.0000 0.73350  0.99830  0.53970  Biso   1.000  H
  H114     1.0000 0.26650  0.49830  0.96030  Biso   1.000  H
  H115     1.0000 0.26650  0.00170  0.46030  Biso   1.000  H
  H116     1.0000 0.73350  0.50170  0.03970  Biso   1.000  H
  C85      1.0000 0.81090  0.98520  0.48070  Biso   1.000  C
  C86      1.0000 0.18910  0.48520  0.01930  Biso   1.000  C
  C87      1.0000 0.18910  0.01480  0.51930  Biso   1.000  C
  C88      1.0000 0.81090  0.51480  0.98070  Biso   1.000  C
  C89      1.0000 0.86580  0.92840  0.41460  Biso   1.000  C
  C90      1.0000 0.13420  0.42840  0.08540  Biso   1.000  C
  C91      1.0000 0.13420  0.07160  0.58540  Biso   1.000  C
  C92      1.0000 0.86580  0.57160  0.91460  Biso   1.000  C
  H117     1.0000 0.87230  0.90580  0.37610  Biso   1.000  H
  H118     1.0000 0.12770  0.40580  0.12390  Biso   1.000  H
  H119     1.0000 0.12770  0.09420  0.62390  Biso   1.000  H
  H120     1.0000 0.87230  0.59420  0.87610  Biso   1.000  H
  C93      1.0000 0.92410  0.93870  0.48320  Biso   1.000  C
  C94      1.0000 0.07590  0.43870  0.01680  Biso   1.000  C
  C95      1.0000 0.07590  0.06130  0.51680  Biso   1.000  C
  C96      1.0000 0.92410  0.56130  0.98320  Biso   1.000  C
  H121     1.0000 0.97850  0.92290  0.50250  Biso   1.000  H
  H122     1.0000 0.02150  0.42290  0.99750  Biso   1.000  H
  H123     1.0000 0.02150  0.07710  0.49750  Biso   1.000  H
  H124     1.0000 0.97850  0.57710  0.00250  Biso   1.000  H
  C97      1.0000 0.77140  0.09990  0.60480  Biso   1.000  C
  C98      1.0000 0.22860  0.59990  0.89520  Biso   1.000  C
  C99      1.0000 0.22860  0.90010  0.39520  Biso   1.000  C
  C100     1.0000 0.77140  0.40010  0.10480  Biso   1.000  C
  H125     1.0000 0.74420  0.07220  0.62770  Biso   1.000  H
  H126     1.0000 0.25580  0.57220  0.87230  Biso   1.000  H
  H127     1.0000 0.25580  0.92780  0.37230  Biso   1.000  H
  H128     1.0000 0.74420  0.42780  0.12770  Biso   1.000  H
  H129     1.0000 0.72820  0.12530  0.56950  Biso   1.000  H
  H130     1.0000 0.27180  0.62530  0.93050  Biso   1.000  H
  H131     1.0000 0.27180  0.87470  0.43050  Biso   1.000  H
  H132     1.0000 0.72820  0.37470  0.06950  Biso   1.000  H
  C101     1.0000 0.83720  0.14030  0.66890  Biso   1.000  C
  C102     1.0000 0.16280  0.64030  0.83110  Biso   1.000  C
  C103     1.0000 0.16280  0.85970  0.33110  Biso   1.000  C
  C104     1.0000 0.83720  0.35970  0.16890  Biso   1.000  C
  H133     1.0000 0.87120  0.16210  0.64660  Biso   1.000  H
  H134     1.0000 0.12880  0.66210  0.85340  Biso   1.000  H
  H135     1.0000 0.12880  0.83790  0.35340  Biso   1.000  H
  H136     1.0000 0.87120  0.33790  0.14660  Biso   1.000  H
  H137     1.0000 0.80610  0.16980  0.68540  Biso   1.000  H
  H138     1.0000 0.19390  0.66980  0.81460  Biso   1.000  H
  H139     1.0000 0.19390  0.83020  0.31460  Biso   1.000  H
  H140     1.0000 0.80610  0.33020  0.18540  Biso   1.000  H
  C105     1.0000 0.89500  0.10740  0.73680  Biso   1.000  C
  C106     1.0000 0.10500  0.60740  0.76320  Biso   1.000  C
  C107     1.0000 0.10500  0.89260  0.26320  Biso   1.000  C
  C108     1.0000 0.89500  0.39260  0.23680  Biso   1.000  C
  H141     1.0000 0.86330  0.07850  0.75360  Biso   1.000  H
  H142     1.0000 0.13670  0.57850  0.74640  Biso   1.000  H
  H143     1.0000 0.13670  0.92150  0.24640  Biso   1.000  H
  H144     1.0000 0.86330  0.42150  0.25360  Biso   1.000  H
  H145     1.0000 0.92200  0.13550  0.77790  Biso   1.000  H
  H146     1.0000 0.07800  0.63550  0.72210  Biso   1.000  H
  H147     1.0000 0.07800  0.86450  0.22210  Biso   1.000  H
  H148     1.0000 0.92200  0.36450  0.27790  Biso   1.000  H
  C109     1.0000 0.01790  0.04123  0.77960  Biso   1.000  C
  C110     1.0000 0.98210  0.54123  0.72040  Biso   1.000  C
  C111     1.0000 0.98210  0.95877  0.22040  Biso   1.000  C
  C112     1.0000 0.01790  0.45877  0.27960  Biso   1.000  C
  H149     1.0000 0.98290  0.01260  0.79390  Biso   1.000  H
  H150     1.0000 0.01710  0.51260  0.70610  Biso   1.000  H
  H151     1.0000 0.01710  0.98740  0.20610  Biso   1.000  H
  H152     1.0000 0.98290  0.48740  0.29390  Biso   1.000  H
  C113     1.0000 0.07180  0.00380  0.74910  Biso   1.000  C
  C114     1.0000 0.92820  0.50380  0.75090  Biso   1.000  C
  C115     1.0000 0.92820  0.99620  0.25090  Biso   1.000  C
  C116     1.0000 0.07180  0.49620  0.24910  Biso   1.000  C
  C117     1.0000 0.09720  0.94760  0.66770  Biso   1.000  C
  C118     1.0000 0.90280  0.44760  0.83230  Biso   1.000  C
  C119     1.0000 0.90280  0.05240  0.33230  Biso   1.000  C
  C120     1.0000 0.09720  0.55240  0.16770  Biso   1.000  C
  H153     1.0000 0.09070  0.92600  0.62410  Biso   1.000  H
  H154     1.0000 0.90930  0.42600  0.87590  Biso   1.000  H
  H155     1.0000 0.90930  0.07400  0.37590  Biso   1.000  H
  H156     1.0000 0.09070  0.57400  0.12410  Biso   1.000  H
  C121     1.0000 0.16690  0.94880  0.73220  Biso   1.000  C
  C122     1.0000 0.83310  0.44880  0.76780  Biso   1.000  C
  C123     1.0000 0.83310  0.05120  0.26780  Biso   1.000  C
  C124     1.0000 0.16690  0.55120  0.23220  Biso   1.000  C
  H157     1.0000 0.21700  0.92840  0.74080  Biso   1.000  H
  H158     1.0000 0.78300  0.42840  0.75920  Biso   1.000  H
  H159     1.0000 0.78300  0.07160  0.25920  Biso   1.000  H
  H160     1.0000 0.21700  0.57160  0.24080  Biso   1.000  H
  C125     1.0000 0.06860  0.07492  0.85080  Biso   1.000  C
  C126     1.0000 0.93140  0.57492  0.64920  Biso   1.000  C
  C127     1.0000 0.93140  0.92508  0.14920  Biso   1.000  C
  C128     1.0000 0.06860  0.42508  0.35080  Biso   1.000  C
  C129     1.0000 0.13850  0.09690  0.96760  Biso   1.000  C
  C130     1.0000 0.86150  0.59690  0.53240  Biso   1.000  C
  C131     1.0000 0.86150  0.90310  0.03240  Biso   1.000  C
  C132     1.0000 0.13850  0.40310  0.46760  Biso   1.000  C
  H161     1.0000 0.16270  0.09350  0.02010  Biso   1.000  H
  H162     1.0000 0.83730  0.59350  0.47990  Biso   1.000  H
  H163     1.0000 0.83730  0.90650  0.97990  Biso   1.000  H
  H164     1.0000 0.16270  0.40650  0.52010  Biso   1.000  H
  C133     1.0000 0.14910  0.14470  0.92600  Biso   1.000  C
  C134     1.0000 0.85090  0.64470  0.57400  Biso   1.000  C
  C135     1.0000 0.85090  0.85530  0.07400  Biso   1.000  C
  C136     1.0000 0.14910  0.35530  0.42600  Biso   1.000  C
  H165     1.0000 0.17870  0.18020  0.94420  Biso   1.000  H
  H166     1.0000 0.82130  0.68020  0.55580  Biso   1.000  H
  H167     1.0000 0.82130  0.81980  0.05580  Biso   1.000  H
  H168     1.0000 0.17870  0.31980  0.44420  Biso   1.000  H
  O9       1.0000 0.67558  0.68528  0.61069  Biso   1.000  O
  O10      1.0000 0.32442  0.18528  0.88931  Biso   1.000  O
  O11      1.0000 0.32442  0.31472  0.38931  Biso   1.000  O
  O12      1.0000 0.67558  0.81472  0.11069  Biso   1.000  O
  O13      1.0000 0.23410  0.82720  0.93500  Biso   1.000  O
  O14      1.0000 0.76590  0.32720  0.56500  Biso   1.000  O
  O15      1.0000 0.76590  0.17280  0.06500  Biso   1.000  O
  O16      1.0000 0.23410  0.67280  0.43500  Biso   1.000  O
  O17      1.0000 0.30290  0.04070  0.89890  Biso   1.000  O
  O18      1.0000 0.69710  0.54070  0.60110  Biso   1.000  O
  O19      1.0000 0.69710  0.95930  0.10110  Biso   1.000  O
  O20      1.0000 0.30290  0.45930  0.39890  Biso   1.000  O
  O21      1.0000 0.64840  0.95960  0.27820  Biso   1.000  O
  O22      1.0000 0.35160  0.45960  0.22180  Biso   1.000  O
  O23      1.0000 0.35160  0.04040  0.72180  Biso   1.000  O
  O24      1.0000 0.64840  0.54040  0.77820  Biso   1.000  O
  O25      1.0000 0.55080  0.77770  0.33190  Biso   1.000  O
  O26      1.0000 0.44920  0.27770  0.16810  Biso   1.000  O
  O27      1.0000 0.44920  0.22230  0.66810  Biso   1.000  O
  O28      1.0000 0.55080  0.72230  0.83190  Biso   1.000  O
