data_image0
_cell_length_a       21.5706
_cell_length_b       7.0919
_cell_length_c       17.1177
_cell_angle_alpha    90
_cell_angle_beta     93.572
_cell_angle_gamma    90

_symmetry_space_group_name_H-M    "P 1"
_symmetry_int_tables_number       1

loop_
  _symmetry_equiv_pos_as_xyz
  'x, y, z'

loop_
  _atom_site_label
  _atom_site_occupancy
  _atom_site_fract_x
  _atom_site_fract_y
  _atom_site_fract_z
  _atom_site_thermal_displace_type
  _atom_site_B_iso_or_equiv
  _atom_site_type_symbol
  Cu1      1.0000 0.50011  0.24858  0.16384  Biso   1.000  Cu
  Cu2      1.0000 0.00011  0.74858  0.16384  Biso   1.000  Cu
  Cu3      1.0000 0.49989  0.24858  0.33616  Biso   1.000  Cu
  Cu4      1.0000 0.99989  0.74858  0.33616  Biso   1.000  Cu
  Cu5      1.0000 0.49989  0.75142  0.83616  Biso   1.000  Cu
  Cu6      1.0000 0.99989  0.25142  0.83616  Biso   1.000  Cu
  Cu7      1.0000 0.50011  0.75142  0.66384  Biso   1.000  Cu
  Cu8      1.0000 0.00011  0.25142  0.66384  Biso   1.000  Cu
  Si1      1.0000 0.50000  0.75090  0.25000  Biso   1.000  Si
  Si2      1.0000 0.00000  0.25090  0.25000  Biso   1.000  Si
  Si3      1.0000 0.50000  0.24910  0.75000  Biso   1.000  Si
  Si4      1.0000 0.00000  0.74910  0.75000  Biso   1.000  Si
  F1       1.0000 0.49832  0.91670  0.17870  Biso   1.000  F
  F2       1.0000 0.99832  0.41670  0.17870  Biso   1.000  F
  F3       1.0000 0.50168  0.91670  0.32130  Biso   1.000  F
  F4       1.0000 0.00168  0.41670  0.32130  Biso   1.000  F
  F5       1.0000 0.50168  0.08330  0.82130  Biso   1.000  F
  F6       1.0000 0.00168  0.58330  0.82130  Biso   1.000  F
  F7       1.0000 0.49832  0.08330  0.67870  Biso   1.000  F
  F8       1.0000 0.99832  0.58330  0.67870  Biso   1.000  F
  F9       1.0000 0.49828  0.58480  0.17909  Biso   1.000  F
  F10      1.0000 0.99828  0.08480  0.17909  Biso   1.000  F
  F11      1.0000 0.50172  0.58480  0.32091  Biso   1.000  F
  F12      1.0000 0.00172  0.08480  0.32091  Biso   1.000  F
  F13      1.0000 0.50172  0.41520  0.82091  Biso   1.000  F
  F14      1.0000 0.00172  0.91520  0.82091  Biso   1.000  F
  F15      1.0000 0.49828  0.41520  0.67909  Biso   1.000  F
  F16      1.0000 0.99828  0.91520  0.67909  Biso   1.000  F
  F17      1.0000 0.44236  0.24960  0.24534  Biso   1.000  F
  F18      1.0000 0.94236  0.74960  0.24534  Biso   1.000  F
  F19      1.0000 0.55764  0.24960  0.25466  Biso   1.000  F
  F20      1.0000 0.05764  0.74960  0.25466  Biso   1.000  F
  F21      1.0000 0.55764  0.75040  0.75466  Biso   1.000  F
  F22      1.0000 0.05764  0.25040  0.75466  Biso   1.000  F
  F23      1.0000 0.44236  0.75040  0.74534  Biso   1.000  F
  F24      1.0000 0.94236  0.25040  0.74534  Biso   1.000  F
  F25      1.0000 0.42273  0.75090  0.24727  Biso   1.000  F
  F26      1.0000 0.92273  0.25090  0.24727  Biso   1.000  F
  F27      1.0000 0.57727  0.75090  0.25273  Biso   1.000  F
  F28      1.0000 0.07727  0.25090  0.25273  Biso   1.000  F
  F29      1.0000 0.57727  0.24910  0.75273  Biso   1.000  F
  F30      1.0000 0.07727  0.74910  0.75273  Biso   1.000  F
  F31      1.0000 0.42273  0.24910  0.74727  Biso   1.000  F
  F32      1.0000 0.92273  0.74910  0.74727  Biso   1.000  F
  N1       1.0000 0.56658  0.27900  0.08995  Biso   1.000  N
  N2       1.0000 0.06658  0.77900  0.08995  Biso   1.000  N
  N3       1.0000 0.43342  0.27900  0.41005  Biso   1.000  N
  N4       1.0000 0.93342  0.77900  0.41005  Biso   1.000  N
  N5       1.0000 0.43342  0.72100  0.91005  Biso   1.000  N
  N6       1.0000 0.93342  0.22100  0.91005  Biso   1.000  N
  N7       1.0000 0.56658  0.72100  0.58995  Biso   1.000  N
  N8       1.0000 0.06658  0.22100  0.58995  Biso   1.000  N
  N9       1.0000 0.43387  0.21570  0.07936  Biso   1.000  N
  N10      1.0000 0.93387  0.71570  0.07936  Biso   1.000  N
  N11      1.0000 0.56613  0.21570  0.42064  Biso   1.000  N
  N12      1.0000 0.06613  0.71570  0.42064  Biso   1.000  N
  N13      1.0000 0.56613  0.78430  0.92064  Biso   1.000  N
  N14      1.0000 0.06613  0.28430  0.92064  Biso   1.000  N
  N15      1.0000 0.43387  0.78430  0.57936  Biso   1.000  N
  N16      1.0000 0.93387  0.28430  0.57936  Biso   1.000  N
  N17      1.0000 0.49966  0.26130  0.97557  Biso   1.000  N
  N18      1.0000 0.99966  0.76130  0.97557  Biso   1.000  N
  N19      1.0000 0.50034  0.26130  0.52443  Biso   1.000  N
  N20      1.0000 0.00034  0.76130  0.52443  Biso   1.000  N
  N21      1.0000 0.50034  0.73870  0.02443  Biso   1.000  N
  N22      1.0000 0.00034  0.23870  0.02443  Biso   1.000  N
  N23      1.0000 0.49966  0.73870  0.47557  Biso   1.000  N
  N24      1.0000 0.99966  0.23870  0.47557  Biso   1.000  N
  H1       1.0000 0.49910  0.27330  0.92440  Biso   1.000  H
  H2       1.0000 0.99910  0.77330  0.92440  Biso   1.000  H
  H3       1.0000 0.50090  0.27330  0.57560  Biso   1.000  H
  H4       1.0000 0.00090  0.77330  0.57560  Biso   1.000  H
  H5       1.0000 0.50090  0.72670  0.07560  Biso   1.000  H
  H6       1.0000 0.00090  0.22670  0.07560  Biso   1.000  H
  H7       1.0000 0.49910  0.72670  0.42440  Biso   1.000  H
  H8       1.0000 0.99910  0.22670  0.42440  Biso   1.000  H
  O1       1.0000 0.30285  0.77810  0.19319  Biso   1.000  O
  O2       1.0000 0.80285  0.27810  0.19319  Biso   1.000  O
  O3       1.0000 0.69715  0.77810  0.30681  Biso   1.000  O
  O4       1.0000 0.19715  0.27810  0.30681  Biso   1.000  O
  O5       1.0000 0.69715  0.22190  0.80681  Biso   1.000  O
  O6       1.0000 0.19715  0.72190  0.80681  Biso   1.000  O
  O7       1.0000 0.30285  0.22190  0.69319  Biso   1.000  O
  O8       1.0000 0.80285  0.72190  0.69319  Biso   1.000  O
  H9       1.0000 0.33980  0.79880  0.20930  Biso   1.000  H
  H10      1.0000 0.83980  0.29880  0.20930  Biso   1.000  H
  H11      1.0000 0.66020  0.79880  0.29070  Biso   1.000  H
  H12      1.0000 0.16020  0.29880  0.29070  Biso   1.000  H
  H13      1.0000 0.66020  0.20120  0.79070  Biso   1.000  H
  H14      1.0000 0.16020  0.70120  0.79070  Biso   1.000  H
  H15      1.0000 0.33980  0.20120  0.70930  Biso   1.000  H
  H16      1.0000 0.83980  0.70120  0.70930  Biso   1.000  H
  C1       1.0000 0.37635  0.17500  0.10150  Biso   1.000  C
  C2       1.0000 0.87635  0.67500  0.10150  Biso   1.000  C
  C3       1.0000 0.62365  0.17500  0.39850  Biso   1.000  C
  C4       1.0000 0.12365  0.67500  0.39850  Biso   1.000  C
  C5       1.0000 0.62365  0.82500  0.89850  Biso   1.000  C
  C6       1.0000 0.12365  0.32500  0.89850  Biso   1.000  C
  C7       1.0000 0.37635  0.82500  0.60150  Biso   1.000  C
  C8       1.0000 0.87635  0.32500  0.60150  Biso   1.000  C
  H17      1.0000 0.37010  0.16730  0.15590  Biso   1.000  H
  H18      1.0000 0.87010  0.66730  0.15590  Biso   1.000  H
  H19      1.0000 0.62990  0.16730  0.34410  Biso   1.000  H
  H20      1.0000 0.12990  0.66730  0.34410  Biso   1.000  H
  H21      1.0000 0.62990  0.83270  0.84410  Biso   1.000  H
  H22      1.0000 0.12990  0.33270  0.84410  Biso   1.000  H
  H23      1.0000 0.37010  0.83270  0.65590  Biso   1.000  H
  H24      1.0000 0.87010  0.33270  0.65590  Biso   1.000  H
  C9       1.0000 0.66557  0.34000  0.99670  Biso   1.000  C
  C10      1.0000 0.16557  0.84000  0.99670  Biso   1.000  C
  C11      1.0000 0.33443  0.34000  0.50330  Biso   1.000  C
  C12      1.0000 0.83443  0.84000  0.50330  Biso   1.000  C
  C13      1.0000 0.33443  0.66000  0.00330  Biso   1.000  C
  C14      1.0000 0.83443  0.16000  0.00330  Biso   1.000  C
  C15      1.0000 0.66557  0.66000  0.49670  Biso   1.000  C
  C16      1.0000 0.16557  0.16000  0.49670  Biso   1.000  C
  H25      1.0000 0.69940  0.36050  0.96470  Biso   1.000  H
  H26      1.0000 0.19940  0.86050  0.96470  Biso   1.000  H
  H27      1.0000 0.30060  0.36050  0.53530  Biso   1.000  H
  H28      1.0000 0.80060  0.86050  0.53530  Biso   1.000  H
  H29      1.0000 0.30060  0.63950  0.03530  Biso   1.000  H
  H30      1.0000 0.80060  0.13950  0.03530  Biso   1.000  H
  H31      1.0000 0.69940  0.63950  0.46470  Biso   1.000  H
  H32      1.0000 0.19940  0.13950  0.46470  Biso   1.000  H
  C17      1.0000 0.44235  0.22330  0.00224  Biso   1.000  C
  C18      1.0000 0.94235  0.72330  0.00224  Biso   1.000  C
  C19      1.0000 0.55765  0.22330  0.49776  Biso   1.000  C
  C20      1.0000 0.05765  0.72330  0.49776  Biso   1.000  C
  C21      1.0000 0.55765  0.77670  0.99776  Biso   1.000  C
  C22      1.0000 0.05765  0.27670  0.99776  Biso   1.000  C
  C23      1.0000 0.44235  0.77670  0.50224  Biso   1.000  C
  C24      1.0000 0.94235  0.27670  0.50224  Biso   1.000  C
  C25      1.0000 0.39301  0.19290  0.94593  Biso   1.000  C
  C26      1.0000 0.89301  0.69290  0.94593  Biso   1.000  C
  C27      1.0000 0.60699  0.19290  0.55407  Biso   1.000  C
  C28      1.0000 0.10699  0.69290  0.55407  Biso   1.000  C
  C29      1.0000 0.60699  0.80710  0.05407  Biso   1.000  C
  C30      1.0000 0.10699  0.30710  0.05407  Biso   1.000  C
  C31      1.0000 0.39301  0.80710  0.44593  Biso   1.000  C
  C32      1.0000 0.89301  0.30710  0.44593  Biso   1.000  C
  H33      1.0000 0.39980  0.19960  0.89170  Biso   1.000  H
  H34      1.0000 0.89980  0.69960  0.89170  Biso   1.000  H
  H35      1.0000 0.60020  0.19960  0.60830  Biso   1.000  H
  H36      1.0000 0.10020  0.69960  0.60830  Biso   1.000  H
  H37      1.0000 0.60020  0.80040  0.10830  Biso   1.000  H
  H38      1.0000 0.10020  0.30040  0.10830  Biso   1.000  H
  H39      1.0000 0.39980  0.80040  0.39170  Biso   1.000  H
  H40      1.0000 0.89980  0.30040  0.39170  Biso   1.000  H
  C33      1.0000 0.55780  0.28450  0.01183  Biso   1.000  C
  C34      1.0000 0.05780  0.78450  0.01183  Biso   1.000  C
  C35      1.0000 0.44220  0.28450  0.48817  Biso   1.000  C
  C36      1.0000 0.94220  0.78450  0.48817  Biso   1.000  C
  C37      1.0000 0.44220  0.71550  0.98817  Biso   1.000  C
  C38      1.0000 0.94220  0.21550  0.98817  Biso   1.000  C
  C39      1.0000 0.55780  0.71550  0.51183  Biso   1.000  C
  C40      1.0000 0.05780  0.21550  0.51183  Biso   1.000  C
  C41      1.0000 0.60682  0.31670  0.96350  Biso   1.000  C
  C42      1.0000 0.10682  0.81670  0.96350  Biso   1.000  C
  C43      1.0000 0.39318  0.31670  0.53650  Biso   1.000  C
  C44      1.0000 0.89318  0.81670  0.53650  Biso   1.000  C
  C45      1.0000 0.39318  0.68330  0.03650  Biso   1.000  C
  C46      1.0000 0.89318  0.18330  0.03650  Biso   1.000  C
  C47      1.0000 0.60682  0.68330  0.46350  Biso   1.000  C
  C48      1.0000 0.10682  0.18330  0.46350  Biso   1.000  C
  H41      1.0000 0.59930  0.32230  0.90820  Biso   1.000  H
  H42      1.0000 0.09930  0.82230  0.90820  Biso   1.000  H
  H43      1.0000 0.40070  0.32230  0.59180  Biso   1.000  H
  H44      1.0000 0.90070  0.82230  0.59180  Biso   1.000  H
  H45      1.0000 0.40070  0.67770  0.09180  Biso   1.000  H
  H46      1.0000 0.90070  0.17770  0.09180  Biso   1.000  H
  H47      1.0000 0.59930  0.67770  0.40820  Biso   1.000  H
  H48      1.0000 0.09930  0.17770  0.40820  Biso   1.000  H
  C49      1.0000 0.62509  0.30380  0.12140  Biso   1.000  C
  C50      1.0000 0.12509  0.80380  0.12140  Biso   1.000  C
  C51      1.0000 0.37491  0.30380  0.37860  Biso   1.000  C
  C52      1.0000 0.87491  0.80380  0.37860  Biso   1.000  C
  C53      1.0000 0.37491  0.69620  0.87860  Biso   1.000  C
  C54      1.0000 0.87491  0.19620  0.87860  Biso   1.000  C
  C55      1.0000 0.62509  0.69620  0.62140  Biso   1.000  C
  C56      1.0000 0.12509  0.19620  0.62140  Biso   1.000  C
  H49      1.0000 0.63180  0.30060  0.17680  Biso   1.000  H
  H50      1.0000 0.13180  0.80060  0.17680  Biso   1.000  H
  H51      1.0000 0.36820  0.30060  0.32320  Biso   1.000  H
  H52      1.0000 0.86820  0.80060  0.32320  Biso   1.000  H
  H53      1.0000 0.36820  0.69940  0.82320  Biso   1.000  H
  H54      1.0000 0.86820  0.19940  0.82320  Biso   1.000  H
  H55      1.0000 0.63180  0.69940  0.67680  Biso   1.000  H
  H56      1.0000 0.13180  0.19940  0.67680  Biso   1.000  H
  C57      1.0000 0.33570  0.15390  0.96980  Biso   1.000  C
  C58      1.0000 0.83570  0.65390  0.96980  Biso   1.000  C
  C59      1.0000 0.66430  0.15390  0.53020  Biso   1.000  C
  C60      1.0000 0.16430  0.65390  0.53020  Biso   1.000  C
  C61      1.0000 0.66430  0.84610  0.03020  Biso   1.000  C
  C62      1.0000 0.16430  0.34610  0.03020  Biso   1.000  C
  C63      1.0000 0.33570  0.84610  0.46980  Biso   1.000  C
  C64      1.0000 0.83570  0.34610  0.46980  Biso   1.000  C
  H57      1.0000 0.30200  0.13330  0.93240  Biso   1.000  H
  H58      1.0000 0.80200  0.63330  0.93240  Biso   1.000  H
  H59      1.0000 0.69800  0.13330  0.56760  Biso   1.000  H
  H60      1.0000 0.19800  0.63330  0.56760  Biso   1.000  H
  H61      1.0000 0.69800  0.86670  0.06760  Biso   1.000  H
  H62      1.0000 0.19800  0.36670  0.06760  Biso   1.000  H
  H63      1.0000 0.30200  0.86670  0.43240  Biso   1.000  H
  H64      1.0000 0.80200  0.36670  0.43240  Biso   1.000  H
  C65      1.0000 0.32653  0.14420  0.04940  Biso   1.000  C
  C66      1.0000 0.82653  0.64420  0.04940  Biso   1.000  C
  C67      1.0000 0.67347  0.14420  0.45060  Biso   1.000  C
  C68      1.0000 0.17347  0.64420  0.45060  Biso   1.000  C
  C69      1.0000 0.67347  0.85580  0.95060  Biso   1.000  C
  C70      1.0000 0.17347  0.35580  0.95060  Biso   1.000  C
  C71      1.0000 0.32653  0.85580  0.54940  Biso   1.000  C
  C72      1.0000 0.82653  0.35580  0.54940  Biso   1.000  C
  H65      1.0000 0.28670  0.11690  0.06720  Biso   1.000  H
  H66      1.0000 0.78670  0.61690  0.06720  Biso   1.000  H
  H67      1.0000 0.71330  0.11690  0.43280  Biso   1.000  H
  H68      1.0000 0.21330  0.61690  0.43280  Biso   1.000  H
  H69      1.0000 0.71330  0.88310  0.93280  Biso   1.000  H
  H70      1.0000 0.21330  0.38310  0.93280  Biso   1.000  H
  H71      1.0000 0.28670  0.88310  0.56720  Biso   1.000  H
  H72      1.0000 0.78670  0.38310  0.56720  Biso   1.000  H
  C73      1.0000 0.67536  0.33330  0.07740  Biso   1.000  C
  C74      1.0000 0.17536  0.83330  0.07740  Biso   1.000  C
  C75      1.0000 0.32464  0.33330  0.42260  Biso   1.000  C
  C76      1.0000 0.82464  0.83330  0.42260  Biso   1.000  C
  C77      1.0000 0.32464  0.66670  0.92260  Biso   1.000  C
  C78      1.0000 0.82464  0.16670  0.92260  Biso   1.000  C
  C79      1.0000 0.67536  0.66670  0.57740  Biso   1.000  C
  C80      1.0000 0.17536  0.16670  0.57740  Biso   1.000  C
  H73      1.0000 0.71580  0.34880  0.10170  Biso   1.000  H
  H74      1.0000 0.21580  0.84880  0.10170  Biso   1.000  H
  H75      1.0000 0.28420  0.34880  0.39830  Biso   1.000  H
  H76      1.0000 0.78420  0.84880  0.39830  Biso   1.000  H
  H77      1.0000 0.28420  0.65120  0.89830  Biso   1.000  H
  H78      1.0000 0.78420  0.15120  0.89830  Biso   1.000  H
  H79      1.0000 0.71580  0.65120  0.60170  Biso   1.000  H
  H80      1.0000 0.21580  0.15120  0.60170  Biso   1.000  H
  C81      1.0000 0.28020  0.62000  0.23210  Biso   1.000  C
  C82      1.0000 0.78020  0.12000  0.23210  Biso   1.000  C
  C83      1.0000 0.71980  0.62000  0.26790  Biso   1.000  C
  C84      1.0000 0.21980  0.12000  0.26790  Biso   1.000  C
  C85      1.0000 0.71980  0.38000  0.76790  Biso   1.000  C
  C86      1.0000 0.21980  0.88000  0.76790  Biso   1.000  C
  C87      1.0000 0.28020  0.38000  0.73210  Biso   1.000  C
  C88      1.0000 0.78020  0.88000  0.73210  Biso   1.000  C
  H81      1.0000 0.30620  0.51020  0.22220  Biso   1.000  H
  H82      1.0000 0.80620  0.01020  0.22220  Biso   1.000  H
  H83      1.0000 0.69380  0.51020  0.27780  Biso   1.000  H
  H84      1.0000 0.19380  0.01020  0.27780  Biso   1.000  H
  H85      1.0000 0.69380  0.48980  0.77780  Biso   1.000  H
  H86      1.0000 0.19380  0.98980  0.77780  Biso   1.000  H
  H87      1.0000 0.30620  0.48980  0.72220  Biso   1.000  H
  H88      1.0000 0.80620  0.98980  0.72220  Biso   1.000  H
  H89      1.0000 0.23730  0.59480  0.21280  Biso   1.000  H
  H90      1.0000 0.73730  0.09480  0.21280  Biso   1.000  H
  H91      1.0000 0.76270  0.59480  0.28720  Biso   1.000  H
  H92      1.0000 0.26270  0.09480  0.28720  Biso   1.000  H
  H93      1.0000 0.76270  0.40520  0.78720  Biso   1.000  H
  H94      1.0000 0.26270  0.90520  0.78720  Biso   1.000  H
  H95      1.0000 0.23730  0.40520  0.71280  Biso   1.000  H
  H96      1.0000 0.73730  0.90520  0.71280  Biso   1.000  H
  H97      1.0000 0.28150  0.64500  0.28850  Biso   1.000  H
  H98      1.0000 0.78150  0.14500  0.28850  Biso   1.000  H
  H99      1.0000 0.71850  0.64500  0.21150  Biso   1.000  H
  H100     1.0000 0.21850  0.14500  0.21150  Biso   1.000  H
  H101     1.0000 0.71850  0.35500  0.71150  Biso   1.000  H
  H102     1.0000 0.21850  0.85500  0.71150  Biso   1.000  H
  H103     1.0000 0.28150  0.35500  0.78850  Biso   1.000  H
  H104     1.0000 0.78150  0.85500  0.78850  Biso   1.000  H
