data_image0
_cell_length_a       7.3681
_cell_length_b       11.329
_cell_length_c       23.19
_cell_angle_alpha    90
_cell_angle_beta     91.517
_cell_angle_gamma    90

_symmetry_space_group_name_H-M    "P 1"
_symmetry_int_tables_number       1

loop_
  _symmetry_equiv_pos_as_xyz
  'x, y, z'

loop_
  _atom_site_label
  _atom_site_occupancy
  _atom_site_fract_x
  _atom_site_fract_y
  _atom_site_fract_z
  _atom_site_thermal_displace_type
  _atom_site_B_iso_or_equiv
  _atom_site_type_symbol
  Cu1      1.0000 0.15891  0.28215  0.25008  Biso   1.000  Cu
  Cu2      1.0000 0.84109  0.78215  0.24992  Biso   1.000  Cu
  Cu3      1.0000 0.84109  0.71785  0.74992  Biso   1.000  Cu
  Cu4      1.0000 0.15891  0.21785  0.75008  Biso   1.000  Cu
  S1       1.0000 0.33753  0.02229  0.32037  Biso   1.000  S
  S2       1.0000 0.66247  0.52229  0.17963  Biso   1.000  S
  S3       1.0000 0.66247  0.97771  0.67963  Biso   1.000  S
  S4       1.0000 0.33753  0.47771  0.82037  Biso   1.000  S
  O1       1.0000 0.15630  0.46580  0.19803  Biso   1.000  O
  O2       1.0000 0.84370  0.96580  0.30197  Biso   1.000  O
  O3       1.0000 0.84370  0.53420  0.80197  Biso   1.000  O
  O4       1.0000 0.15630  0.03420  0.69803  Biso   1.000  O
  O5       1.0000 0.90710  0.29930  0.27525  Biso   1.000  O
  O6       1.0000 0.09290  0.79930  0.22475  Biso   1.000  O
  O7       1.0000 0.09290  0.70070  0.72475  Biso   1.000  O
  O8       1.0000 0.90710  0.20070  0.77525  Biso   1.000  O
  O9       1.0000 0.41230  0.24530  0.22634  Biso   1.000  O
  O10      1.0000 0.58770  0.74530  0.27366  Biso   1.000  O
  O11      1.0000 0.58770  0.75470  0.77366  Biso   1.000  O
  O12      1.0000 0.41230  0.25470  0.72634  Biso   1.000  O
  O13      1.0000 0.34750  0.91430  0.28494  Biso   1.000  O
  O14      1.0000 0.65250  0.41430  0.21506  Biso   1.000  O
  O15      1.0000 0.65250  0.08570  0.71506  Biso   1.000  O
  O16      1.0000 0.34750  0.58570  0.78494  Biso   1.000  O
  O17      1.0000 0.32370  0.99170  0.38116  Biso   1.000  O
  O18      1.0000 0.67630  0.49170  0.11884  Biso   1.000  O
  O19      1.0000 0.67630  0.00830  0.61884  Biso   1.000  O
  O20      1.0000 0.32370  0.50830  0.88116  Biso   1.000  O
  O21      1.0000 0.17710  0.09020  0.30050  Biso   1.000  O
  O22      1.0000 0.82290  0.59020  0.19950  Biso   1.000  O
  O23      1.0000 0.82290  0.90980  0.69950  Biso   1.000  O
  O24      1.0000 0.17710  0.40980  0.80050  Biso   1.000  O
  O25      1.0000 0.50390  0.09170  0.31157  Biso   1.000  O
  O26      1.0000 0.49610  0.59170  0.18843  Biso   1.000  O
  O27      1.0000 0.49610  0.90830  0.68843  Biso   1.000  O
  O28      1.0000 0.50390  0.40830  0.81157  Biso   1.000  O
  O29      1.0000 0.16000  0.06860  0.47580  Biso   1.000  O
  O30      1.0000 0.84000  0.56860  0.02420  Biso   1.000  O
  O31      1.0000 0.84000  0.93140  0.52420  Biso   1.000  O
  O32      1.0000 0.16000  0.43140  0.97580  Biso   1.000  O
  O33      1.0000 0.59320  0.83950  0.43110  Biso   1.000  O
  O34      1.0000 0.40680  0.33950  0.06890  Biso   1.000  O
  O35      1.0000 0.40680  0.16050  0.56890  Biso   1.000  O
  O36      1.0000 0.59320  0.66050  0.93110  Biso   1.000  O
  O37      1.0000 0.89900  0.10870  0.45370  Biso   1.000  O
  O38      1.0000 0.10100  0.60870  0.04630  Biso   1.000  O
  O39      1.0000 0.10100  0.89130  0.54630  Biso   1.000  O
  O40      1.0000 0.89900  0.39130  0.95370  Biso   1.000  O
  O41      1.0000 0.75700  0.24010  0.37496  Biso   1.000  O
  O42      1.0000 0.24300  0.74010  0.12504  Biso   1.000  O
  O43      1.0000 0.24300  0.75990  0.62504  Biso   1.000  O
  O44      1.0000 0.75700  0.25990  0.87496  Biso   1.000  O
  N1       1.0000 0.07270  0.20180  0.17619  Biso   1.000  N
  N2       1.0000 0.92730  0.70180  0.32381  Biso   1.000  N
  N3       1.0000 0.92730  0.79820  0.82381  Biso   1.000  N
  N4       1.0000 0.07270  0.29820  0.67619  Biso   1.000  N
  N5       1.0000 0.25620  0.36240  0.32287  Biso   1.000  N
  N6       1.0000 0.74380  0.86240  0.17713  Biso   1.000  N
  N7       1.0000 0.74380  0.63760  0.67713  Biso   1.000  N
  N8       1.0000 0.25620  0.13760  0.82287  Biso   1.000  N
  C1       1.0000 0.97560  0.25810  0.13530  Biso   1.000  C
  C2       1.0000 0.02440  0.75810  0.36470  Biso   1.000  C
  C3       1.0000 0.02440  0.74190  0.86470  Biso   1.000  C
  C4       1.0000 0.97560  0.24190  0.63530  Biso   1.000  C
  H1       1.0000 0.92860  0.33220  0.14370  Biso   1.000  H
  H2       1.0000 0.07140  0.83220  0.35630  Biso   1.000  H
  H3       1.0000 0.07140  0.66780  0.85630  Biso   1.000  H
  H4       1.0000 0.92860  0.16780  0.64370  Biso   1.000  H
  C5       1.0000 0.94170  0.21120  0.08107  Biso   1.000  C
  C6       1.0000 0.05830  0.71120  0.41893  Biso   1.000  C
  C7       1.0000 0.05830  0.78880  0.91893  Biso   1.000  C
  C8       1.0000 0.94170  0.28880  0.58107  Biso   1.000  C
  H5       1.0000 0.87470  0.25420  0.05380  Biso   1.000  H
  H6       1.0000 0.12530  0.75420  0.44620  Biso   1.000  H
  H7       1.0000 0.12530  0.74580  0.94620  Biso   1.000  H
  H8       1.0000 0.87470  0.24580  0.55380  Biso   1.000  H
  C9       1.0000 0.00730  0.10040  0.06719  Biso   1.000  C
  C10      1.0000 0.99270  0.60040  0.43281  Biso   1.000  C
  C11      1.0000 0.99270  0.89960  0.93281  Biso   1.000  C
  C12      1.0000 0.00730  0.39960  0.56719  Biso   1.000  C
  C13      1.0000 0.10090  0.04020  0.11067  Biso   1.000  C
  C14      1.0000 0.89910  0.54020  0.38933  Biso   1.000  C
  C15      1.0000 0.89910  0.95980  0.88933  Biso   1.000  C
  C16      1.0000 0.10090  0.45980  0.61067  Biso   1.000  C
  H9       1.0000 0.14380  0.96430  0.10400  Biso   1.000  H
  H10      1.0000 0.85620  0.46430  0.39600  Biso   1.000  H
  H11      1.0000 0.85620  0.03570  0.89600  Biso   1.000  H
  H12      1.0000 0.14380  0.53570  0.60400  Biso   1.000  H
  C17      1.0000 0.13090  0.09230  0.16384  Biso   1.000  C
  C18      1.0000 0.86910  0.59230  0.33616  Biso   1.000  C
  C19      1.0000 0.86910  0.90770  0.83616  Biso   1.000  C
  C20      1.0000 0.13090  0.40770  0.66384  Biso   1.000  C
  H13      1.0000 0.19390  0.05010  0.19230  Biso   1.000  H
  H14      1.0000 0.80610  0.55010  0.30770  Biso   1.000  H
  H15      1.0000 0.80610  0.94990  0.80770  Biso   1.000  H
  H16      1.0000 0.19390  0.44990  0.69230  Biso   1.000  H
  C21      1.0000 0.97540  0.05260  0.00878  Biso   1.000  C
  C22      1.0000 0.02460  0.55260  0.49122  Biso   1.000  C
  C23      1.0000 0.02460  0.94740  0.99122  Biso   1.000  C
  C24      1.0000 0.97540  0.44740  0.50878  Biso   1.000  C
  H17      1.0000 0.91530  0.10090  0.98210  Biso   1.000  H
  H18      1.0000 0.08470  0.60090  0.51790  Biso   1.000  H
  H19      1.0000 0.08470  0.89910  0.01790  Biso   1.000  H
  H20      1.0000 0.91530  0.39910  0.48210  Biso   1.000  H
  C25      1.0000 0.33890  0.46670  0.32127  Biso   1.000  C
  C26      1.0000 0.66110  0.96670  0.17873  Biso   1.000  C
  C27      1.0000 0.66110  0.53330  0.67873  Biso   1.000  C
  C28      1.0000 0.33890  0.03330  0.82127  Biso   1.000  C
  H21      1.0000 0.34590  0.50500  0.28590  Biso   1.000  H
  H22      1.0000 0.65410  0.00500  0.21410  Biso   1.000  H
  H23      1.0000 0.65410  0.49500  0.71410  Biso   1.000  H
  H24      1.0000 0.34590  0.99500  0.78590  Biso   1.000  H
  C29      1.0000 0.41540  0.52110  0.36985  Biso   1.000  C
  C30      1.0000 0.58460  0.02110  0.13015  Biso   1.000  C
  C31      1.0000 0.58460  0.47890  0.63015  Biso   1.000  C
  C32      1.0000 0.41540  0.97890  0.86985  Biso   1.000  C
  H25      1.0000 0.47040  0.59470  0.36680  Biso   1.000  H
  H26      1.0000 0.52960  0.09470  0.13320  Biso   1.000  H
  H27      1.0000 0.52960  0.40530  0.63320  Biso   1.000  H
  H28      1.0000 0.47040  0.90530  0.86680  Biso   1.000  H
  C33      1.0000 0.40930  0.46550  0.42260  Biso   1.000  C
  C34      1.0000 0.59070  0.96550  0.07740  Biso   1.000  C
  C35      1.0000 0.59070  0.53450  0.57740  Biso   1.000  C
  C36      1.0000 0.40930  0.03450  0.92260  Biso   1.000  C
  C37      1.0000 0.32200  0.35670  0.42448  Biso   1.000  C
  C38      1.0000 0.67800  0.85670  0.07552  Biso   1.000  C
  C39      1.0000 0.67800  0.64330  0.57552  Biso   1.000  C
  C40      1.0000 0.32200  0.14330  0.92448  Biso   1.000  C
  H29      1.0000 0.31480  0.31620  0.45920  Biso   1.000  H
  H30      1.0000 0.68520  0.81620  0.04080  Biso   1.000  H
  H31      1.0000 0.68520  0.68380  0.54080  Biso   1.000  H
  H32      1.0000 0.31480  0.18380  0.95920  Biso   1.000  H
  C41      1.0000 0.24640  0.30920  0.37476  Biso   1.000  C
  C42      1.0000 0.75360  0.80920  0.12524  Biso   1.000  C
  C43      1.0000 0.75360  0.69080  0.62524  Biso   1.000  C
  C44      1.0000 0.24640  0.19080  0.87476  Biso   1.000  C
  H33      1.0000 0.18600  0.23730  0.37700  Biso   1.000  H
  H34      1.0000 0.81400  0.73730  0.12300  Biso   1.000  H
  H35      1.0000 0.81400  0.76270  0.62300  Biso   1.000  H
  H36      1.0000 0.18600  0.26270  0.87700  Biso   1.000  H
  C45      1.0000 0.49230  0.52390  0.47376  Biso   1.000  C
  C46      1.0000 0.50770  0.02390  0.02624  Biso   1.000  C
  C47      1.0000 0.50770  0.47610  0.52624  Biso   1.000  C
  C48      1.0000 0.49230  0.97610  0.97376  Biso   1.000  C
  H37      1.0000 0.55000  0.60900  0.46640  Biso   1.000  H
  H38      1.0000 0.45000  0.10900  0.03360  Biso   1.000  H
  H39      1.0000 0.45000  0.39100  0.53360  Biso   1.000  H
  H40      1.0000 0.55000  0.89100  0.96640  Biso   1.000  H
