data_image0
_cell_length_a       24.95
_cell_length_b       13.18
_cell_length_c       8.714
_cell_angle_alpha    90
_cell_angle_beta     94.38
_cell_angle_gamma    90

_symmetry_space_group_name_H-M    "P 1"
_symmetry_int_tables_number       1

loop_
  _symmetry_equiv_pos_as_xyz
  'x, y, z'

loop_
  _atom_site_label
  _atom_site_occupancy
  _atom_site_fract_x
  _atom_site_fract_y
  _atom_site_fract_z
  _atom_site_thermal_displace_type
  _atom_site_B_iso_or_equiv
  _atom_site_type_symbol
  Cu1      1.0000 0.70786  0.28363  0.91804  Biso   1.000  Cu
  Cu2      1.0000 0.20786  0.78363  0.91804  Biso   1.000  Cu
  Cu3      1.0000 0.29214  0.28363  0.58196  Biso   1.000  Cu
  Cu4      1.0000 0.79214  0.78363  0.58196  Biso   1.000  Cu
  Cu5      1.0000 0.29214  0.71637  0.08196  Biso   1.000  Cu
  Cu6      1.0000 0.79214  0.21637  0.08196  Biso   1.000  Cu
  Cu7      1.0000 0.70786  0.71637  0.41804  Biso   1.000  Cu
  Cu8      1.0000 0.20786  0.21637  0.41804  Biso   1.000  Cu
  O1       1.0000 0.74430  0.41390  0.94820  Biso   1.000  O
  O2       1.0000 0.24430  0.91390  0.94820  Biso   1.000  O
  O3       1.0000 0.25570  0.41390  0.55180  Biso   1.000  O
  O4       1.0000 0.75570  0.91390  0.55180  Biso   1.000  O
  O5       1.0000 0.25570  0.58610  0.05180  Biso   1.000  O
  O6       1.0000 0.75570  0.08610  0.05180  Biso   1.000  O
  O7       1.0000 0.74430  0.58610  0.44820  Biso   1.000  O
  O8       1.0000 0.24430  0.08610  0.44820  Biso   1.000  O
  O9       1.0000 0.67640  0.29810  0.11620  Biso   1.000  O
  O10      1.0000 0.17640  0.79810  0.11620  Biso   1.000  O
  O11      1.0000 0.32360  0.29810  0.38380  Biso   1.000  O
  O12      1.0000 0.82360  0.79810  0.38380  Biso   1.000  O
  O13      1.0000 0.32360  0.70190  0.88380  Biso   1.000  O
  O14      1.0000 0.82360  0.20190  0.88380  Biso   1.000  O
  O15      1.0000 0.67640  0.70190  0.61620  Biso   1.000  O
  O16      1.0000 0.17640  0.20190  0.61620  Biso   1.000  O
  O17      1.0000 0.74890  0.24500  0.25380  Biso   1.000  O
  O18      1.0000 0.24890  0.74500  0.25380  Biso   1.000  O
  O19      1.0000 0.25110  0.24500  0.24620  Biso   1.000  O
  O20      1.0000 0.75110  0.74500  0.24620  Biso   1.000  O
  O21      1.0000 0.25110  0.75500  0.74620  Biso   1.000  O
  O22      1.0000 0.75110  0.25500  0.74620  Biso   1.000  O
  O23      1.0000 0.74890  0.75500  0.75380  Biso   1.000  O
  O24      1.0000 0.24890  0.25500  0.75380  Biso   1.000  O
  O25      1.0000 0.81570  0.35680  0.08590  Biso   1.000  O
  O26      1.0000 0.31570  0.85680  0.08590  Biso   1.000  O
  O27      1.0000 0.18430  0.35680  0.41410  Biso   1.000  O
  O28      1.0000 0.68430  0.85680  0.41410  Biso   1.000  O
  O29      1.0000 0.18430  0.64320  0.91410  Biso   1.000  O
  O30      1.0000 0.68430  0.14320  0.91410  Biso   1.000  O
  O31      1.0000 0.81570  0.64320  0.58590  Biso   1.000  O
  O32      1.0000 0.31570  0.14320  0.58590  Biso   1.000  O
  N1       1.0000 0.64210  0.34710  0.77120  Biso   1.000  N
  N2       1.0000 0.14210  0.84710  0.77120  Biso   1.000  N
  N3       1.0000 0.35790  0.34710  0.72880  Biso   1.000  N
  N4       1.0000 0.85790  0.84710  0.72880  Biso   1.000  N
  N5       1.0000 0.35790  0.65290  0.22880  Biso   1.000  N
  N6       1.0000 0.85790  0.15290  0.22880  Biso   1.000  N
  N7       1.0000 0.64210  0.65290  0.27120  Biso   1.000  N
  N8       1.0000 0.14210  0.15290  0.27120  Biso   1.000  N
  C1       1.0000 0.80830  0.53310  0.03490  Biso   1.000  C
  C2       1.0000 0.30830  0.03310  0.03490  Biso   1.000  C
  C3       1.0000 0.19170  0.53310  0.46510  Biso   1.000  C
  C4       1.0000 0.69170  0.03310  0.46510  Biso   1.000  C
  C5       1.0000 0.19170  0.46690  0.96510  Biso   1.000  C
  C6       1.0000 0.69170  0.96690  0.96510  Biso   1.000  C
  C7       1.0000 0.80830  0.46690  0.53490  Biso   1.000  C
  C8       1.0000 0.30830  0.96690  0.53490  Biso   1.000  C
  H1       1.0000 0.78290  0.57720  0.98000  Biso   1.000  H
  H2       1.0000 0.28290  0.07720  0.98000  Biso   1.000  H
  H3       1.0000 0.21710  0.57720  0.52000  Biso   1.000  H
  H4       1.0000 0.71710  0.07720  0.52000  Biso   1.000  H
  H5       1.0000 0.21710  0.42280  0.02000  Biso   1.000  H
  H6       1.0000 0.71710  0.92280  0.02000  Biso   1.000  H
  H7       1.0000 0.78290  0.42280  0.48000  Biso   1.000  H
  H8       1.0000 0.28290  0.92280  0.48000  Biso   1.000  H
  H9       1.0000 0.84250  0.53840  0.99190  Biso   1.000  H
  H10      1.0000 0.34250  0.03840  0.99190  Biso   1.000  H
  H11      1.0000 0.15750  0.53840  0.50810  Biso   1.000  H
  H12      1.0000 0.65750  0.03840  0.50810  Biso   1.000  H
  H13      1.0000 0.15750  0.46160  0.00810  Biso   1.000  H
  H14      1.0000 0.65750  0.96160  0.00810  Biso   1.000  H
  H15      1.0000 0.84250  0.46160  0.49190  Biso   1.000  H
  H16      1.0000 0.34250  0.96160  0.49190  Biso   1.000  H
  H17      1.0000 0.81210  0.55250  0.14140  Biso   1.000  H
  H18      1.0000 0.31210  0.05250  0.14140  Biso   1.000  H
  H19      1.0000 0.18790  0.55250  0.35860  Biso   1.000  H
  H20      1.0000 0.68790  0.05250  0.35860  Biso   1.000  H
  H21      1.0000 0.18790  0.44750  0.85860  Biso   1.000  H
  H22      1.0000 0.68790  0.94750  0.85860  Biso   1.000  H
  H23      1.0000 0.81210  0.44750  0.64140  Biso   1.000  H
  H24      1.0000 0.31210  0.94750  0.64140  Biso   1.000  H
  C9       1.0000 0.78860  0.42590  0.02170  Biso   1.000  C
  C10      1.0000 0.28860  0.92590  0.02170  Biso   1.000  C
  C11      1.0000 0.21140  0.42590  0.47830  Biso   1.000  C
  C12      1.0000 0.71140  0.92590  0.47830  Biso   1.000  C
  C13      1.0000 0.21140  0.57410  0.97830  Biso   1.000  C
  C14      1.0000 0.71140  0.07410  0.97830  Biso   1.000  C
  C15      1.0000 0.78860  0.57410  0.52170  Biso   1.000  C
  C16      1.0000 0.28860  0.07410  0.52170  Biso   1.000  C
  C17      1.0000 0.67650  0.30270  0.38570  Biso   1.000  C
  C18      1.0000 0.17650  0.80270  0.38570  Biso   1.000  C
  C19      1.0000 0.32350  0.30270  0.11430  Biso   1.000  C
  C20      1.0000 0.82350  0.80270  0.11430  Biso   1.000  C
  C21      1.0000 0.32350  0.69730  0.61430  Biso   1.000  C
  C22      1.0000 0.82350  0.19730  0.61430  Biso   1.000  C
  C23      1.0000 0.67650  0.69730  0.88570  Biso   1.000  C
  C24      1.0000 0.17650  0.19730  0.88570  Biso   1.000  C
  H25      1.0000 0.64150  0.33140  0.36150  Biso   1.000  H
  H26      1.0000 0.14150  0.83140  0.36150  Biso   1.000  H
  H27      1.0000 0.35850  0.33140  0.13850  Biso   1.000  H
  H28      1.0000 0.85850  0.83140  0.13850  Biso   1.000  H
  H29      1.0000 0.35850  0.66860  0.63850  Biso   1.000  H
  H30      1.0000 0.85850  0.16860  0.63850  Biso   1.000  H
  H31      1.0000 0.64150  0.66860  0.86150  Biso   1.000  H
  H32      1.0000 0.14150  0.16860  0.86150  Biso   1.000  H
  H33      1.0000 0.69810  0.34950  0.44830  Biso   1.000  H
  H34      1.0000 0.19810  0.84950  0.44830  Biso   1.000  H
  H35      1.0000 0.30190  0.34950  0.05170  Biso   1.000  H
  H36      1.0000 0.80190  0.84950  0.05170  Biso   1.000  H
  H37      1.0000 0.30190  0.65050  0.55170  Biso   1.000  H
  H38      1.0000 0.80190  0.15050  0.55170  Biso   1.000  H
  H39      1.0000 0.69810  0.65050  0.94830  Biso   1.000  H
  H40      1.0000 0.19810  0.15050  0.94830  Biso   1.000  H
  H41      1.0000 0.67310  0.24030  0.44090  Biso   1.000  H
  H42      1.0000 0.17310  0.74030  0.44090  Biso   1.000  H
  H43      1.0000 0.32690  0.24030  0.05910  Biso   1.000  H
  H44      1.0000 0.82690  0.74030  0.05910  Biso   1.000  H
  H45      1.0000 0.32690  0.75970  0.55910  Biso   1.000  H
  H46      1.0000 0.82690  0.25970  0.55910  Biso   1.000  H
  H47      1.0000 0.67310  0.75970  0.94090  Biso   1.000  H
  H48      1.0000 0.17310  0.25970  0.94090  Biso   1.000  H
  C25      1.0000 0.70260  0.28270  0.24120  Biso   1.000  C
  C26      1.0000 0.20260  0.78270  0.24120  Biso   1.000  C
  C27      1.0000 0.29740  0.28270  0.25880  Biso   1.000  C
  C28      1.0000 0.79740  0.78270  0.25880  Biso   1.000  C
  C29      1.0000 0.29740  0.71730  0.75880  Biso   1.000  C
  C30      1.0000 0.79740  0.21730  0.75880  Biso   1.000  C
  C31      1.0000 0.70260  0.71730  0.74120  Biso   1.000  C
  C32      1.0000 0.20260  0.21730  0.74120  Biso   1.000  C
  C33      1.0000 0.64590  0.43730  0.71430  Biso   1.000  C
  C34      1.0000 0.14590  0.93730  0.71430  Biso   1.000  C
  C35      1.0000 0.35410  0.43730  0.78570  Biso   1.000  C
  C36      1.0000 0.85410  0.93730  0.78570  Biso   1.000  C
  C37      1.0000 0.35410  0.56270  0.28570  Biso   1.000  C
  C38      1.0000 0.85410  0.06270  0.28570  Biso   1.000  C
  C39      1.0000 0.64590  0.56270  0.21430  Biso   1.000  C
  C40      1.0000 0.14590  0.06270  0.21430  Biso   1.000  C
  H49      1.0000 0.67640  0.47540  0.74330  Biso   1.000  H
  H50      1.0000 0.17640  0.97540  0.74330  Biso   1.000  H
  H51      1.0000 0.32360  0.47540  0.75670  Biso   1.000  H
  H52      1.0000 0.82360  0.97540  0.75670  Biso   1.000  H
  H53      1.0000 0.32360  0.52460  0.25670  Biso   1.000  H
  H54      1.0000 0.82360  0.02460  0.25670  Biso   1.000  H
  H55      1.0000 0.67640  0.52460  0.24330  Biso   1.000  H
  H56      1.0000 0.17640  0.02460  0.24330  Biso   1.000  H
  C41      1.0000 0.60730  0.47960  0.61360  Biso   1.000  C
  C42      1.0000 0.10730  0.97960  0.61360  Biso   1.000  C
  C43      1.0000 0.39270  0.47960  0.88640  Biso   1.000  C
  C44      1.0000 0.89270  0.97960  0.88640  Biso   1.000  C
  C45      1.0000 0.39270  0.52040  0.38640  Biso   1.000  C
  C46      1.0000 0.89270  0.02040  0.38640  Biso   1.000  C
  C47      1.0000 0.60730  0.52040  0.11360  Biso   1.000  C
  C48      1.0000 0.10730  0.02040  0.11360  Biso   1.000  C
  H57      1.0000 0.61190  0.54490  0.57630  Biso   1.000  H
  H58      1.0000 0.11190  0.04490  0.57630  Biso   1.000  H
  H59      1.0000 0.38810  0.54490  0.92370  Biso   1.000  H
  H60      1.0000 0.88810  0.04490  0.92370  Biso   1.000  H
  H61      1.0000 0.38810  0.45510  0.42370  Biso   1.000  H
  H62      1.0000 0.88810  0.95510  0.42370  Biso   1.000  H
  H63      1.0000 0.61190  0.45510  0.07630  Biso   1.000  H
  H64      1.0000 0.11190  0.95510  0.07630  Biso   1.000  H
  C49      1.0000 0.56260  0.42600  0.56860  Biso   1.000  C
  C50      1.0000 0.06260  0.92600  0.56860  Biso   1.000  C
  C51      1.0000 0.43740  0.42600  0.93140  Biso   1.000  C
  C52      1.0000 0.93740  0.92600  0.93140  Biso   1.000  C
  C53      1.0000 0.43740  0.57400  0.43140  Biso   1.000  C
  C54      1.0000 0.93740  0.07400  0.43140  Biso   1.000  C
  C55      1.0000 0.56260  0.57400  0.06860  Biso   1.000  C
  C56      1.0000 0.06260  0.07400  0.06860  Biso   1.000  C
  C57      1.0000 0.51940  0.46790  0.46080  Biso   1.000  C
  C58      1.0000 0.01940  0.96790  0.46080  Biso   1.000  C
  C59      1.0000 0.48060  0.46790  0.03920  Biso   1.000  C
  C60      1.0000 0.98060  0.96790  0.03920  Biso   1.000  C
  C61      1.0000 0.48060  0.53210  0.53920  Biso   1.000  C
  C62      1.0000 0.98060  0.03210  0.53920  Biso   1.000  C
  C63      1.0000 0.51940  0.53210  0.96080  Biso   1.000  C
  C64      1.0000 0.01940  0.03210  0.96080  Biso   1.000  C
  H65      1.0000 0.50000  0.41230  0.40900  Biso   1.000  H
  H66      1.0000 0.00000  0.91230  0.40900  Biso   1.000  H
  H67      1.0000 0.50000  0.41230  0.09100  Biso   1.000  H
  H68      1.0000 0.00000  0.91230  0.09100  Biso   1.000  H
  H69      1.0000 0.50000  0.58770  0.59100  Biso   1.000  H
  H70      1.0000 0.00000  0.08770  0.59100  Biso   1.000  H
  H71      1.0000 0.50000  0.58770  0.90900  Biso   1.000  H
  H72      1.0000 0.00000  0.08770  0.90900  Biso   1.000  H
  H73      1.0000 0.53540  0.50810  0.38320  Biso   1.000  H
  H74      1.0000 0.03540  0.00810  0.38320  Biso   1.000  H
  H75      1.0000 0.46460  0.50810  0.11680  Biso   1.000  H
  H76      1.0000 0.96460  0.00810  0.11680  Biso   1.000  H
  H77      1.0000 0.46460  0.49190  0.61680  Biso   1.000  H
  H78      1.0000 0.96460  0.99190  0.61680  Biso   1.000  H
  H79      1.0000 0.53540  0.49190  0.88320  Biso   1.000  H
  H80      1.0000 0.03540  0.99190  0.88320  Biso   1.000  H
  C65      1.0000 0.55920  0.32950  0.63180  Biso   1.000  C
  C66      1.0000 0.05920  0.82950  0.63180  Biso   1.000  C
  C67      1.0000 0.44080  0.32950  0.86820  Biso   1.000  C
  C68      1.0000 0.94080  0.82950  0.86820  Biso   1.000  C
  C69      1.0000 0.44080  0.67050  0.36820  Biso   1.000  C
  C70      1.0000 0.94080  0.17050  0.36820  Biso   1.000  C
  C71      1.0000 0.55920  0.67050  0.13180  Biso   1.000  C
  C72      1.0000 0.05920  0.17050  0.13180  Biso   1.000  C
  H81      1.0000 0.52920  0.28940  0.60580  Biso   1.000  H
  H82      1.0000 0.02920  0.78940  0.60580  Biso   1.000  H
  H83      1.0000 0.47080  0.28940  0.89420  Biso   1.000  H
  H84      1.0000 0.97080  0.78940  0.89420  Biso   1.000  H
  H85      1.0000 0.47080  0.71060  0.39420  Biso   1.000  H
  H86      1.0000 0.97080  0.21060  0.39420  Biso   1.000  H
  H87      1.0000 0.52920  0.71060  0.10580  Biso   1.000  H
  H88      1.0000 0.02920  0.21060  0.10580  Biso   1.000  H
  C73      1.0000 0.59860  0.29380  0.72910  Biso   1.000  C
  C74      1.0000 0.09860  0.79380  0.72910  Biso   1.000  C
  C75      1.0000 0.40140  0.29380  0.77090  Biso   1.000  C
  C76      1.0000 0.90140  0.79380  0.77090  Biso   1.000  C
  C77      1.0000 0.40140  0.70620  0.27090  Biso   1.000  C
  C78      1.0000 0.90140  0.20620  0.27090  Biso   1.000  C
  C79      1.0000 0.59860  0.70620  0.22910  Biso   1.000  C
  C80      1.0000 0.09860  0.20620  0.22910  Biso   1.000  C
  H89      1.0000 0.59520  0.22890  0.76900  Biso   1.000  H
  H90      1.0000 0.09520  0.72890  0.76900  Biso   1.000  H
  H91      1.0000 0.40480  0.22890  0.73100  Biso   1.000  H
  H92      1.0000 0.90480  0.72890  0.73100  Biso   1.000  H
  H93      1.0000 0.40480  0.77110  0.23100  Biso   1.000  H
  H94      1.0000 0.90480  0.27110  0.23100  Biso   1.000  H
  H95      1.0000 0.59520  0.77110  0.26900  Biso   1.000  H
  H96      1.0000 0.09520  0.27110  0.26900  Biso   1.000  H
  O33      1.0000 0.44120  0.19300  0.37500  Biso   1.000  O
  O34      1.0000 0.94120  0.69300  0.37500  Biso   1.000  O
  O35      1.0000 0.55880  0.19300  0.12500  Biso   1.000  O
  O36      1.0000 0.05880  0.69300  0.12500  Biso   1.000  O
  O37      1.0000 0.55880  0.80700  0.62500  Biso   1.000  O
  O38      1.0000 0.05880  0.30700  0.62500  Biso   1.000  O
  O39      1.0000 0.44120  0.80700  0.87500  Biso   1.000  O
  O40      1.0000 0.94120  0.30700  0.87500  Biso   1.000  O
  H97      1.0000 0.43620  0.25300  0.42100  Biso   1.000  H
  H98      1.0000 0.93620  0.75300  0.42100  Biso   1.000  H
  H99      1.0000 0.56380  0.25300  0.07900  Biso   1.000  H
  H100     1.0000 0.06380  0.75300  0.07900  Biso   1.000  H
  H101     1.0000 0.56380  0.74700  0.57900  Biso   1.000  H
  H102     1.0000 0.06380  0.24700  0.57900  Biso   1.000  H
  H103     1.0000 0.43620  0.74700  0.92100  Biso   1.000  H
  H104     1.0000 0.93620  0.24700  0.92100  Biso   1.000  H
  H105     1.0000 0.43600  0.10400  0.40400  Biso   1.000  H
  H106     1.0000 0.93600  0.60400  0.40400  Biso   1.000  H
  H107     1.0000 0.56400  0.10400  0.09600  Biso   1.000  H
  H108     1.0000 0.06400  0.60400  0.09600  Biso   1.000  H
  H109     1.0000 0.56400  0.89600  0.59600  Biso   1.000  H
  H110     1.0000 0.06400  0.39600  0.59600  Biso   1.000  H
  H111     1.0000 0.43600  0.89600  0.90400  Biso   1.000  H
  H112     1.0000 0.93600  0.39600  0.90400  Biso   1.000  H
