data_image0
_cell_length_a       7.1912
_cell_length_b       13.9627
_cell_length_c       14.1582
_cell_angle_alpha    67.723
_cell_angle_beta     79.058
_cell_angle_gamma    79.926

_symmetry_space_group_name_H-M    "P 1"
_symmetry_int_tables_number       1

loop_
  _symmetry_equiv_pos_as_xyz
  'x, y, z'

loop_
  _atom_site_label
  _atom_site_occupancy
  _atom_site_fract_x
  _atom_site_fract_y
  _atom_site_fract_z
  _atom_site_thermal_displace_type
  _atom_site_B_iso_or_equiv
  _atom_site_type_symbol
  Cu1      1.0000 0.99324  0.76205  0.66045  Biso   1.000  Cu
  Cu2      1.0000 0.00676  0.23795  0.33955  Biso   1.000  Cu
  Cu3      1.0000 0.29142  0.75166  0.17498  Biso   1.000  Cu
  Cu4      1.0000 0.70858  0.24834  0.82502  Biso   1.000  Cu
  O1       1.0000 0.82860  0.83390  0.77920  Biso   1.000  O
  O2       1.0000 0.17140  0.16610  0.22080  Biso   1.000  O
  O3       1.0000 0.74360  0.74380  0.63660  Biso   1.000  O
  O4       1.0000 0.25640  0.25620  0.36340  Biso   1.000  O
  O5       1.0000 0.10650  0.96740  0.60030  Biso   1.000  O
  O6       1.0000 0.89350  0.03260  0.39970  Biso   1.000  O
  O7       1.0000 0.22480  0.80290  0.67780  Biso   1.000  O
  O8       1.0000 0.77520  0.19710  0.32220  Biso   1.000  O
  O9       1.0000 0.33440  0.85850  0.91330  Biso   1.000  O
  O10      1.0000 0.66560  0.14150  0.08670  Biso   1.000  O
  O11      1.0000 0.32850  0.70470  0.04060  Biso   1.000  O
  O12      1.0000 0.67150  0.29530  0.95940  Biso   1.000  O
  O13      1.0000 0.44790  0.20250  0.85780  Biso   1.000  O
  O14      1.0000 0.55210  0.79750  0.14220  Biso   1.000  O
  O15      1.0000 0.61360  0.38660  0.72140  Biso   1.000  O
  O16      1.0000 0.38640  0.61340  0.27860  Biso   1.000  O
  O17      1.0000 0.15030  0.55460  0.64640  Biso   1.000  O
  O18      1.0000 0.84970  0.44540  0.35360  Biso   1.000  O
  O19      1.0000 0.02580  0.61890  0.76930  Biso   1.000  O
  O20      1.0000 0.97420  0.38110  0.23070  Biso   1.000  O
  O21      1.0000 0.94900  0.25390  0.63550  Biso   1.000  O
  O22      1.0000 0.05100  0.74610  0.36450  Biso   1.000  O
  O23      1.0000 0.96430  0.28860  0.77520  Biso   1.000  O
  O24      1.0000 0.03570  0.71140  0.22480  Biso   1.000  O
  O25      1.0000 0.04140  0.83040  0.50700  Biso   1.000  O
  O26      1.0000 0.95860  0.16960  0.49300  Biso   1.000  O
  H1       1.0000 0.00300  0.90170  0.48400  Biso   1.000  H
  H2       1.0000 0.99700  0.09830  0.51600  Biso   1.000  H
  H3       1.0000 0.03300  0.80400  0.45600  Biso   1.000  H
  H4       1.0000 0.96700  0.19600  0.54400  Biso   1.000  H
  O27      1.0000 0.19410  0.89870  0.11100  Biso   1.000  O
  O28      1.0000 0.80590  0.10130  0.88900  Biso   1.000  O
  H5       1.0000 0.24600  0.91400  0.04100  Biso   1.000  H
  H6       1.0000 0.75400  0.08600  0.95900  Biso   1.000  H
  H7       1.0000 0.06100  0.90500  0.11600  Biso   1.000  H
  H8       1.0000 0.93900  0.09500  0.88400  Biso   1.000  H
  N1       1.0000 0.69030  0.90360  0.73480  Biso   1.000  N
  N2       1.0000 0.30970  0.09640  0.26520  Biso   1.000  N
  N3       1.0000 0.62930  0.69600  0.72320  Biso   1.000  N
  N4       1.0000 0.37070  0.30400  0.27680  Biso   1.000  N
  N5       1.0000 0.31220  0.27360  0.87970  Biso   1.000  N
  N6       1.0000 0.68780  0.72640  0.12030  Biso   1.000  N
  N7       1.0000 0.50900  0.37320  0.65920  Biso   1.000  N
  N8       1.0000 0.49100  0.62680  0.34080  Biso   1.000  N
  C1       1.0000 0.70960  0.00550  0.70030  Biso   1.000  C
  C2       1.0000 0.29040  0.99450  0.29970  Biso   1.000  C
  H9       1.0000 0.81340  0.02810  0.71290  Biso   1.000  H
  H10      1.0000 0.18660  0.97190  0.28710  Biso   1.000  H
  C3       1.0000 0.57460  0.07580  0.64620  Biso   1.000  C
  C4       1.0000 0.42540  0.92420  0.35380  Biso   1.000  C
  H11      1.0000 0.58620  0.14660  0.62230  Biso   1.000  H
  H12      1.0000 0.41380  0.85340  0.37770  Biso   1.000  H
  C5       1.0000 0.42120  0.04210  0.62700  Biso   1.000  C
  C6       1.0000 0.57880  0.95790  0.37300  Biso   1.000  C
  H13      1.0000 0.33340  0.09000  0.58720  Biso   1.000  H
  H14      1.0000 0.66660  0.91000  0.41280  Biso   1.000  H
  C7       1.0000 0.39820  0.93750  0.66670  Biso   1.000  C
  C8       1.0000 0.60180  0.06250  0.33330  Biso   1.000  C
  C9       1.0000 0.53310  0.86860  0.72450  Biso   1.000  C
  C10      1.0000 0.46690  0.13140  0.27550  Biso   1.000  C
  C11      1.0000 0.52760  0.75510  0.77600  Biso   1.000  C
  C12      1.0000 0.47240  0.24490  0.22400  Biso   1.000  C
  C13      1.0000 0.42940  0.70530  0.87320  Biso   1.000  C
  C14      1.0000 0.57060  0.29470  0.12680  Biso   1.000  C
  C15      1.0000 0.42060  0.60010  0.90400  Biso   1.000  C
  C16      1.0000 0.57940  0.39990  0.09600  Biso   1.000  C
  H15      1.0000 0.35150  0.56600  0.96720  Biso   1.000  H
  H16      1.0000 0.64850  0.43400  0.03280  Biso   1.000  H
  C17      1.0000 0.51150  0.54390  0.84350  Biso   1.000  C
  C18      1.0000 0.48850  0.45610  0.15650  Biso   1.000  C
  H17      1.0000 0.49780  0.47370  0.86340  Biso   1.000  H
  H18      1.0000 0.50220  0.52630  0.13660  Biso   1.000  H
  C19      1.0000 0.62260  0.59310  0.75350  Biso   1.000  C
  C20      1.0000 0.37740  0.40690  0.24650  Biso   1.000  C
  H19      1.0000 0.69250  0.55560  0.71390  Biso   1.000  H
  H20      1.0000 0.30750  0.44440  0.28610  Biso   1.000  H
  C21      1.0000 0.22770  0.90070  0.64670  Biso   1.000  C
  C22      1.0000 0.77230  0.09930  0.35330  Biso   1.000  C
  C23      1.0000 0.35320  0.76250  0.94760  Biso   1.000  C
  C24      1.0000 0.64680  0.23750  0.05240  Biso   1.000  C
  C25      1.0000 0.23630  0.25850  0.97850  Biso   1.000  C
  C26      1.0000 0.76370  0.74150  0.02150  Biso   1.000  C
  H21      1.0000 0.27340  0.19760  0.03110  Biso   1.000  H
  H22      1.0000 0.72660  0.80240  0.96890  Biso   1.000  H
  C27      1.0000 0.10460  0.33310  0.00080  Biso   1.000  C
  C28      1.0000 0.89540  0.66690  0.99920  Biso   1.000  C
  H23      1.0000 0.04550  0.32160  0.06790  Biso   1.000  H
  H24      1.0000 0.95450  0.67840  0.93210  Biso   1.000  H
  C29      1.0000 0.06040  0.42570  0.92240  Biso   1.000  C
  C30      1.0000 0.93960  0.57430  0.07760  Biso   1.000  C
  H25      1.0000 0.97770  0.47850  0.93790  Biso   1.000  H
  H26      1.0000 0.02230  0.52150  0.06210  Biso   1.000  H
  C31      1.0000 0.13680  0.44120  0.82140  Biso   1.000  C
  C32      1.0000 0.86320  0.55880  0.17860  Biso   1.000  C
  C33      1.0000 0.25660  0.35930  0.80040  Biso   1.000  C
  C34      1.0000 0.74340  0.64070  0.19960  Biso   1.000  C
  C35      1.0000 0.32630  0.35340  0.69690  Biso   1.000  C
  C36      1.0000 0.67370  0.64660  0.30310  Biso   1.000  C
  C37      1.0000 0.22130  0.32660  0.64030  Biso   1.000  C
  C38      1.0000 0.77870  0.67340  0.35970  Biso   1.000  C
  C39      1.0000 0.30080  0.33020  0.54160  Biso   1.000  C
  C40      1.0000 0.69920  0.66980  0.45840  Biso   1.000  C
  H27      1.0000 0.23250  0.31300  0.50180  Biso   1.000  H
  H28      1.0000 0.76750  0.68700  0.49820  Biso   1.000  H
  C41      1.0000 0.48030  0.35920  0.50360  Biso   1.000  C
  C42      1.0000 0.51970  0.64080  0.49640  Biso   1.000  C
  H29      1.0000 0.53050  0.36570  0.43620  Biso   1.000  H
  H30      1.0000 0.46950  0.63430  0.56380  Biso   1.000  H
  C43      1.0000 0.58730  0.37880  0.56330  Biso   1.000  C
  C44      1.0000 0.41270  0.62120  0.43670  Biso   1.000  C
  H31      1.0000 0.71120  0.39550  0.53810  Biso   1.000  H
  H32      1.0000 0.28880  0.60450  0.46190  Biso   1.000  H
  C45      1.0000 0.10120  0.54600  0.73650  Biso   1.000  C
  C46      1.0000 0.89880  0.45400  0.26350  Biso   1.000  C
  C47      1.0000 0.02680  0.28710  0.68610  Biso   1.000  C
  C48      1.0000 0.97320  0.71290  0.31390  Biso   1.000  C
  O29      1.0000 0.19870  0.04830  0.90520  Biso   1.000  O
  O30      1.0000 0.80130  0.95170  0.09480  Biso   1.000  O
  O31      1.0000 0.19040  0.06720  0.84380  Biso   1.000  O
  O32      1.0000 0.80960  0.93280  0.15620  Biso   1.000  O
  O33      1.0000 0.01000  0.96100  0.84700  Biso   1.000  O
  O34      1.0000 0.99000  0.03900  0.15300  Biso   1.000  O
