data_image0
_cell_length_a       11.129
_cell_length_b       17.624
_cell_length_c       19.353
_cell_angle_alpha    90
_cell_angle_beta     90
_cell_angle_gamma    90

_symmetry_space_group_name_H-M    "P 1"
_symmetry_int_tables_number       1

loop_
  _symmetry_equiv_pos_as_xyz
  'x, y, z'

loop_
  _atom_site_label
  _atom_site_occupancy
  _atom_site_fract_x
  _atom_site_fract_y
  _atom_site_fract_z
  _atom_site_thermal_displace_type
  _atom_site_B_iso_or_equiv
  _atom_site_type_symbol
  Cu1      1.0000 0.02140  0.88598  0.81055  Biso   1.000  Cu
  Cu2      1.0000 0.47860  0.11402  0.31055  Biso   1.000  Cu
  Cu3      1.0000 0.97860  0.38598  0.68945  Biso   1.000  Cu
  Cu4      1.0000 0.52140  0.61402  0.18945  Biso   1.000  Cu
  C1       1.0000 0.77820  0.86380  0.86870  Biso   1.000  C
  C2       1.0000 0.72180  0.13620  0.36870  Biso   1.000  C
  C3       1.0000 0.22180  0.36380  0.63130  Biso   1.000  C
  C4       1.0000 0.27820  0.63620  0.13130  Biso   1.000  C
  H1       1.0000 0.82080  0.85190  0.90860  Biso   1.000  H
  H2       1.0000 0.67920  0.14810  0.40860  Biso   1.000  H
  H3       1.0000 0.17920  0.35190  0.59140  Biso   1.000  H
  H4       1.0000 0.32080  0.64810  0.09140  Biso   1.000  H
  C5       1.0000 0.65510  0.86420  0.87220  Biso   1.000  C
  C6       1.0000 0.84490  0.13580  0.37220  Biso   1.000  C
  C7       1.0000 0.34490  0.36420  0.62780  Biso   1.000  C
  C8       1.0000 0.15510  0.63580  0.12780  Biso   1.000  C
  H5       1.0000 0.61590  0.85470  0.91370  Biso   1.000  H
  H6       1.0000 0.88410  0.14530  0.41370  Biso   1.000  H
  H7       1.0000 0.38410  0.35470  0.58630  Biso   1.000  H
  H8       1.0000 0.11590  0.64530  0.08630  Biso   1.000  H
  C9       1.0000 0.58940  0.87930  0.81190  Biso   1.000  C
  C10      1.0000 0.91060  0.12070  0.31190  Biso   1.000  C
  C11      1.0000 0.41060  0.37930  0.68810  Biso   1.000  C
  C12      1.0000 0.08940  0.62070  0.18810  Biso   1.000  C
  C13      1.0000 0.65390  0.89290  0.75110  Biso   1.000  C
  C14      1.0000 0.84610  0.10710  0.25110  Biso   1.000  C
  C15      1.0000 0.34610  0.39290  0.74890  Biso   1.000  C
  C16      1.0000 0.15390  0.60710  0.24890  Biso   1.000  C
  H9       1.0000 0.61360  0.90330  0.71010  Biso   1.000  H
  H10      1.0000 0.88640  0.09670  0.21010  Biso   1.000  H
  H11      1.0000 0.38640  0.40330  0.78990  Biso   1.000  H
  H12      1.0000 0.11360  0.59670  0.28990  Biso   1.000  H
  C17      1.0000 0.77850  0.89060  0.75270  Biso   1.000  C
  C18      1.0000 0.72150  0.10940  0.25270  Biso   1.000  C
  C19      1.0000 0.22150  0.39060  0.74730  Biso   1.000  C
  C20      1.0000 0.27850  0.60940  0.24730  Biso   1.000  C
  H13      1.0000 0.82100  0.89710  0.71170  Biso   1.000  H
  H14      1.0000 0.67900  0.10290  0.21170  Biso   1.000  H
  H15      1.0000 0.17900  0.39710  0.78830  Biso   1.000  H
  H16      1.0000 0.32100  0.60290  0.28830  Biso   1.000  H
  C21      1.0000 0.26460  0.87170  0.75600  Biso   1.000  C
  C22      1.0000 0.23540  0.12830  0.25600  Biso   1.000  C
  C23      1.0000 0.73540  0.37170  0.74400  Biso   1.000  C
  C24      1.0000 0.76460  0.62830  0.24400  Biso   1.000  C
  H17      1.0000 0.22220  0.86510  0.71500  Biso   1.000  H
  H18      1.0000 0.27780  0.13490  0.21500  Biso   1.000  H
  H19      1.0000 0.77780  0.36510  0.78500  Biso   1.000  H
  H20      1.0000 0.72220  0.63490  0.28500  Biso   1.000  H
  C25      1.0000 0.38670  0.87070  0.75230  Biso   1.000  C
  C26      1.0000 0.11330  0.12930  0.25230  Biso   1.000  C
  C27      1.0000 0.61330  0.37070  0.74770  Biso   1.000  C
  C28      1.0000 0.88670  0.62930  0.24770  Biso   1.000  C
  H21      1.0000 0.42460  0.86390  0.71000  Biso   1.000  H
  H22      1.0000 0.07540  0.13610  0.21000  Biso   1.000  H
  H23      1.0000 0.57540  0.36390  0.79000  Biso   1.000  H
  H24      1.0000 0.92460  0.63610  0.29000  Biso   1.000  H
  C29      1.0000 0.45500  0.87990  0.81210  Biso   1.000  C
  C30      1.0000 0.04500  0.12010  0.31210  Biso   1.000  C
  C31      1.0000 0.54500  0.37990  0.68790  Biso   1.000  C
  C32      1.0000 0.95500  0.62010  0.18790  Biso   1.000  C
  C33      1.0000 0.38960  0.88810  0.87420  Biso   1.000  C
  C34      1.0000 0.11040  0.11190  0.37420  Biso   1.000  C
  C35      1.0000 0.61040  0.38810  0.62580  Biso   1.000  C
  C36      1.0000 0.88960  0.61190  0.12580  Biso   1.000  C
  H25      1.0000 0.43030  0.89300  0.91590  Biso   1.000  H
  H26      1.0000 0.06970  0.10700  0.41590  Biso   1.000  H
  H27      1.0000 0.56970  0.39300  0.58410  Biso   1.000  H
  H28      1.0000 0.93030  0.60700  0.08410  Biso   1.000  H
  C37      1.0000 0.26470  0.88890  0.87330  Biso   1.000  C
  C38      1.0000 0.23530  0.11110  0.37330  Biso   1.000  C
  C39      1.0000 0.73530  0.38890  0.62670  Biso   1.000  C
  C40      1.0000 0.76470  0.61110  0.12670  Biso   1.000  C
  H29      1.0000 0.22360  0.89480  0.91480  Biso   1.000  H
  H30      1.0000 0.27640  0.10520  0.41480  Biso   1.000  H
  H31      1.0000 0.77640  0.39480  0.58520  Biso   1.000  H
  H32      1.0000 0.72360  0.60520  0.08520  Biso   1.000  H
  C41      1.0000 0.00900  0.74020  0.77770  Biso   1.000  C
  C42      1.0000 0.49100  0.25980  0.27770  Biso   1.000  C
  C43      1.0000 0.99100  0.24020  0.72230  Biso   1.000  C
  C44      1.0000 0.50900  0.75980  0.22230  Biso   1.000  C
  C45      1.0000 0.00930  0.96210  0.93930  Biso   1.000  C
  C46      1.0000 0.49070  0.03790  0.43930  Biso   1.000  C
  C47      1.0000 0.99070  0.46210  0.56070  Biso   1.000  C
  C48      1.0000 0.50930  0.53790  0.06070  Biso   1.000  C
  C49      1.0000 0.98630  0.67090  0.73200  Biso   1.000  C
  C50      1.0000 0.51370  0.32910  0.23200  Biso   1.000  C
  C51      1.0000 0.01370  0.17090  0.76800  Biso   1.000  C
  C52      1.0000 0.48630  0.82910  0.26800  Biso   1.000  C
  H33      1.0000 0.02670  0.67780  0.68750  Biso   1.000  H
  H34      1.0000 0.47330  0.32220  0.18750  Biso   1.000  H
  H35      1.0000 0.97330  0.17780  0.81250  Biso   1.000  H
  H36      1.0000 0.52670  0.82220  0.31250  Biso   1.000  H
  C53      1.0000 0.85020  0.65790  0.71990  Biso   1.000  C
  C54      1.0000 0.64980  0.34210  0.21990  Biso   1.000  C
  C55      1.0000 0.14980  0.15790  0.78010  Biso   1.000  C
  C56      1.0000 0.35020  0.84210  0.28010  Biso   1.000  C
  H37      1.0000 0.80330  0.68860  0.75150  Biso   1.000  H
  H38      1.0000 0.69670  0.31140  0.25150  Biso   1.000  H
  H39      1.0000 0.19670  0.18860  0.74850  Biso   1.000  H
  H40      1.0000 0.30330  0.81140  0.24850  Biso   1.000  H
  H41      1.0000 0.82860  0.67150  0.67300  Biso   1.000  H
  H42      1.0000 0.67140  0.32850  0.17300  Biso   1.000  H
  H43      1.0000 0.17140  0.17150  0.82700  Biso   1.000  H
  H44      1.0000 0.32860  0.82850  0.32700  Biso   1.000  H
  C57      1.0000 0.82740  0.57580  0.73230  Biso   1.000  C
  C58      1.0000 0.67260  0.42420  0.23230  Biso   1.000  C
  C59      1.0000 0.17260  0.07580  0.76770  Biso   1.000  C
  C60      1.0000 0.32740  0.92420  0.26770  Biso   1.000  C
  H45      1.0000 0.80650  0.55050  0.68940  Biso   1.000  H
  H46      1.0000 0.69350  0.44950  0.18940  Biso   1.000  H
  H47      1.0000 0.19350  0.05050  0.81060  Biso   1.000  H
  H48      1.0000 0.30650  0.94950  0.31060  Biso   1.000  H
  H49      1.0000 0.76170  0.56920  0.76470  Biso   1.000  H
  H50      1.0000 0.73830  0.43080  0.26470  Biso   1.000  H
  H51      1.0000 0.23830  0.06920  0.73530  Biso   1.000  H
  H52      1.0000 0.26170  0.93080  0.23530  Biso   1.000  H
  C61      1.0000 0.94270  0.54290  0.76180  Biso   1.000  C
  C62      1.0000 0.55730  0.45710  0.26180  Biso   1.000  C
  C63      1.0000 0.05730  0.04290  0.73820  Biso   1.000  C
  C64      1.0000 0.44270  0.95710  0.23820  Biso   1.000  C
  C65      1.0000 0.00430  0.03680  0.98130  Biso   1.000  C
  C66      1.0000 0.49570  0.96320  0.48130  Biso   1.000  C
  C67      1.0000 0.99570  0.53680  0.51870  Biso   1.000  C
  C68      1.0000 0.50430  0.46320  0.01870  Biso   1.000  C
  H53      1.0000 0.95450  0.07520  0.95850  Biso   1.000  H
  H54      1.0000 0.54550  0.92480  0.45850  Biso   1.000  H
  H55      1.0000 0.04550  0.57520  0.54150  Biso   1.000  H
  H56      1.0000 0.45450  0.42480  0.04150  Biso   1.000  H
  C69      1.0000 0.12990  0.06730  0.99890  Biso   1.000  C
  C70      1.0000 0.37010  0.93270  0.49890  Biso   1.000  C
  C71      1.0000 0.87010  0.56730  0.50110  Biso   1.000  C
  C72      1.0000 0.62990  0.43270  0.00110  Biso   1.000  C
  H57      1.0000 0.18630  0.05570  0.96210  Biso   1.000  H
  H58      1.0000 0.31370  0.94430  0.46210  Biso   1.000  H
  H59      1.0000 0.81370  0.55570  0.53790  Biso   1.000  H
  H60      1.0000 0.68630  0.44430  0.03790  Biso   1.000  H
  H61      1.0000 0.12760  0.12190  0.00540  Biso   1.000  H
  H62      1.0000 0.37240  0.87810  0.50540  Biso   1.000  H
  H63      1.0000 0.87240  0.62190  0.49460  Biso   1.000  H
  H64      1.0000 0.62760  0.37810  0.99460  Biso   1.000  H
  C73      1.0000 0.16550  0.02810  0.06470  Biso   1.000  C
  C74      1.0000 0.33450  0.97190  0.56470  Biso   1.000  C
  C75      1.0000 0.83450  0.52810  0.43530  Biso   1.000  C
  C76      1.0000 0.66550  0.47190  0.93530  Biso   1.000  C
  H65      1.0000 0.21180  0.06170  0.09400  Biso   1.000  H
  H66      1.0000 0.28820  0.93830  0.59400  Biso   1.000  H
  H67      1.0000 0.78820  0.56170  0.40600  Biso   1.000  H
  H68      1.0000 0.71180  0.43830  0.90600  Biso   1.000  H
  H69      1.0000 0.21290  0.98310  0.05500  Biso   1.000  H
  H70      1.0000 0.28710  0.01690  0.55500  Biso   1.000  H
  H71      1.0000 0.78710  0.48310  0.44500  Biso   1.000  H
  H72      1.0000 0.71290  0.51690  0.94500  Biso   1.000  H
  C77      1.0000 0.04830  0.00720  0.09840  Biso   1.000  C
  C78      1.0000 0.45170  0.99280  0.59840  Biso   1.000  C
  C79      1.0000 0.95170  0.50720  0.40160  Biso   1.000  C
  C80      1.0000 0.54830  0.49280  0.90160  Biso   1.000  C
  C81      1.0000 0.14770  0.58950  0.79150  Biso   1.000  C
  C82      1.0000 0.35230  0.41050  0.29150  Biso   1.000  C
  C83      1.0000 0.85230  0.08950  0.70850  Biso   1.000  C
  C84      1.0000 0.64770  0.91050  0.20850  Biso   1.000  C
  H73      1.0000 0.15660  0.53650  0.80430  Biso   1.000  H
  H74      1.0000 0.34340  0.46350  0.30430  Biso   1.000  H
  H75      1.0000 0.84340  0.03650  0.69570  Biso   1.000  H
  H76      1.0000 0.65660  0.96350  0.19570  Biso   1.000  H
  H77      1.0000 0.15460  0.61920  0.83350  Biso   1.000  H
  H78      1.0000 0.34540  0.38080  0.33350  Biso   1.000  H
  H79      1.0000 0.84540  0.11920  0.66650  Biso   1.000  H
  H80      1.0000 0.65460  0.88080  0.16650  Biso   1.000  H
  C85      1.0000 0.24820  0.61010  0.74550  Biso   1.000  C
  C86      1.0000 0.25180  0.38990  0.24550  Biso   1.000  C
  C87      1.0000 0.75180  0.11010  0.75450  Biso   1.000  C
  C88      1.0000 0.74820  0.88990  0.25450  Biso   1.000  C
  C89      1.0000 0.34130  0.65690  0.76930  Biso   1.000  C
  C90      1.0000 0.15870  0.34310  0.26930  Biso   1.000  C
  C91      1.0000 0.65870  0.15690  0.73070  Biso   1.000  C
  C92      1.0000 0.84130  0.84310  0.23070  Biso   1.000  C
  H81      1.0000 0.33750  0.67770  0.81340  Biso   1.000  H
  H82      1.0000 0.16250  0.32230  0.31340  Biso   1.000  H
  H83      1.0000 0.66250  0.17770  0.68660  Biso   1.000  H
  H84      1.0000 0.83750  0.82230  0.18660  Biso   1.000  H
  C93      1.0000 0.44040  0.67250  0.72670  Biso   1.000  C
  C94      1.0000 0.05960  0.32750  0.22670  Biso   1.000  C
  C95      1.0000 0.55960  0.17250  0.77330  Biso   1.000  C
  C96      1.0000 0.94040  0.82750  0.27330  Biso   1.000  C
  H85      1.0000 0.50180  0.70380  0.74260  Biso   1.000  H
  H86      1.0000 0.99820  0.29620  0.24260  Biso   1.000  H
  H87      1.0000 0.49820  0.20380  0.75740  Biso   1.000  H
  H88      1.0000 0.00180  0.79620  0.25740  Biso   1.000  H
  C97      1.0000 0.44650  0.64280  0.66420  Biso   1.000  C
  C98      1.0000 0.05350  0.35720  0.16420  Biso   1.000  C
  C99      1.0000 0.55350  0.14280  0.83580  Biso   1.000  C
  C100     1.0000 0.94650  0.85720  0.33580  Biso   1.000  C
  C101     1.0000 0.35900  0.59630  0.63750  Biso   1.000  C
  C102     1.0000 0.14100  0.40370  0.13750  Biso   1.000  C
  C103     1.0000 0.64100  0.09630  0.86250  Biso   1.000  C
  C104     1.0000 0.85900  0.90370  0.36250  Biso   1.000  C
  H89      1.0000 0.36550  0.57590  0.59330  Biso   1.000  H
  H90      1.0000 0.13450  0.42410  0.09330  Biso   1.000  H
  H91      1.0000 0.63450  0.07590  0.90670  Biso   1.000  H
  H92      1.0000 0.86550  0.92410  0.40670  Biso   1.000  H
  C105     1.0000 0.25840  0.58060  0.68000  Biso   1.000  C
  C106     1.0000 0.24160  0.41940  0.18000  Biso   1.000  C
  C107     1.0000 0.74160  0.08060  0.82000  Biso   1.000  C
  C108     1.0000 0.75840  0.91940  0.32000  Biso   1.000  C
  H93      1.0000 0.19760  0.54940  0.66310  Biso   1.000  H
  H94      1.0000 0.30240  0.45060  0.16310  Biso   1.000  H
  H95      1.0000 0.80240  0.04940  0.83690  Biso   1.000  H
  H96      1.0000 0.69760  0.95060  0.33690  Biso   1.000  H
  C109     1.0000 0.83570  0.99160  0.06380  Biso   1.000  C
  C110     1.0000 0.66430  0.00840  0.56380  Biso   1.000  C
  C111     1.0000 0.16430  0.49160  0.43620  Biso   1.000  C
  C112     1.0000 0.33570  0.50840  0.93620  Biso   1.000  C
  H97      1.0000 0.83240  0.96850  0.10930  Biso   1.000  H
  H98      1.0000 0.66760  0.03150  0.60930  Biso   1.000  H
  H99      1.0000 0.16760  0.46850  0.39070  Biso   1.000  H
  H100     1.0000 0.33240  0.53150  0.89070  Biso   1.000  H
  H101     1.0000 0.81900  0.95200  0.03030  Biso   1.000  H
  H102     1.0000 0.68100  0.04800  0.53030  Biso   1.000  H
  H103     1.0000 0.18100  0.45200  0.46970  Biso   1.000  H
  H104     1.0000 0.31900  0.54800  0.96970  Biso   1.000  H
  C113     1.0000 0.73730  0.04990  0.05920  Biso   1.000  C
  C114     1.0000 0.76270  0.95010  0.55920  Biso   1.000  C
  C115     1.0000 0.26270  0.54990  0.44080  Biso   1.000  C
  C116     1.0000 0.23730  0.45010  0.94080  Biso   1.000  C
  C117     1.0000 0.76230  0.12770  0.06040  Biso   1.000  C
  C118     1.0000 0.73770  0.87230  0.56040  Biso   1.000  C
  C119     1.0000 0.23770  0.62770  0.43960  Biso   1.000  C
  C120     1.0000 0.26230  0.37230  0.93960  Biso   1.000  C
  H105     1.0000 0.84130  0.14490  0.06050  Biso   1.000  H
  H106     1.0000 0.65870  0.85510  0.56050  Biso   1.000  H
  H107     1.0000 0.15870  0.64490  0.43950  Biso   1.000  H
  H108     1.0000 0.34130  0.35510  0.93950  Biso   1.000  H
  C121     1.0000 0.66510  0.17990  0.06150  Biso   1.000  C
  C122     1.0000 0.83490  0.82010  0.56150  Biso   1.000  C
  C123     1.0000 0.33490  0.67990  0.43850  Biso   1.000  C
  C124     1.0000 0.16510  0.32010  0.93850  Biso   1.000  C
  H109     1.0000 0.67890  0.23190  0.06000  Biso   1.000  H
  H110     1.0000 0.82110  0.76810  0.56000  Biso   1.000  H
  H111     1.0000 0.32110  0.73190  0.44000  Biso   1.000  H
  H112     1.0000 0.17890  0.26810  0.94000  Biso   1.000  H
  C125     1.0000 0.55190  0.15220  0.06460  Biso   1.000  C
  C126     1.0000 0.94810  0.84780  0.56460  Biso   1.000  C
  C127     1.0000 0.44810  0.65220  0.43540  Biso   1.000  C
  C128     1.0000 0.05190  0.34780  0.93540  Biso   1.000  C
  C129     1.0000 0.52420  0.07650  0.06230  Biso   1.000  C
  C130     1.0000 0.97580  0.92350  0.56230  Biso   1.000  C
  C131     1.0000 0.47580  0.57650  0.43770  Biso   1.000  C
  C132     1.0000 0.02420  0.42350  0.93770  Biso   1.000  C
  H113     1.0000 0.44470  0.06010  0.06230  Biso   1.000  H
  H114     1.0000 0.05530  0.93990  0.56230  Biso   1.000  H
  H115     1.0000 0.55530  0.56010  0.43770  Biso   1.000  H
  H116     1.0000 0.94470  0.43990  0.93770  Biso   1.000  H
  C133     1.0000 0.61930  0.02480  0.05990  Biso   1.000  C
  C134     1.0000 0.88070  0.97520  0.55990  Biso   1.000  C
  C135     1.0000 0.38070  0.52480  0.44010  Biso   1.000  C
  C136     1.0000 0.11930  0.47520  0.94010  Biso   1.000  C
  H117     1.0000 0.60320  0.97300  0.05880  Biso   1.000  H
  H118     1.0000 0.89680  0.02700  0.55880  Biso   1.000  H
  H119     1.0000 0.39680  0.47300  0.44120  Biso   1.000  H
  H120     1.0000 0.10320  0.52700  0.94120  Biso   1.000  H
  N1       1.0000 0.20040  0.88150  0.81410  Biso   1.000  N
  N2       1.0000 0.29960  0.11850  0.31410  Biso   1.000  N
  N3       1.0000 0.79960  0.38150  0.68590  Biso   1.000  N
  N4       1.0000 0.70040  0.61850  0.18590  Biso   1.000  N
  N5       1.0000 0.83980  0.87920  0.81190  Biso   1.000  N
  N6       1.0000 0.66020  0.12080  0.31190  Biso   1.000  N
  N7       1.0000 0.16020  0.37920  0.68810  Biso   1.000  N
  N8       1.0000 0.33980  0.62080  0.18810  Biso   1.000  N
  N9       1.0000 0.02610  0.60030  0.76330  Biso   1.000  N
  N10      1.0000 0.47390  0.39970  0.26330  Biso   1.000  N
  N11      1.0000 0.97390  0.10030  0.73670  Biso   1.000  N
  N12      1.0000 0.52610  0.89970  0.23670  Biso   1.000  N
  N13      1.0000 0.96000  0.01890  0.05210  Biso   1.000  N
  N14      1.0000 0.54000  0.98110  0.55210  Biso   1.000  N
  N15      1.0000 0.04000  0.51890  0.44790  Biso   1.000  N
  N16      1.0000 0.46000  0.48110  0.94790  Biso   1.000  N
  N17      1.0000 0.55140  0.65970  0.62200  Biso   1.000  N
  N18      1.0000 0.94860  0.34030  0.12200  Biso   1.000  N
  N19      1.0000 0.44860  0.15970  0.87800  Biso   1.000  N
  N20      1.0000 0.05140  0.84030  0.37800  Biso   1.000  N
  N21      1.0000 0.45010  0.20780  0.06660  Biso   1.000  N
  N22      1.0000 0.04990  0.79220  0.56660  Biso   1.000  N
  N23      1.0000 0.54990  0.70780  0.43340  Biso   1.000  N
  N24      1.0000 0.95010  0.29220  0.93340  Biso   1.000  N
  O1       1.0000 0.00970  0.73360  0.84140  Biso   1.000  O
  O2       1.0000 0.49030  0.26640  0.34140  Biso   1.000  O
  O3       1.0000 0.99030  0.23360  0.65860  Biso   1.000  O
  O4       1.0000 0.50970  0.76640  0.15860  Biso   1.000  O
  O5       1.0000 0.01880  0.90000  0.96540  Biso   1.000  O
  O6       1.0000 0.48120  0.10000  0.46540  Biso   1.000  O
  O7       1.0000 0.98120  0.40000  0.53460  Biso   1.000  O
  O8       1.0000 0.51880  0.60000  0.03460  Biso   1.000  O
  O9       1.0000 0.01970  0.80190  0.74400  Biso   1.000  O
  O10      1.0000 0.48030  0.19810  0.24400  Biso   1.000  O
  O11      1.0000 0.98030  0.30190  0.75600  Biso   1.000  O
  O12      1.0000 0.51970  0.69810  0.25600  Biso   1.000  O
  O13      1.0000 0.01360  0.97410  0.87300  Biso   1.000  O
  O14      1.0000 0.48640  0.02590  0.37300  Biso   1.000  O
  O15      1.0000 0.98640  0.47410  0.62700  Biso   1.000  O
  O16      1.0000 0.51360  0.52590  0.12700  Biso   1.000  O
  O17      1.0000 0.96210  0.47780  0.78040  Biso   1.000  O
  O18      1.0000 0.53790  0.52220  0.28040  Biso   1.000  O
  O19      1.0000 0.03790  0.97780  0.71960  Biso   1.000  O
  O20      1.0000 0.46210  0.02220  0.21960  Biso   1.000  O
  O21      1.0000 0.03350  0.98110  0.15650  Biso   1.000  O
  O22      1.0000 0.46650  0.01890  0.65650  Biso   1.000  O
  O23      1.0000 0.96650  0.48110  0.34350  Biso   1.000  O
  O24      1.0000 0.53350  0.51890  0.84350  Biso   1.000  O
  O25      1.0000 0.60340  0.72000  0.63250  Biso   1.000  O
  O26      1.0000 0.89660  0.28000  0.13250  Biso   1.000  O
  O27      1.0000 0.39660  0.22000  0.86750  Biso   1.000  O
  O28      1.0000 0.10340  0.78000  0.36750  Biso   1.000  O
  O29      1.0000 0.58720  0.61070  0.58090  Biso   1.000  O
  O30      1.0000 0.91280  0.38930  0.08090  Biso   1.000  O
  O31      1.0000 0.41280  0.11070  0.91910  Biso   1.000  O
  O32      1.0000 0.08720  0.88930  0.41910  Biso   1.000  O
  O33      1.0000 0.34910  0.18330  0.07840  Biso   1.000  O
  O34      1.0000 0.15090  0.81670  0.57840  Biso   1.000  O
  O35      1.0000 0.65090  0.68330  0.42160  Biso   1.000  O
  O36      1.0000 0.84910  0.31670  0.92160  Biso   1.000  O
  O37      1.0000 0.47320  0.27400  0.05800  Biso   1.000  O
  O38      1.0000 0.02680  0.72600  0.55800  Biso   1.000  O
  O39      1.0000 0.52680  0.77400  0.44200  Biso   1.000  O
  O40      1.0000 0.97320  0.22600  0.94200  Biso   1.000  O
  O41      1.0000 0.17530  0.70150  0.95860  Biso   1.000  O
  O42      1.0000 0.32470  0.29850  0.45860  Biso   1.000  O
  O43      1.0000 0.82470  0.20150  0.54140  Biso   1.000  O
  O44      1.0000 0.67530  0.79850  0.04140  Biso   1.000  O
  O45      1.0000 0.92480  0.77830  0.04180  Biso   1.000  O
  O46      1.0000 0.57520  0.22170  0.54180  Biso   1.000  O
  O47      1.0000 0.07520  0.27830  0.45820  Biso   1.000  O
  O48      1.0000 0.42480  0.72170  0.95820  Biso   1.000  O
  O49      1.0000 0.86840  0.65400  0.94140  Biso   1.000  O
  O50      1.0000 0.63160  0.34600  0.44140  Biso   1.000  O
  O51      1.0000 0.13160  0.15400  0.55860  Biso   1.000  O
  O52      1.0000 0.36840  0.84600  0.05860  Biso   1.000  O
  O53      1.0000 0.63420  0.67170  0.87060  Biso   1.000  O
  O54      1.0000 0.86580  0.32830  0.37060  Biso   1.000  O
  O55      1.0000 0.36580  0.17170  0.62940  Biso   1.000  O
  O56      1.0000 0.13420  0.82830  0.12940  Biso   1.000  O
