data_image0
_cell_length_a       7.2547
_cell_length_b       7.3221
_cell_length_c       13.748
_cell_angle_alpha    90
_cell_angle_beta     100.432
_cell_angle_gamma    90

_symmetry_space_group_name_H-M    "P 1"
_symmetry_int_tables_number       1

loop_
  _symmetry_equiv_pos_as_xyz
  'x, y, z'

loop_
  _atom_site_label
  _atom_site_occupancy
  _atom_site_fract_x
  _atom_site_fract_y
  _atom_site_fract_z
  _atom_site_thermal_displace_type
  _atom_site_B_iso_or_equiv
  _atom_site_type_symbol
  Cu1      1.0000 0.95955  0.22495  0.67359  Biso   1.000  Cu
  Cu2      1.0000 0.04045  0.72495  0.32641  Biso   1.000  Cu
  C1       1.0000 0.73130  0.90250  0.65830  Biso   1.000  C
  C2       1.0000 0.26870  0.40250  0.34170  Biso   1.000  C
  C3       1.0000 0.52730  0.84430  0.62950  Biso   1.000  C
  C4       1.0000 0.47270  0.34430  0.37050  Biso   1.000  C
  H1       1.0000 0.48890  0.78600  0.68600  Biso   1.000  H
  H2       1.0000 0.51110  0.28600  0.31400  Biso   1.000  H
  H3       1.0000 0.51740  0.75430  0.57700  Biso   1.000  H
  H4       1.0000 0.48260  0.25430  0.42300  Biso   1.000  H
  C5       1.0000 0.39230  0.00210  0.59460  Biso   1.000  C
  C6       1.0000 0.60770  0.50210  0.40540  Biso   1.000  C
  H5       1.0000 0.44830  0.07860  0.55020  Biso   1.000  H
  H6       1.0000 0.55170  0.57860  0.44980  Biso   1.000  H
  H7       1.0000 0.27780  0.95140  0.55680  Biso   1.000  H
  H8       1.0000 0.72220  0.45140  0.44320  Biso   1.000  H
  C7       1.0000 0.34130  0.12190  0.67620  Biso   1.000  C
  C8       1.0000 0.65870  0.62190  0.32380  Biso   1.000  C
  H9       1.0000 0.44860  0.12170  0.73090  Biso   1.000  H
  H10      1.0000 0.55140  0.62170  0.26910  Biso   1.000  H
  C9       1.0000 0.30460  0.31880  0.64370  Biso   1.000  C
  C10      1.0000 0.69540  0.81880  0.35630  Biso   1.000  C
  C11      1.0000 0.20820  0.01690  0.82470  Biso   1.000  C
  C12      1.0000 0.79180  0.51690  0.17530  Biso   1.000  C
  H11      1.0000 0.09230  0.97770  0.84400  Biso   1.000  H
  H12      1.0000 0.90770  0.47770  0.15600  Biso   1.000  H
  H13      1.0000 0.24700  0.13000  0.85920  Biso   1.000  H
  H14      1.0000 0.75300  0.63000  0.14080  Biso   1.000  H
  C13      1.0000 0.35770  0.87260  0.85530  Biso   1.000  C
  C14      1.0000 0.64230  0.37260  0.14470  Biso   1.000  C
  C15      1.0000 0.54050  0.92130  0.89560  Biso   1.000  C
  C16      1.0000 0.45950  0.42130  0.10440  Biso   1.000  C
  H15      1.0000 0.56970  0.04330  0.90960  Biso   1.000  H
  H16      1.0000 0.43030  0.54330  0.09040  Biso   1.000  H
  C17      1.0000 0.67910  0.79070  0.91510  Biso   1.000  C
  C18      1.0000 0.32090  0.29070  0.08490  Biso   1.000  C
  H17      1.0000 0.80170  0.82460  0.94100  Biso   1.000  H
  H18      1.0000 0.19830  0.32460  0.05900  Biso   1.000  H
  C19      1.0000 0.63530  0.60990  0.89630  Biso   1.000  C
  C20      1.0000 0.36470  0.10990  0.10370  Biso   1.000  C
  C21      1.0000 0.45050  0.55920  0.85900  Biso   1.000  C
  C22      1.0000 0.54950  0.05920  0.14100  Biso   1.000  C
  H19      1.0000 0.42000  0.43680  0.84730  Biso   1.000  H
  H20      1.0000 0.58000  0.93680  0.15270  Biso   1.000  H
  C23      1.0000 0.31460  0.69040  0.83960  Biso   1.000  C
  C24      1.0000 0.68540  0.19040  0.16040  Biso   1.000  C
  H21      1.0000 0.19130  0.65620  0.81560  Biso   1.000  H
  H22      1.0000 0.80870  0.15620  0.18440  Biso   1.000  H
  C25      1.0000 0.78000  0.46890  0.91370  Biso   1.000  C
  C26      1.0000 0.22000  0.96890  0.08630  Biso   1.000  C
  N1       1.0000 0.17440  0.05060  0.71570  Biso   1.000  N
  N2       1.0000 0.82560  0.55060  0.28430  Biso   1.000  N
  H23      1.0000 0.14160  0.94190  0.68540  Biso   1.000  H
  H24      1.0000 0.85840  0.44190  0.31460  Biso   1.000  H
  N3       1.0000 0.89080  0.35870  0.92660  Biso   1.000  N
  N4       1.0000 0.10920  0.85870  0.07340  Biso   1.000  N
  O1       1.0000 0.15130  0.39320  0.65710  Biso   1.000  O
  O2       1.0000 0.84870  0.89320  0.34290  Biso   1.000  O
  O3       1.0000 0.41950  0.40140  0.60390  Biso   1.000  O
  O4       1.0000 0.58050  0.90140  0.39610  Biso   1.000  O
  O5       1.0000 0.75660  0.06830  0.68570  Biso   1.000  O
  O6       1.0000 0.24340  0.56830  0.31430  Biso   1.000  O
  O7       1.0000 0.85770  0.79240  0.65460  Biso   1.000  O
  O8       1.0000 0.14230  0.29240  0.34540  Biso   1.000  O
  O9       1.0000 0.78430  0.42920  0.67070  Biso   1.000  O
  O10      1.0000 0.21570  0.92920  0.32930  Biso   1.000  O
  H25      1.0000 0.67810  0.39480  0.64710  Biso   1.000  H
  H26      1.0000 0.32190  0.89480  0.35290  Biso   1.000  H
  O11      1.0000 0.93220  0.16080  0.50070  Biso   1.000  O
  O12      1.0000 0.06780  0.66080  0.49930  Biso   1.000  O
  H27      1.0000 0.01080  0.22000  0.47810  Biso   1.000  H
  H28      1.0000 0.98920  0.72000  0.52190  Biso   1.000  H
