data_image0
_cell_length_a       27.967
_cell_length_b       5.779
_cell_length_c       22.193
_cell_angle_alpha    90
_cell_angle_beta     114.499
_cell_angle_gamma    90

_symmetry_space_group_name_H-M    "P 1"
_symmetry_int_tables_number       1

loop_
  _symmetry_equiv_pos_as_xyz
  'x, y, z'

loop_
  _atom_site_label
  _atom_site_occupancy
  _atom_site_fract_x
  _atom_site_fract_y
  _atom_site_fract_z
  _atom_site_thermal_displace_type
  _atom_site_B_iso_or_equiv
  _atom_site_type_symbol
  Cu1      1.0000 0.50000  0.38630  0.00000  Biso   1.000  Cu
  Cu2      1.0000 0.00000  0.88630  0.00000  Biso   1.000  Cu
  Cu3      1.0000 0.50000  0.61529  0.50000  Biso   1.000  Cu
  Cu4      1.0000 0.00000  0.11529  0.50000  Biso   1.000  Cu
  C1       1.0000 0.46415  0.41030  0.59901  Biso   1.000  C
  C2       1.0000 0.53585  0.41030  0.40099  Biso   1.000  C
  C3       1.0000 0.96415  0.91030  0.59901  Biso   1.000  C
  C4       1.0000 0.03585  0.91030  0.40099  Biso   1.000  C
  H1       1.0000 0.44840  0.29840  0.56670  Biso   1.000  H
  H2       1.0000 0.55160  0.29840  0.43330  Biso   1.000  H
  H3       1.0000 0.94840  0.79840  0.56670  Biso   1.000  H
  H4       1.0000 0.05160  0.79840  0.43330  Biso   1.000  H
  C5       1.0000 0.46319  0.38050  0.66026  Biso   1.000  C
  C6       1.0000 0.53681  0.38050  0.33974  Biso   1.000  C
  C7       1.0000 0.96319  0.88050  0.66026  Biso   1.000  C
  C8       1.0000 0.03681  0.88050  0.33974  Biso   1.000  C
  H5       1.0000 0.44700  0.25070  0.66810  Biso   1.000  H
  H6       1.0000 0.55300  0.25070  0.33190  Biso   1.000  H
  H7       1.0000 0.94700  0.75070  0.66810  Biso   1.000  H
  H8       1.0000 0.05300  0.75070  0.33190  Biso   1.000  H
  C9       1.0000 0.48610  0.54220  0.70999  Biso   1.000  C
  C10      1.0000 0.51390  0.54220  0.29001  Biso   1.000  C
  C11      1.0000 0.98610  0.04220  0.70999  Biso   1.000  C
  C12      1.0000 0.01390  0.04220  0.29001  Biso   1.000  C
  C13      1.0000 0.50716  0.73320  0.69319  Biso   1.000  C
  C14      1.0000 0.49284  0.73320  0.30681  Biso   1.000  C
  C15      1.0000 0.00716  0.23320  0.69319  Biso   1.000  C
  C16      1.0000 0.99284  0.23320  0.30681  Biso   1.000  C
  H9       1.0000 0.52160  0.85080  0.72410  Biso   1.000  H
  H10      1.0000 0.47840  0.85080  0.27590  Biso   1.000  H
  H11      1.0000 0.02160  0.35080  0.72410  Biso   1.000  H
  H12      1.0000 0.97840  0.35080  0.27590  Biso   1.000  H
  C17      1.0000 0.50735  0.75390  0.63147  Biso   1.000  C
  C18      1.0000 0.49265  0.75390  0.36853  Biso   1.000  C
  C19      1.0000 0.00735  0.25390  0.63147  Biso   1.000  C
  C20      1.0000 0.99265  0.25390  0.36853  Biso   1.000  C
  H13      1.0000 0.52240  0.88500  0.62210  Biso   1.000  H
  H14      1.0000 0.47760  0.88500  0.37790  Biso   1.000  H
  H15      1.0000 0.02240  0.38500  0.62210  Biso   1.000  H
  H16      1.0000 0.97760  0.38500  0.37790  Biso   1.000  H
  C21      1.0000 0.52324  0.60780  0.89357  Biso   1.000  C
  C22      1.0000 0.47676  0.60780  0.10643  Biso   1.000  C
  C23      1.0000 0.02324  0.10780  0.89357  Biso   1.000  C
  C24      1.0000 0.97676  0.10780  0.10643  Biso   1.000  C
  H17      1.0000 0.54370  0.70670  0.92750  Biso   1.000  H
  H18      1.0000 0.45630  0.70670  0.07250  Biso   1.000  H
  H19      1.0000 0.04370  0.20670  0.92750  Biso   1.000  H
  H20      1.0000 0.95630  0.20670  0.07250  Biso   1.000  H
  C25      1.0000 0.51926  0.64880  0.83015  Biso   1.000  C
  C26      1.0000 0.48074  0.64880  0.16985  Biso   1.000  C
  C27      1.0000 0.01926  0.14880  0.83015  Biso   1.000  C
  C28      1.0000 0.98074  0.14880  0.16985  Biso   1.000  C
  H21      1.0000 0.53650  0.77530  0.82240  Biso   1.000  H
  H22      1.0000 0.46350  0.77530  0.17760  Biso   1.000  H
  H23      1.0000 0.03650  0.27530  0.82240  Biso   1.000  H
  H24      1.0000 0.96350  0.27530  0.17760  Biso   1.000  H
  C29      1.0000 0.49019  0.50550  0.77844  Biso   1.000  C
  C30      1.0000 0.50981  0.50550  0.22156  Biso   1.000  C
  C31      1.0000 0.99019  0.00550  0.77844  Biso   1.000  C
  C32      1.0000 0.00981  0.00550  0.22156  Biso   1.000  C
  C33      1.0000 0.46564  0.32560  0.79400  Biso   1.000  C
  C34      1.0000 0.53436  0.32560  0.20600  Biso   1.000  C
  C35      1.0000 0.96564  0.82560  0.79400  Biso   1.000  C
  C36      1.0000 0.03436  0.82560  0.20600  Biso   1.000  C
  H25      1.0000 0.44530  0.22290  0.76110  Biso   1.000  H
  H26      1.0000 0.55470  0.22290  0.23890  Biso   1.000  H
  H27      1.0000 0.94530  0.72290  0.76110  Biso   1.000  H
  H28      1.0000 0.05470  0.72290  0.23890  Biso   1.000  H
  C37      1.0000 0.47071  0.29460  0.85825  Biso   1.000  C
  C38      1.0000 0.52929  0.29460  0.14175  Biso   1.000  C
  C39      1.0000 0.97071  0.79460  0.85825  Biso   1.000  C
  C40      1.0000 0.02929  0.79460  0.14175  Biso   1.000  C
  H29      1.0000 0.45340  0.17050  0.86700  Biso   1.000  H
  H30      1.0000 0.54660  0.17050  0.13300  Biso   1.000  H
  H31      1.0000 0.95340  0.67050  0.86700  Biso   1.000  H
  H32      1.0000 0.04660  0.67050  0.13300  Biso   1.000  H
  C41      1.0000 0.39700  0.55330  0.92893  Biso   1.000  C
  C42      1.0000 0.60300  0.55330  0.07107  Biso   1.000  C
  C43      1.0000 0.89700  0.05330  0.92893  Biso   1.000  C
  C44      1.0000 0.10300  0.05330  0.07107  Biso   1.000  C
  C45      1.0000 0.34035  0.50230  0.88015  Biso   1.000  C
  C46      1.0000 0.65965  0.50230  0.11985  Biso   1.000  C
  C47      1.0000 0.84035  0.00230  0.88015  Biso   1.000  C
  C48      1.0000 0.15965  0.00230  0.11985  Biso   1.000  C
  H33      1.0000 0.33230  0.33830  0.88240  Biso   1.000  H
  H34      1.0000 0.66770  0.33830  0.11760  Biso   1.000  H
  H35      1.0000 0.83230  0.83830  0.88240  Biso   1.000  H
  H36      1.0000 0.16770  0.83830  0.11760  Biso   1.000  H
  C49      1.0000 0.33172  0.56640  0.80908  Biso   1.000  C
  C50      1.0000 0.66828  0.56640  0.19092  Biso   1.000  C
  C51      1.0000 0.83172  0.06640  0.80908  Biso   1.000  C
  C52      1.0000 0.16828  0.06640  0.19092  Biso   1.000  C
  H37      1.0000 0.36500  0.58070  0.80560  Biso   1.000  H
  H38      1.0000 0.63500  0.58070  0.19440  Biso   1.000  H
  H39      1.0000 0.86500  0.08070  0.80560  Biso   1.000  H
  H40      1.0000 0.13500  0.08070  0.19440  Biso   1.000  H
  H41      1.0000 0.31060  0.45020  0.77790  Biso   1.000  H
  H42      1.0000 0.68940  0.45020  0.22210  Biso   1.000  H
  H43      1.0000 0.81060  0.95020  0.77790  Biso   1.000  H
  H44      1.0000 0.18940  0.95020  0.22210  Biso   1.000  H
  C53      1.0000 0.30340  0.79590  0.79603  Biso   1.000  C
  C54      1.0000 0.69660  0.79590  0.20397  Biso   1.000  C
  C55      1.0000 0.80340  0.29590  0.79603  Biso   1.000  C
  C56      1.0000 0.19660  0.29590  0.20397  Biso   1.000  C
  H45      1.0000 0.32760  0.92190  0.80070  Biso   1.000  H
  H46      1.0000 0.67240  0.92190  0.19930  Biso   1.000  H
  H47      1.0000 0.82760  0.42190  0.80070  Biso   1.000  H
  H48      1.0000 0.17240  0.42190  0.19930  Biso   1.000  H
  H49      1.0000 0.27560  0.79980  0.75170  Biso   1.000  H
  H50      1.0000 0.72440  0.79980  0.24830  Biso   1.000  H
  H51      1.0000 0.77560  0.29980  0.75170  Biso   1.000  H
  H52      1.0000 0.22440  0.29980  0.24830  Biso   1.000  H
  C57      1.0000 0.28115  0.81580  0.84667  Biso   1.000  C
  C58      1.0000 0.71885  0.81580  0.15333  Biso   1.000  C
  C59      1.0000 0.78115  0.31580  0.84667  Biso   1.000  C
  C60      1.0000 0.21885  0.31580  0.15333  Biso   1.000  C
  C61      1.0000 0.28717  0.60800  0.94568  Biso   1.000  C
  C62      1.0000 0.71283  0.60800  0.05432  Biso   1.000  C
  C63      1.0000 0.78717  0.10800  0.94568  Biso   1.000  C
  C64      1.0000 0.21283  0.10800  0.05432  Biso   1.000  C
  H53      1.0000 0.29180  0.44500  0.95720  Biso   1.000  H
  H54      1.0000 0.70820  0.44500  0.04280  Biso   1.000  H
  H55      1.0000 0.79180  0.94500  0.95720  Biso   1.000  H
  H56      1.0000 0.20820  0.94500  0.04280  Biso   1.000  H
  H57      1.0000 0.25000  0.64230  0.93010  Biso   1.000  H
  H58      1.0000 0.75000  0.64230  0.06990  Biso   1.000  H
  H59      1.0000 0.75000  0.14230  0.93010  Biso   1.000  H
  H60      1.0000 0.25000  0.14230  0.06990  Biso   1.000  H
  C65      1.0000 0.31654  0.74660  0.00769  Biso   1.000  C
  C66      1.0000 0.68346  0.74660  0.99231  Biso   1.000  C
  C67      1.0000 0.81654  0.24660  0.00769  Biso   1.000  C
  C68      1.0000 0.18346  0.24660  0.99231  Biso   1.000  C
  C69      1.0000 0.34544  0.94460  0.00901  Biso   1.000  C
  C70      1.0000 0.65456  0.94460  0.99099  Biso   1.000  C
  C71      1.0000 0.84544  0.44460  0.00901  Biso   1.000  C
  C72      1.0000 0.15456  0.44460  0.99099  Biso   1.000  C
  H61      1.0000 0.34920  0.99080  0.97100  Biso   1.000  H
  H62      1.0000 0.65080  0.99080  0.02900  Biso   1.000  H
  H63      1.0000 0.84920  0.49080  0.97100  Biso   1.000  H
  H64      1.0000 0.15080  0.49080  0.02900  Biso   1.000  H
  C73      1.0000 0.36852  0.07230  0.06632  Biso   1.000  C
  C74      1.0000 0.63148  0.07230  0.93368  Biso   1.000  C
  C75      1.0000 0.86852  0.57230  0.06632  Biso   1.000  C
  C76      1.0000 0.13148  0.57230  0.93368  Biso   1.000  C
  H65      1.0000 0.38740  0.20550  0.06690  Biso   1.000  H
  H66      1.0000 0.61260  0.20550  0.93310  Biso   1.000  H
  H67      1.0000 0.88740  0.70550  0.06690  Biso   1.000  H
  H68      1.0000 0.11260  0.70550  0.93310  Biso   1.000  H
  C77      1.0000 0.36344  0.00060  0.12348  Biso   1.000  C
  C78      1.0000 0.63656  0.00060  0.87652  Biso   1.000  C
  C79      1.0000 0.86344  0.50060  0.12348  Biso   1.000  C
  C80      1.0000 0.13656  0.50060  0.87652  Biso   1.000  C
  C81      1.0000 0.33527  0.80510  0.12251  Biso   1.000  C
  C82      1.0000 0.66473  0.80510  0.87749  Biso   1.000  C
  C83      1.0000 0.83527  0.30510  0.12251  Biso   1.000  C
  C84      1.0000 0.16473  0.30510  0.87749  Biso   1.000  C
  H69      1.0000 0.33180  0.75810  0.16060  Biso   1.000  H
  H70      1.0000 0.66820  0.75810  0.83940  Biso   1.000  H
  H71      1.0000 0.83180  0.25810  0.16060  Biso   1.000  H
  H72      1.0000 0.16820  0.25810  0.83940  Biso   1.000  H
  C85      1.0000 0.31204  0.67850  0.06494  Biso   1.000  C
  C86      1.0000 0.68796  0.67850  0.93506  Biso   1.000  C
  C87      1.0000 0.81204  0.17850  0.06494  Biso   1.000  C
  C88      1.0000 0.18796  0.17850  0.93506  Biso   1.000  C
  H73      1.0000 0.29310  0.54570  0.06460  Biso   1.000  H
  H74      1.0000 0.70690  0.54570  0.93540  Biso   1.000  H
  H75      1.0000 0.79310  0.04570  0.06460  Biso   1.000  H
  H76      1.0000 0.20690  0.04570  0.93540  Biso   1.000  H
  C89      1.0000 0.38868  0.13090  0.18406  Biso   1.000  C
  C90      1.0000 0.61132  0.13090  0.81594  Biso   1.000  C
  C91      1.0000 0.88868  0.63090  0.18406  Biso   1.000  C
  C92      1.0000 0.11132  0.63090  0.81594  Biso   1.000  C
  C93      1.0000 0.59853  0.42690  0.58772  Biso   1.000  C
  C94      1.0000 0.40147  0.42690  0.41228  Biso   1.000  C
  C95      1.0000 0.09853  0.92690  0.58772  Biso   1.000  C
  C96      1.0000 0.90147  0.92690  0.41228  Biso   1.000  C
  C97      1.0000 0.65122  0.45840  0.64755  Biso   1.000  C
  C98      1.0000 0.34878  0.45840  0.35245  Biso   1.000  C
  C99      1.0000 0.15122  0.95840  0.64755  Biso   1.000  C
  C100     1.0000 0.84878  0.95840  0.35245  Biso   1.000  C
  H77      1.0000 0.66590  0.30540  0.66410  Biso   1.000  H
  H78      1.0000 0.33410  0.30540  0.33590  Biso   1.000  H
  H79      1.0000 0.16590  0.80540  0.66410  Biso   1.000  H
  H80      1.0000 0.83410  0.80540  0.33590  Biso   1.000  H
  C101     1.0000 0.64715  0.59220  0.70289  Biso   1.000  C
  C102     1.0000 0.35285  0.59220  0.29711  Biso   1.000  C
  C103     1.0000 0.14715  0.09220  0.70289  Biso   1.000  C
  C104     1.0000 0.85285  0.09220  0.29711  Biso   1.000  C
  H81      1.0000 0.61060  0.61560  0.69450  Biso   1.000  H
  H82      1.0000 0.38940  0.61560  0.30550  Biso   1.000  H
  H83      1.0000 0.11060  0.11560  0.69450  Biso   1.000  H
  H84      1.0000 0.88940  0.11560  0.30550  Biso   1.000  H
  H85      1.0000 0.66430  0.50920  0.74440  Biso   1.000  H
  H86      1.0000 0.33570  0.50920  0.25560  Biso   1.000  H
  H87      1.0000 0.16430  0.00920  0.74440  Biso   1.000  H
  H88      1.0000 0.83570  0.00920  0.25560  Biso   1.000  H
  C105     1.0000 0.67310  0.81570  0.70620  Biso   1.000  C
  C106     1.0000 0.32690  0.81570  0.29380  Biso   1.000  C
  C107     1.0000 0.17310  0.31570  0.70620  Biso   1.000  C
  C108     1.0000 0.82690  0.31570  0.29380  Biso   1.000  C
  H89      1.0000 0.69670  0.85170  0.75160  Biso   1.000  H
  H90      1.0000 0.30330  0.85170  0.24840  Biso   1.000  H
  H91      1.0000 0.19670  0.35170  0.75160  Biso   1.000  H
  H92      1.0000 0.80330  0.35170  0.24840  Biso   1.000  H
  H93      1.0000 0.64730  0.93850  0.68940  Biso   1.000  H
  H94      1.0000 0.35270  0.93850  0.31060  Biso   1.000  H
  H95      1.0000 0.14730  0.43850  0.68940  Biso   1.000  H
  H96      1.0000 0.85270  0.43850  0.31060  Biso   1.000  H
  C109     1.0000 0.70316  0.79140  0.66435  Biso   1.000  C
  C110     1.0000 0.29684  0.79140  0.33565  Biso   1.000  C
  C111     1.0000 0.20316  0.29140  0.66435  Biso   1.000  C
  C112     1.0000 0.79684  0.29140  0.33565  Biso   1.000  C
  C113     1.0000 0.71285  0.50030  0.58979  Biso   1.000  C
  C114     1.0000 0.28715  0.50030  0.41021  Biso   1.000  C
  C115     1.0000 0.21285  0.00030  0.58979  Biso   1.000  C
  C116     1.0000 0.78715  0.00030  0.41021  Biso   1.000  C
  H97      1.0000 0.71080  0.33270  0.58910  Biso   1.000  H
  H98      1.0000 0.28920  0.33270  0.41090  Biso   1.000  H
  H99      1.0000 0.21080  0.83270  0.58910  Biso   1.000  H
  H100     1.0000 0.78920  0.83270  0.41090  Biso   1.000  H
  H101     1.0000 0.74980  0.54210  0.60900  Biso   1.000  H
  H102     1.0000 0.25020  0.54210  0.39100  Biso   1.000  H
  H103     1.0000 0.24980  0.04210  0.60900  Biso   1.000  H
  H104     1.0000 0.75020  0.04210  0.39100  Biso   1.000  H
  C117     1.0000 0.68836  0.58650  0.51975  Biso   1.000  C
  C118     1.0000 0.31164  0.58650  0.48025  Biso   1.000  C
  C119     1.0000 0.18836  0.08650  0.51975  Biso   1.000  C
  C120     1.0000 0.81164  0.08650  0.48025  Biso   1.000  C
  C121     1.0000 0.65725  0.78110  0.50213  Biso   1.000  C
  C122     1.0000 0.34275  0.78110  0.49787  Biso   1.000  C
  C123     1.0000 0.15725  0.28110  0.50213  Biso   1.000  C
  C124     1.0000 0.84275  0.28110  0.49787  Biso   1.000  C
  H105     1.0000 0.64820  0.85510  0.53320  Biso   1.000  H
  H106     1.0000 0.35180  0.85510  0.46680  Biso   1.000  H
  H107     1.0000 0.14820  0.35510  0.53320  Biso   1.000  H
  H108     1.0000 0.85180  0.35510  0.46680  Biso   1.000  H
  C125     1.0000 0.63940  0.86720  0.43831  Biso   1.000  C
  C126     1.0000 0.36060  0.86720  0.56169  Biso   1.000  C
  C127     1.0000 0.13940  0.36720  0.43831  Biso   1.000  C
  C128     1.0000 0.86060  0.36720  0.56169  Biso   1.000  C
  H109     1.0000 0.61880  0.99990  0.42660  Biso   1.000  H
  H110     1.0000 0.38120  0.99990  0.57340  Biso   1.000  H
  H111     1.0000 0.11880  0.49990  0.42660  Biso   1.000  H
  H112     1.0000 0.88120  0.49990  0.57340  Biso   1.000  H
  C129     1.0000 0.65222  0.75600  0.39216  Biso   1.000  C
  C130     1.0000 0.34778  0.75600  0.60784  Biso   1.000  C
  C131     1.0000 0.15222  0.25600  0.39216  Biso   1.000  C
  C132     1.0000 0.84778  0.25600  0.60784  Biso   1.000  C
  C133     1.0000 0.68252  0.55900  0.40881  Biso   1.000  C
  C134     1.0000 0.31748  0.55900  0.59119  Biso   1.000  C
  C135     1.0000 0.18252  0.05900  0.40881  Biso   1.000  C
  C136     1.0000 0.81748  0.05900  0.59119  Biso   1.000  C
  H113     1.0000 0.69090  0.48290  0.37750  Biso   1.000  H
  H114     1.0000 0.30910  0.48290  0.62250  Biso   1.000  H
  H115     1.0000 0.19090  0.98290  0.37750  Biso   1.000  H
  H116     1.0000 0.80910  0.98290  0.62250  Biso   1.000  H
  C137     1.0000 0.70030  0.47640  0.47244  Biso   1.000  C
  C138     1.0000 0.29970  0.47640  0.52756  Biso   1.000  C
  C139     1.0000 0.20030  0.97640  0.47244  Biso   1.000  C
  C140     1.0000 0.79970  0.97640  0.52756  Biso   1.000  C
  H117     1.0000 0.72080  0.34340  0.48390  Biso   1.000  H
  H118     1.0000 0.27920  0.34340  0.51610  Biso   1.000  H
  H119     1.0000 0.22080  0.84340  0.48390  Biso   1.000  H
  H120     1.0000 0.77920  0.84340  0.51610  Biso   1.000  H
  C141     1.0000 0.63325  0.84680  0.32600  Biso   1.000  C
  C142     1.0000 0.36675  0.84680  0.67400  Biso   1.000  C
  C143     1.0000 0.13325  0.34680  0.32600  Biso   1.000  C
  C144     1.0000 0.86675  0.34680  0.67400  Biso   1.000  C
  N1       1.0000 0.49886  0.43210  0.90767  Biso   1.000  N
  N2       1.0000 0.50114  0.43210  0.09233  Biso   1.000  N
  N3       1.0000 0.99886  0.93210  0.90767  Biso   1.000  N
  N4       1.0000 0.00114  0.93210  0.09233  Biso   1.000  N
  N5       1.0000 0.48661  0.59160  0.58406  Biso   1.000  N
  N6       1.0000 0.51339  0.59160  0.41594  Biso   1.000  N
  N7       1.0000 0.98661  0.09160  0.58406  Biso   1.000  N
  N8       1.0000 0.01339  0.09160  0.41594  Biso   1.000  N
  N9       1.0000 0.30227  0.64620  0.89192  Biso   1.000  N
  N10      1.0000 0.69773  0.64620  0.10808  Biso   1.000  N
  N11      1.0000 0.80227  0.14620  0.89192  Biso   1.000  N
  N12      1.0000 0.19773  0.14620  0.10808  Biso   1.000  N
  N13      1.0000 0.40950  0.22180  0.23286  Biso   1.000  N
  N14      1.0000 0.59050  0.22180  0.76714  Biso   1.000  N
  N15      1.0000 0.90950  0.72180  0.23286  Biso   1.000  N
  N16      1.0000 0.09050  0.72180  0.76714  Biso   1.000  N
  N17      1.0000 0.68919  0.58770  0.63244  Biso   1.000  N
  N18      1.0000 0.31081  0.58770  0.36756  Biso   1.000  N
  N19      1.0000 0.18919  0.08770  0.63244  Biso   1.000  N
  N20      1.0000 0.81081  0.08770  0.36756  Biso   1.000  N
  N21      1.0000 0.61744  0.91860  0.27376  Biso   1.000  N
  N22      1.0000 0.38256  0.91860  0.72624  Biso   1.000  N
  N23      1.0000 0.11744  0.41860  0.27376  Biso   1.000  N
  N24      1.0000 0.88256  0.41860  0.72624  Biso   1.000  N
  O1       1.0000 0.42335  0.37800  0.95900  Biso   1.000  O
  O2       1.0000 0.57665  0.37800  0.04100  Biso   1.000  O
  O3       1.0000 0.92335  0.87800  0.95900  Biso   1.000  O
  O4       1.0000 0.07665  0.87800  0.04100  Biso   1.000  O
  O5       1.0000 0.41297  0.75230  0.93568  Biso   1.000  O
  O6       1.0000 0.58703  0.75230  0.06432  Biso   1.000  O
  O7       1.0000 0.91297  0.25230  0.93568  Biso   1.000  O
  O8       1.0000 0.08703  0.25230  0.06432  Biso   1.000  O
  O9       1.0000 0.24989  0.95750  0.84909  Biso   1.000  O
  O10      1.0000 0.75011  0.95750  0.15091  Biso   1.000  O
  O11      1.0000 0.74989  0.45750  0.84909  Biso   1.000  O
  O12      1.0000 0.25011  0.45750  0.15091  Biso   1.000  O
  O13      1.0000 0.57516  0.60450  0.55786  Biso   1.000  O
  O14      1.0000 0.42484  0.60450  0.44214  Biso   1.000  O
  O15      1.0000 0.07516  0.10450  0.55786  Biso   1.000  O
  O16      1.0000 0.92484  0.10450  0.44214  Biso   1.000  O
  O17      1.0000 0.58216  0.23050  0.57490  Biso   1.000  O
  O18      1.0000 0.41784  0.23050  0.42510  Biso   1.000  O
  O19      1.0000 0.08216  0.73050  0.57490  Biso   1.000  O
  O20      1.0000 0.91784  0.73050  0.42510  Biso   1.000  O
  O21      1.0000 0.73470  0.92710  0.65858  Biso   1.000  O
  O22      1.0000 0.26530  0.92710  0.34142  Biso   1.000  O
  O23      1.0000 0.23470  0.42710  0.65858  Biso   1.000  O
  O24      1.0000 0.76530  0.42710  0.34142  Biso   1.000  O
  O25      1.0000 0.50000  0.99250  0.50000  Biso   1.000  O
  O26      1.0000 0.00000  0.49250  0.50000  Biso   1.000  O
  O27      1.0000 0.50000  0.00790  0.00000  Biso   1.000  O
  O28      1.0000 0.00000  0.50790  0.00000  Biso   1.000  O
