data_image0
_cell_length_a       14.035
_cell_length_b       14.625
_cell_length_c       21.424
_cell_angle_alpha    90
_cell_angle_beta     90
_cell_angle_gamma    90

_symmetry_space_group_name_H-M    "P 1"
_symmetry_int_tables_number       1

loop_
  _symmetry_equiv_pos_as_xyz
  'x, y, z'

loop_
  _atom_site_label
  _atom_site_occupancy
  _atom_site_fract_x
  _atom_site_fract_y
  _atom_site_fract_z
  _atom_site_thermal_displace_type
  _atom_site_B_iso_or_equiv
  _atom_site_type_symbol
  Cu1      1.0000 0.37369  0.14562  0.11019  Biso   1.000  Cu
  Cu2      1.0000 0.12631  0.35438  0.61019  Biso   1.000  Cu
  Cu3      1.0000 0.37369  0.85438  0.38981  Biso   1.000  Cu
  Cu4      1.0000 0.12631  0.64562  0.88981  Biso   1.000  Cu
  Cu5      1.0000 0.62631  0.85438  0.88981  Biso   1.000  Cu
  Cu6      1.0000 0.87369  0.64562  0.38981  Biso   1.000  Cu
  Cu7      1.0000 0.62631  0.14562  0.61019  Biso   1.000  Cu
  Cu8      1.0000 0.87369  0.35438  0.11019  Biso   1.000  Cu
  N1       1.0000 0.43763  0.26086  0.08433  Biso   1.000  N
  N2       1.0000 0.06237  0.23914  0.58433  Biso   1.000  N
  N3       1.0000 0.43763  0.73914  0.41567  Biso   1.000  N
  N4       1.0000 0.06237  0.76086  0.91567  Biso   1.000  N
  N5       1.0000 0.56237  0.73914  0.91567  Biso   1.000  N
  N6       1.0000 0.93763  0.76086  0.41567  Biso   1.000  N
  N7       1.0000 0.56237  0.26086  0.58433  Biso   1.000  N
  N8       1.0000 0.93763  0.23914  0.08433  Biso   1.000  N
  N9       1.0000 0.39648  0.17244  0.21258  Biso   1.000  N
  N10      1.0000 0.10352  0.32756  0.71258  Biso   1.000  N
  N11      1.0000 0.39648  0.82756  0.28742  Biso   1.000  N
  N12      1.0000 0.10352  0.67244  0.78742  Biso   1.000  N
  N13      1.0000 0.60352  0.82756  0.78742  Biso   1.000  N
  N14      1.0000 0.89648  0.67244  0.28742  Biso   1.000  N
  N15      1.0000 0.60352  0.17244  0.71258  Biso   1.000  N
  N16      1.0000 0.89648  0.32756  0.21258  Biso   1.000  N
  N17      1.0000 0.81264  0.52283  0.38328  Biso   1.000  N
  N18      1.0000 0.68736  0.97717  0.88328  Biso   1.000  N
  N19      1.0000 0.81264  0.47717  0.11672  Biso   1.000  N
  N20      1.0000 0.68736  0.02283  0.61672  Biso   1.000  N
  N21      1.0000 0.18736  0.47717  0.61672  Biso   1.000  N
  N22      1.0000 0.31264  0.02283  0.11672  Biso   1.000  N
  N23      1.0000 0.18736  0.52283  0.88328  Biso   1.000  N
  N24      1.0000 0.31264  0.97717  0.38328  Biso   1.000  N
  O1       1.0000 0.74288  0.30244  0.11129  Biso   1.000  O
  O2       1.0000 0.75712  0.19756  0.61129  Biso   1.000  O
  O3       1.0000 0.74288  0.69756  0.38871  Biso   1.000  O
  O4       1.0000 0.75712  0.80244  0.88871  Biso   1.000  O
  O5       1.0000 0.25712  0.69756  0.88871  Biso   1.000  O
  O6       1.0000 0.24288  0.80244  0.38871  Biso   1.000  O
  O7       1.0000 0.25712  0.30244  0.61129  Biso   1.000  O
  O8       1.0000 0.24288  0.19756  0.11129  Biso   1.000  O
  O9       1.0000 0.73792  0.33247  0.00932  Biso   1.000  O
  O10      1.0000 0.76208  0.16753  0.50932  Biso   1.000  O
  O11      1.0000 0.73792  0.66753  0.49068  Biso   1.000  O
  O12      1.0000 0.76208  0.83247  0.99068  Biso   1.000  O
  O13      1.0000 0.26208  0.66753  0.99068  Biso   1.000  O
  O14      1.0000 0.23792  0.83247  0.49068  Biso   1.000  O
  O15      1.0000 0.26208  0.33247  0.50932  Biso   1.000  O
  O16      1.0000 0.23792  0.16753  0.00932  Biso   1.000  O
  O17      1.0000 0.49886  0.09221  0.09165  Biso   1.000  O
  O18      1.0000 0.00114  0.40779  0.59165  Biso   1.000  O
  O19      1.0000 0.49886  0.90779  0.40835  Biso   1.000  O
  O20      1.0000 0.00114  0.59221  0.90835  Biso   1.000  O
  O21      1.0000 0.50114  0.90779  0.90835  Biso   1.000  O
  O22      1.0000 0.99886  0.59221  0.40835  Biso   1.000  O
  O23      1.0000 0.50114  0.09221  0.59165  Biso   1.000  O
  O24      1.0000 0.99886  0.40779  0.09165  Biso   1.000  O
  O25      1.0000 0.64749  0.13081  0.06637  Biso   1.000  O
  O26      1.0000 0.85251  0.36919  0.56637  Biso   1.000  O
  O27      1.0000 0.64749  0.86919  0.43363  Biso   1.000  O
  O28      1.0000 0.85251  0.63081  0.93363  Biso   1.000  O
  O29      1.0000 0.35251  0.86919  0.93363  Biso   1.000  O
  O30      1.0000 0.14749  0.63081  0.43363  Biso   1.000  O
  O31      1.0000 0.35251  0.13081  0.56637  Biso   1.000  O
  O32      1.0000 0.14749  0.36919  0.06637  Biso   1.000  O
  C1       1.0000 0.39951  0.34442  0.08258  Biso   1.000  C
  C2       1.0000 0.10049  0.15558  0.58258  Biso   1.000  C
  C3       1.0000 0.39951  0.65558  0.41742  Biso   1.000  C
  C4       1.0000 0.10049  0.84442  0.91742  Biso   1.000  C
  C5       1.0000 0.60049  0.65558  0.91742  Biso   1.000  C
  C6       1.0000 0.89951  0.84442  0.41742  Biso   1.000  C
  C7       1.0000 0.60049  0.34442  0.58258  Biso   1.000  C
  C8       1.0000 0.89951  0.15558  0.08258  Biso   1.000  C
  H1       1.0000 0.33430  0.35140  0.08880  Biso   1.000  H
  H2       1.0000 0.16570  0.14860  0.58880  Biso   1.000  H
  H3       1.0000 0.33430  0.64860  0.41120  Biso   1.000  H
  H4       1.0000 0.16570  0.85140  0.91120  Biso   1.000  H
  H5       1.0000 0.66570  0.64860  0.91120  Biso   1.000  H
  H6       1.0000 0.83430  0.85140  0.41120  Biso   1.000  H
  H7       1.0000 0.66570  0.35140  0.58880  Biso   1.000  H
  H8       1.0000 0.83430  0.14860  0.08880  Biso   1.000  H
  C9       1.0000 0.45535  0.42103  0.07168  Biso   1.000  C
  C10      1.0000 0.04465  0.07897  0.57168  Biso   1.000  C
  C11      1.0000 0.45535  0.57897  0.42832  Biso   1.000  C
  C12      1.0000 0.04465  0.92103  0.92832  Biso   1.000  C
  C13      1.0000 0.54465  0.57897  0.92832  Biso   1.000  C
  C14      1.0000 0.95535  0.92103  0.42832  Biso   1.000  C
  C15      1.0000 0.54465  0.42103  0.57168  Biso   1.000  C
  C16      1.0000 0.95535  0.07897  0.07168  Biso   1.000  C
  H9       1.0000 0.42800  0.47890  0.07000  Biso   1.000  H
  H10      1.0000 0.07200  0.02110  0.57000  Biso   1.000  H
  H11      1.0000 0.42800  0.52110  0.43000  Biso   1.000  H
  H12      1.0000 0.07200  0.97890  0.93000  Biso   1.000  H
  H13      1.0000 0.57200  0.52110  0.93000  Biso   1.000  H
  H14      1.0000 0.92800  0.97890  0.43000  Biso   1.000  H
  H15      1.0000 0.57200  0.47890  0.57000  Biso   1.000  H
  H16      1.0000 0.92800  0.02110  0.07000  Biso   1.000  H
  C17      1.0000 0.55221  0.40994  0.06333  Biso   1.000  C
  C18      1.0000 0.94779  0.09006  0.56333  Biso   1.000  C
  C19      1.0000 0.55221  0.59006  0.43667  Biso   1.000  C
  C20      1.0000 0.94779  0.90994  0.93667  Biso   1.000  C
  C21      1.0000 0.44779  0.59006  0.93667  Biso   1.000  C
  C22      1.0000 0.05221  0.90994  0.43667  Biso   1.000  C
  C23      1.0000 0.44779  0.40994  0.56333  Biso   1.000  C
  C24      1.0000 0.05221  0.09006  0.06333  Biso   1.000  C
  H17      1.0000 0.59070  0.46070  0.05640  Biso   1.000  H
  H18      1.0000 0.90930  0.03930  0.55640  Biso   1.000  H
  H19      1.0000 0.59070  0.53930  0.44360  Biso   1.000  H
  H20      1.0000 0.90930  0.96070  0.94360  Biso   1.000  H
  H21      1.0000 0.40930  0.53930  0.94360  Biso   1.000  H
  H22      1.0000 0.09070  0.96070  0.44360  Biso   1.000  H
  H23      1.0000 0.40930  0.46070  0.55640  Biso   1.000  H
  H24      1.0000 0.09070  0.03930  0.05640  Biso   1.000  H
  C25      1.0000 0.59248  0.32257  0.06532  Biso   1.000  C
  C26      1.0000 0.90752  0.17743  0.56532  Biso   1.000  C
  C27      1.0000 0.59248  0.67743  0.43468  Biso   1.000  C
  C28      1.0000 0.90752  0.82257  0.93468  Biso   1.000  C
  C29      1.0000 0.40752  0.67743  0.93468  Biso   1.000  C
  C30      1.0000 0.09248  0.82257  0.43468  Biso   1.000  C
  C31      1.0000 0.40752  0.32257  0.56532  Biso   1.000  C
  C32      1.0000 0.09248  0.17743  0.06532  Biso   1.000  C
  C33      1.0000 0.53210  0.24892  0.07588  Biso   1.000  C
  C34      1.0000 0.96790  0.25108  0.57588  Biso   1.000  C
  C35      1.0000 0.53210  0.75108  0.42412  Biso   1.000  C
  C36      1.0000 0.96790  0.74892  0.92412  Biso   1.000  C
  C37      1.0000 0.46790  0.75108  0.92412  Biso   1.000  C
  C38      1.0000 0.03210  0.74892  0.42412  Biso   1.000  C
  C39      1.0000 0.46790  0.24892  0.57588  Biso   1.000  C
  C40      1.0000 0.03210  0.25108  0.07588  Biso   1.000  C
  C41      1.0000 0.56377  0.14948  0.07806  Biso   1.000  C
  C42      1.0000 0.93623  0.35052  0.57806  Biso   1.000  C
  C43      1.0000 0.56377  0.85052  0.42194  Biso   1.000  C
  C44      1.0000 0.93623  0.64948  0.92194  Biso   1.000  C
  C45      1.0000 0.43623  0.85052  0.92194  Biso   1.000  C
  C46      1.0000 0.06377  0.64948  0.42194  Biso   1.000  C
  C47      1.0000 0.43623  0.14948  0.57806  Biso   1.000  C
  C48      1.0000 0.06377  0.35052  0.07806  Biso   1.000  C
  C49      1.0000 0.69998  0.31587  0.05986  Biso   1.000  C
  C50      1.0000 0.80002  0.18413  0.55986  Biso   1.000  C
  C51      1.0000 0.69998  0.68413  0.44014  Biso   1.000  C
  C52      1.0000 0.80002  0.81587  0.94014  Biso   1.000  C
  C53      1.0000 0.30002  0.68413  0.94014  Biso   1.000  C
  C54      1.0000 0.19998  0.81587  0.44014  Biso   1.000  C
  C55      1.0000 0.30002  0.31587  0.55986  Biso   1.000  C
  C56      1.0000 0.19998  0.18413  0.05986  Biso   1.000  C
  C57      1.0000 0.45510  0.12010  0.24553  Biso   1.000  C
  C58      1.0000 0.04490  0.37990  0.74553  Biso   1.000  C
  C59      1.0000 0.45510  0.87990  0.25447  Biso   1.000  C
  C60      1.0000 0.04490  0.62010  0.75447  Biso   1.000  C
  C61      1.0000 0.54490  0.87990  0.75447  Biso   1.000  C
  C62      1.0000 0.95510  0.62010  0.25447  Biso   1.000  C
  C63      1.0000 0.54490  0.12010  0.74553  Biso   1.000  C
  C64      1.0000 0.95510  0.37990  0.24553  Biso   1.000  C
  H25      1.0000 0.48350  0.07040  0.22580  Biso   1.000  H
  H26      1.0000 0.01650  0.42960  0.72580  Biso   1.000  H
  H27      1.0000 0.48350  0.92960  0.27420  Biso   1.000  H
  H28      1.0000 0.01650  0.57040  0.77420  Biso   1.000  H
  H29      1.0000 0.51650  0.92960  0.77420  Biso   1.000  H
  H30      1.0000 0.98350  0.57040  0.27420  Biso   1.000  H
  H31      1.0000 0.51650  0.07040  0.72580  Biso   1.000  H
  H32      1.0000 0.98350  0.42960  0.22580  Biso   1.000  H
  C65      1.0000 0.47640  0.13570  0.30803  Biso   1.000  C
  C66      1.0000 0.02360  0.36430  0.80803  Biso   1.000  C
  C67      1.0000 0.47640  0.86430  0.19197  Biso   1.000  C
  C68      1.0000 0.02360  0.63570  0.69197  Biso   1.000  C
  C69      1.0000 0.52360  0.86430  0.69197  Biso   1.000  C
  C70      1.0000 0.97640  0.63570  0.19197  Biso   1.000  C
  C71      1.0000 0.52360  0.13570  0.80803  Biso   1.000  C
  C72      1.0000 0.97640  0.36430  0.30803  Biso   1.000  C
  H33      1.0000 0.51710  0.09640  0.32930  Biso   1.000  H
  H34      1.0000 0.98290  0.40360  0.82930  Biso   1.000  H
  H35      1.0000 0.51710  0.90360  0.17070  Biso   1.000  H
  H36      1.0000 0.98290  0.59640  0.67070  Biso   1.000  H
  H37      1.0000 0.48290  0.90360  0.67070  Biso   1.000  H
  H38      1.0000 0.01710  0.59640  0.17070  Biso   1.000  H
  H39      1.0000 0.48290  0.09640  0.82930  Biso   1.000  H
  H40      1.0000 0.01710  0.40360  0.32930  Biso   1.000  H
  C73      1.0000 0.43710  0.20920  0.33815  Biso   1.000  C
  C74      1.0000 0.06290  0.29080  0.83815  Biso   1.000  C
  C75      1.0000 0.43710  0.79080  0.16185  Biso   1.000  C
  C76      1.0000 0.06290  0.70920  0.66185  Biso   1.000  C
  C77      1.0000 0.56290  0.79080  0.66185  Biso   1.000  C
  C78      1.0000 0.93710  0.70920  0.16185  Biso   1.000  C
  C79      1.0000 0.56290  0.20920  0.83815  Biso   1.000  C
  C80      1.0000 0.93710  0.29080  0.33815  Biso   1.000  C
  C81      1.0000 0.37610  0.26360  0.30419  Biso   1.000  C
  C82      1.0000 0.12390  0.23640  0.80419  Biso   1.000  C
  C83      1.0000 0.37610  0.73640  0.19581  Biso   1.000  C
  C84      1.0000 0.12390  0.76360  0.69581  Biso   1.000  C
  C85      1.0000 0.62390  0.73640  0.69581  Biso   1.000  C
  C86      1.0000 0.87610  0.76360  0.19581  Biso   1.000  C
  C87      1.0000 0.62390  0.26360  0.80419  Biso   1.000  C
  C88      1.0000 0.87610  0.23640  0.30419  Biso   1.000  C
  H41      1.0000 0.34730  0.31390  0.32280  Biso   1.000  H
  H42      1.0000 0.15270  0.18610  0.82280  Biso   1.000  H
  H43      1.0000 0.34730  0.68610  0.17720  Biso   1.000  H
  H44      1.0000 0.15270  0.81390  0.67720  Biso   1.000  H
  H45      1.0000 0.65270  0.68610  0.67720  Biso   1.000  H
  H46      1.0000 0.84730  0.81390  0.17720  Biso   1.000  H
  H47      1.0000 0.65270  0.31390  0.82280  Biso   1.000  H
  H48      1.0000 0.84730  0.18610  0.32280  Biso   1.000  H
  C89      1.0000 0.35790  0.24320  0.24254  Biso   1.000  C
  C90      1.0000 0.14210  0.25680  0.74254  Biso   1.000  C
  C91      1.0000 0.35790  0.75680  0.25746  Biso   1.000  C
  C92      1.0000 0.14210  0.74320  0.75746  Biso   1.000  C
  C93      1.0000 0.64210  0.75680  0.75746  Biso   1.000  C
  C94      1.0000 0.85790  0.74320  0.25746  Biso   1.000  C
  C95      1.0000 0.64210  0.24320  0.74254  Biso   1.000  C
  C96      1.0000 0.85790  0.25680  0.24254  Biso   1.000  C
  H49      1.0000 0.31630  0.28090  0.22060  Biso   1.000  H
  H50      1.0000 0.18370  0.21910  0.72060  Biso   1.000  H
  H51      1.0000 0.31630  0.71910  0.27940  Biso   1.000  H
  H52      1.0000 0.18370  0.78090  0.77940  Biso   1.000  H
  H53      1.0000 0.68370  0.71910  0.77940  Biso   1.000  H
  H54      1.0000 0.81630  0.78090  0.27940  Biso   1.000  H
  H55      1.0000 0.68370  0.28090  0.72060  Biso   1.000  H
  H56      1.0000 0.81630  0.21910  0.22060  Biso   1.000  H
  C97      1.0000 0.46240  0.23360  0.40467  Biso   1.000  C
  C98      1.0000 0.03760  0.26640  0.90467  Biso   1.000  C
  C99      1.0000 0.46240  0.76640  0.09533  Biso   1.000  C
  C100     1.0000 0.03760  0.73360  0.59533  Biso   1.000  C
  C101     1.0000 0.53760  0.76640  0.59533  Biso   1.000  C
  C102     1.0000 0.96240  0.73360  0.09533  Biso   1.000  C
  C103     1.0000 0.53760  0.23360  0.90467  Biso   1.000  C
  C104     1.0000 0.96240  0.26640  0.40467  Biso   1.000  C
  H57      1.0000 0.48850  0.18020  0.42540  Biso   1.000  H
  H58      1.0000 0.01150  0.31980  0.92540  Biso   1.000  H
  H59      1.0000 0.48850  0.81980  0.07460  Biso   1.000  H
  H60      1.0000 0.01150  0.68020  0.57460  Biso   1.000  H
  H61      1.0000 0.51150  0.81980  0.57460  Biso   1.000  H
  H62      1.0000 0.98850  0.68020  0.07460  Biso   1.000  H
  H63      1.0000 0.51150  0.18020  0.92540  Biso   1.000  H
  H64      1.0000 0.98850  0.31980  0.42540  Biso   1.000  H
  H65      1.0000 0.40510  0.25170  0.42680  Biso   1.000  H
  H66      1.0000 0.09490  0.24830  0.92680  Biso   1.000  H
  H67      1.0000 0.40510  0.74830  0.07320  Biso   1.000  H
  H68      1.0000 0.09490  0.75170  0.57320  Biso   1.000  H
  H69      1.0000 0.59490  0.74830  0.57320  Biso   1.000  H
  H70      1.0000 0.90510  0.75170  0.07320  Biso   1.000  H
  H71      1.0000 0.59490  0.25170  0.92680  Biso   1.000  H
  H72      1.0000 0.90510  0.24830  0.42680  Biso   1.000  H
  C105     1.0000 0.53530  0.31180  0.40726  Biso   1.000  C
  C106     1.0000 0.96470  0.18820  0.90726  Biso   1.000  C
  C107     1.0000 0.53530  0.68820  0.09274  Biso   1.000  C
  C108     1.0000 0.96470  0.81180  0.59274  Biso   1.000  C
  C109     1.0000 0.46470  0.68820  0.59274  Biso   1.000  C
  C110     1.0000 0.03530  0.81180  0.09274  Biso   1.000  C
  C111     1.0000 0.46470  0.31180  0.90726  Biso   1.000  C
  C112     1.0000 0.03530  0.18820  0.40726  Biso   1.000  C
  H73      1.0000 0.51150  0.36280  0.38290  Biso   1.000  H
  H74      1.0000 0.98850  0.13720  0.88290  Biso   1.000  H
  H75      1.0000 0.51150  0.63720  0.11710  Biso   1.000  H
  H76      1.0000 0.98850  0.86280  0.61710  Biso   1.000  H
  H77      1.0000 0.48850  0.63720  0.61710  Biso   1.000  H
  H78      1.0000 0.01150  0.86280  0.11710  Biso   1.000  H
  H79      1.0000 0.48850  0.36280  0.88290  Biso   1.000  H
  H80      1.0000 0.01150  0.13720  0.38290  Biso   1.000  H
  H81      1.0000 0.54150  0.33220  0.45010  Biso   1.000  H
  H82      1.0000 0.95850  0.16780  0.95010  Biso   1.000  H
  H83      1.0000 0.54150  0.66780  0.04990  Biso   1.000  H
  H84      1.0000 0.95850  0.83220  0.54990  Biso   1.000  H
  H85      1.0000 0.45850  0.66780  0.54990  Biso   1.000  H
  H86      1.0000 0.04150  0.83220  0.04990  Biso   1.000  H
  H87      1.0000 0.45850  0.33220  0.95010  Biso   1.000  H
  H88      1.0000 0.04150  0.16780  0.45010  Biso   1.000  H
  C113     1.0000 0.63370  0.28490  0.38274  Biso   1.000  C
  C114     1.0000 0.86630  0.21510  0.88274  Biso   1.000  C
  C115     1.0000 0.63370  0.71510  0.11726  Biso   1.000  C
  C116     1.0000 0.86630  0.78490  0.61726  Biso   1.000  C
  C117     1.0000 0.36630  0.71510  0.61726  Biso   1.000  C
  C118     1.0000 0.13370  0.78490  0.11726  Biso   1.000  C
  C119     1.0000 0.36630  0.28490  0.88274  Biso   1.000  C
  C120     1.0000 0.13370  0.21510  0.38274  Biso   1.000  C
  H89      1.0000 0.66040  0.23720  0.40890  Biso   1.000  H
  H90      1.0000 0.83960  0.26280  0.90890  Biso   1.000  H
  H91      1.0000 0.66040  0.76280  0.09110  Biso   1.000  H
  H92      1.0000 0.83960  0.73720  0.59110  Biso   1.000  H
  H93      1.0000 0.33960  0.76280  0.59110  Biso   1.000  H
  H94      1.0000 0.16040  0.73720  0.09110  Biso   1.000  H
  H95      1.0000 0.33960  0.23720  0.90890  Biso   1.000  H
  H96      1.0000 0.16040  0.26280  0.40890  Biso   1.000  H
  H97      1.0000 0.62780  0.26100  0.34070  Biso   1.000  H
  H98      1.0000 0.87220  0.23900  0.84070  Biso   1.000  H
  H99      1.0000 0.62780  0.73900  0.15930  Biso   1.000  H
  H100     1.0000 0.87220  0.76100  0.65930  Biso   1.000  H
  H101     1.0000 0.37220  0.73900  0.65930  Biso   1.000  H
  H102     1.0000 0.12780  0.76100  0.15930  Biso   1.000  H
  H103     1.0000 0.37220  0.26100  0.84070  Biso   1.000  H
  H104     1.0000 0.12780  0.23900  0.34070  Biso   1.000  H
  C121     1.0000 0.69880  0.36604  0.38258  Biso   1.000  C
  C122     1.0000 0.80120  0.13396  0.88258  Biso   1.000  C
  C123     1.0000 0.69880  0.63396  0.11742  Biso   1.000  C
  C124     1.0000 0.80120  0.86604  0.61742  Biso   1.000  C
  C125     1.0000 0.30120  0.63396  0.61742  Biso   1.000  C
  C126     1.0000 0.19880  0.86604  0.11742  Biso   1.000  C
  C127     1.0000 0.30120  0.36604  0.88258  Biso   1.000  C
  C128     1.0000 0.19880  0.13396  0.38258  Biso   1.000  C
  C129     1.0000 0.69790  0.42764  0.33312  Biso   1.000  C
  C130     1.0000 0.80210  0.07236  0.83312  Biso   1.000  C
  C131     1.0000 0.69790  0.57236  0.16688  Biso   1.000  C
  C132     1.0000 0.80210  0.92764  0.66688  Biso   1.000  C
  C133     1.0000 0.30210  0.57236  0.66688  Biso   1.000  C
  C134     1.0000 0.19790  0.92764  0.16688  Biso   1.000  C
  C135     1.0000 0.30210  0.42764  0.83312  Biso   1.000  C
  C136     1.0000 0.19790  0.07236  0.33312  Biso   1.000  C
  H105     1.0000 0.65940  0.41680  0.29860  Biso   1.000  H
  H106     1.0000 0.84060  0.08320  0.79860  Biso   1.000  H
  H107     1.0000 0.65940  0.58320  0.20140  Biso   1.000  H
  H108     1.0000 0.84060  0.91680  0.70140  Biso   1.000  H
  H109     1.0000 0.34060  0.58320  0.70140  Biso   1.000  H
  H110     1.0000 0.15940  0.91680  0.20140  Biso   1.000  H
  H111     1.0000 0.34060  0.41680  0.79860  Biso   1.000  H
  H112     1.0000 0.15940  0.08320  0.29860  Biso   1.000  H
  C137     1.0000 0.75425  0.50491  0.33548  Biso   1.000  C
  C138     1.0000 0.74575  0.99509  0.83548  Biso   1.000  C
  C139     1.0000 0.75425  0.49509  0.16452  Biso   1.000  C
  C140     1.0000 0.74575  0.00491  0.66452  Biso   1.000  C
  C141     1.0000 0.24575  0.49509  0.66452  Biso   1.000  C
  C142     1.0000 0.25425  0.00491  0.16452  Biso   1.000  C
  C143     1.0000 0.24575  0.50491  0.83548  Biso   1.000  C
  C144     1.0000 0.25425  0.99509  0.33548  Biso   1.000  C
  H113     1.0000 0.75150  0.54620  0.30250  Biso   1.000  H
  H114     1.0000 0.74850  0.95380  0.80250  Biso   1.000  H
  H115     1.0000 0.75150  0.45380  0.19750  Biso   1.000  H
  H116     1.0000 0.74850  0.04620  0.69750  Biso   1.000  H
  H117     1.0000 0.24850  0.45380  0.69750  Biso   1.000  H
  H118     1.0000 0.25150  0.04620  0.19750  Biso   1.000  H
  H119     1.0000 0.24850  0.54620  0.80250  Biso   1.000  H
  H120     1.0000 0.25150  0.95380  0.30250  Biso   1.000  H
  C145     1.0000 0.81528  0.46325  0.43072  Biso   1.000  C
  C146     1.0000 0.68472  0.03675  0.93072  Biso   1.000  C
  C147     1.0000 0.81528  0.53675  0.06928  Biso   1.000  C
  C148     1.0000 0.68472  0.96325  0.56928  Biso   1.000  C
  C149     1.0000 0.18472  0.53675  0.56928  Biso   1.000  C
  C150     1.0000 0.31528  0.96325  0.06928  Biso   1.000  C
  C151     1.0000 0.18472  0.46325  0.93072  Biso   1.000  C
  C152     1.0000 0.31528  0.03675  0.43072  Biso   1.000  C
  H121     1.0000 0.85640  0.47450  0.46390  Biso   1.000  H
  H122     1.0000 0.64360  0.02550  0.96390  Biso   1.000  H
  H123     1.0000 0.85640  0.52550  0.03610  Biso   1.000  H
  H124     1.0000 0.64360  0.97450  0.53610  Biso   1.000  H
  H125     1.0000 0.14360  0.52550  0.53610  Biso   1.000  H
  H126     1.0000 0.35640  0.97450  0.03610  Biso   1.000  H
  H127     1.0000 0.14360  0.47450  0.96390  Biso   1.000  H
  H128     1.0000 0.35640  0.02550  0.46390  Biso   1.000  H
  C153     1.0000 0.75890  0.38514  0.43220  Biso   1.000  C
  C154     1.0000 0.74110  0.11486  0.93220  Biso   1.000  C
  C155     1.0000 0.75890  0.61486  0.06780  Biso   1.000  C
  C156     1.0000 0.74110  0.88514  0.56780  Biso   1.000  C
  C157     1.0000 0.24110  0.61486  0.56780  Biso   1.000  C
  C158     1.0000 0.25890  0.88514  0.06780  Biso   1.000  C
  C159     1.0000 0.24110  0.38514  0.93220  Biso   1.000  C
  C160     1.0000 0.25890  0.11486  0.43220  Biso   1.000  C
  H129     1.0000 0.76150  0.34590  0.46630  Biso   1.000  H
  H130     1.0000 0.73850  0.15410  0.96630  Biso   1.000  H
  H131     1.0000 0.76150  0.65410  0.03370  Biso   1.000  H
  H132     1.0000 0.73850  0.84590  0.53370  Biso   1.000  H
  H133     1.0000 0.23850  0.65410  0.53370  Biso   1.000  H
  H134     1.0000 0.26150  0.84590  0.03370  Biso   1.000  H
  H135     1.0000 0.23850  0.34590  0.96630  Biso   1.000  H
  H136     1.0000 0.26150  0.15410  0.46630  Biso   1.000  H
  O33      1.0000 0.73880  0.96030  0.09251  Biso   1.000  O
  O34      1.0000 0.76120  0.53970  0.59251  Biso   1.000  O
  O35      1.0000 0.73880  0.03970  0.40749  Biso   1.000  O
  O36      1.0000 0.76120  0.46030  0.90749  Biso   1.000  O
  O37      1.0000 0.26120  0.03970  0.90749  Biso   1.000  O
  O38      1.0000 0.23880  0.46030  0.40749  Biso   1.000  O
  O39      1.0000 0.26120  0.96030  0.59251  Biso   1.000  O
  O40      1.0000 0.23880  0.53970  0.09251  Biso   1.000  O
  O41      1.0000 0.62690  0.25760  0.21630  Biso   1.000  O
  O42      1.0000 0.87310  0.24240  0.71630  Biso   1.000  O
  O43      1.0000 0.62690  0.74240  0.28370  Biso   1.000  O
  O44      1.0000 0.87310  0.75760  0.78370  Biso   1.000  O
  O45      1.0000 0.37310  0.74240  0.78370  Biso   1.000  O
  O46      1.0000 0.12690  0.75760  0.28370  Biso   1.000  O
  O47      1.0000 0.37310  0.25760  0.71630  Biso   1.000  O
  O48      1.0000 0.12690  0.24240  0.21630  Biso   1.000  O
  O49      1.0000 0.69550  0.08100  0.27550  Biso   1.000  O
  O50      1.0000 0.80450  0.41900  0.77550  Biso   1.000  O
  O51      1.0000 0.69550  0.91900  0.22450  Biso   1.000  O
  O52      1.0000 0.80450  0.58100  0.72450  Biso   1.000  O
  O53      1.0000 0.30450  0.91900  0.72450  Biso   1.000  O
  O54      1.0000 0.19550  0.58100  0.22450  Biso   1.000  O
  O55      1.0000 0.30450  0.08100  0.77550  Biso   1.000  O
  O56      1.0000 0.19550  0.41900  0.27550  Biso   1.000  O
  O57      1.0000 0.50950  0.42130  0.22630  Biso   1.000  O
  O58      1.0000 0.99050  0.07870  0.72630  Biso   1.000  O
  O59      1.0000 0.50950  0.57870  0.27370  Biso   1.000  O
  O60      1.0000 0.99050  0.92130  0.77370  Biso   1.000  O
  O61      1.0000 0.49050  0.57870  0.77370  Biso   1.000  O
  O62      1.0000 0.00950  0.92130  0.27370  Biso   1.000  O
  O63      1.0000 0.49050  0.42130  0.72630  Biso   1.000  O
  O64      1.0000 0.00950  0.07870  0.22630  Biso   1.000  O
  O65      1.0000 0.32220  0.49320  0.20290  Biso   1.000  O
  O66      1.0000 0.17780  0.00680  0.70290  Biso   1.000  O
  O67      1.0000 0.32220  0.50680  0.29710  Biso   1.000  O
  O68      1.0000 0.17780  0.99320  0.79710  Biso   1.000  O
  O69      1.0000 0.67780  0.50680  0.79710  Biso   1.000  O
  O70      1.0000 0.82220  0.99320  0.29710  Biso   1.000  O
  O71      1.0000 0.67780  0.49320  0.70290  Biso   1.000  O
  O72      1.0000 0.82220  0.00680  0.20290  Biso   1.000  O
