data_image0
_cell_length_a       11.028
_cell_length_b       11.16
_cell_length_c       7.678
_cell_angle_alpha    90
_cell_angle_beta     103.3
_cell_angle_gamma    90

_symmetry_space_group_name_H-M    "P 1"
_symmetry_int_tables_number       1

loop_
  _symmetry_equiv_pos_as_xyz
  'x, y, z'

loop_
  _atom_site_label
  _atom_site_occupancy
  _atom_site_fract_x
  _atom_site_fract_y
  _atom_site_fract_z
  _atom_site_thermal_displace_type
  _atom_site_B_iso_or_equiv
  _atom_site_type_symbol
  Cu1      1.0000 0.25000  0.78357  0.25000  Biso   1.000  Cu
  Cu2      1.0000 0.75000  0.21643  0.75000  Biso   1.000  Cu
  O1       1.0000 0.33320  0.79540  0.58680  Biso   1.000  O
  O2       1.0000 0.16680  0.79540  0.91320  Biso   1.000  O
  O3       1.0000 0.66680  0.20460  0.41320  Biso   1.000  O
  O4       1.0000 0.83320  0.20460  0.08680  Biso   1.000  O
  O5       1.0000 0.26300  0.78500  0.58000  Biso   1.000  O
  O6       1.0000 0.23700  0.78500  0.92000  Biso   1.000  O
  O7       1.0000 0.73700  0.21500  0.42000  Biso   1.000  O
  O8       1.0000 0.76300  0.21500  0.08000  Biso   1.000  O
  O9       1.0000 0.07250  0.78270  0.25150  Biso   1.000  O
  O10      1.0000 0.42750  0.78270  0.24850  Biso   1.000  O
  O11      1.0000 0.92750  0.21730  0.74850  Biso   1.000  O
  O12      1.0000 0.57250  0.21730  0.75150  Biso   1.000  O
  O13      1.0000 0.07160  0.81960  0.53550  Biso   1.000  O
  O14      1.0000 0.42840  0.81960  0.96450  Biso   1.000  O
  O15      1.0000 0.92840  0.18040  0.46450  Biso   1.000  O
  O16      1.0000 0.57160  0.18040  0.03550  Biso   1.000  O
  N1       1.0000 0.25000  0.60210  0.25000  Biso   1.000  N
  N2       1.0000 0.75000  0.39790  0.75000  Biso   1.000  N
  N3       1.0000 0.25000  0.96510  0.25000  Biso   1.000  N
  N4       1.0000 0.75000  0.03490  0.75000  Biso   1.000  N
  C1       1.0000 0.33990  0.53840  0.35100  Biso   1.000  C
  C2       1.0000 0.16010  0.53840  0.14900  Biso   1.000  C
  C3       1.0000 0.66010  0.46160  0.64900  Biso   1.000  C
  C4       1.0000 0.83990  0.46160  0.85100  Biso   1.000  C
  C5       1.0000 0.34600  0.41590  0.35300  Biso   1.000  C
  C6       1.0000 0.15400  0.41590  0.14700  Biso   1.000  C
  C7       1.0000 0.65400  0.58410  0.64700  Biso   1.000  C
  C8       1.0000 0.84600  0.58410  0.85300  Biso   1.000  C
  C9       1.0000 0.25000  0.35010  0.25000  Biso   1.000  C
  C10      1.0000 0.75000  0.64990  0.75000  Biso   1.000  C
  C11      1.0000 0.25000  0.21710  0.25000  Biso   1.000  C
  C12      1.0000 0.75000  0.78290  0.75000  Biso   1.000  C
  C13      1.0000 0.35090  0.15130  0.34270  Biso   1.000  C
  C14      1.0000 0.14910  0.15130  0.15730  Biso   1.000  C
  C15      1.0000 0.64910  0.84870  0.65730  Biso   1.000  C
  C16      1.0000 0.85090  0.84870  0.84270  Biso   1.000  C
  C17      1.0000 0.34720  0.02800  0.33980  Biso   1.000  C
  C18      1.0000 0.15280  0.02800  0.16020  Biso   1.000  C
  C19      1.0000 0.65280  0.97200  0.66020  Biso   1.000  C
  C20      1.0000 0.84720  0.97200  0.83980  Biso   1.000  C
  C21      1.0000 0.01940  0.80120  0.37950  Biso   1.000  C
  C22      1.0000 0.48060  0.80120  0.12050  Biso   1.000  C
  C23      1.0000 0.98060  0.19880  0.62050  Biso   1.000  C
  C24      1.0000 0.51940  0.19880  0.87950  Biso   1.000  C
  C25      1.0000 0.87940  0.80100  0.31960  Biso   1.000  C
  C26      1.0000 0.62060  0.80100  0.18040  Biso   1.000  C
  C27      1.0000 0.12060  0.19900  0.68040  Biso   1.000  C
  C28      1.0000 0.37940  0.19900  0.81960  Biso   1.000  C
  C29      1.0000 0.81390  0.90560  0.28220  Biso   1.000  C
  C30      1.0000 0.68610  0.90560  0.21780  Biso   1.000  C
  C31      1.0000 0.18610  0.09440  0.71780  Biso   1.000  C
  C32      1.0000 0.31390  0.09440  0.78220  Biso   1.000  C
  C33      1.0000 0.81550  0.68980  0.28550  Biso   1.000  C
  C34      1.0000 0.68450  0.68980  0.21450  Biso   1.000  C
  C35      1.0000 0.18450  0.31020  0.71450  Biso   1.000  C
  C36      1.0000 0.31550  0.31020  0.78550  Biso   1.000  C
  C37      1.0000 0.87800  0.57990  0.32450  Biso   1.000  C
  C38      1.0000 0.62200  0.57990  0.17550  Biso   1.000  C
  C39      1.0000 0.12200  0.42010  0.67550  Biso   1.000  C
  C40      1.0000 0.37800  0.42010  0.82450  Biso   1.000  C
  C41      1.0000 0.81200  0.47420  0.29100  Biso   1.000  C
  C42      1.0000 0.68800  0.47420  0.20900  Biso   1.000  C
  C43      1.0000 0.18800  0.52580  0.70900  Biso   1.000  C
  C44      1.0000 0.31200  0.52580  0.79100  Biso   1.000  C
  H1       1.0000 0.40590  0.58030  0.42800  Biso   1.000  H
  H2       1.0000 0.09410  0.58030  0.07200  Biso   1.000  H
  H3       1.0000 0.59410  0.41970  0.57200  Biso   1.000  H
  H4       1.0000 0.90590  0.41970  0.92800  Biso   1.000  H
  H5       1.0000 0.41740  0.37510  0.42980  Biso   1.000  H
  H6       1.0000 0.08260  0.37510  0.07020  Biso   1.000  H
  H7       1.0000 0.58260  0.62490  0.57020  Biso   1.000  H
  H8       1.0000 0.91740  0.62490  0.92980  Biso   1.000  H
  H9       1.0000 0.42320  0.19140  0.40910  Biso   1.000  H
  H10      1.0000 0.07680  0.19140  0.09090  Biso   1.000  H
  H11      1.0000 0.57680  0.80860  0.59090  Biso   1.000  H
  H12      1.0000 0.92320  0.80860  0.90910  Biso   1.000  H
  H13      1.0000 0.41740  0.98520  0.40660  Biso   1.000  H
  H14      1.0000 0.08260  0.98520  0.09340  Biso   1.000  H
  H15      1.0000 0.58260  0.01480  0.59340  Biso   1.000  H
  H16      1.0000 0.91740  0.01480  0.90660  Biso   1.000  H
  H17      1.0000 0.85890  0.98170  0.30400  Biso   1.000  H
  H18      1.0000 0.64110  0.98170  0.19600  Biso   1.000  H
  H19      1.0000 0.14110  0.01830  0.69600  Biso   1.000  H
  H20      1.0000 0.35890  0.01830  0.80400  Biso   1.000  H
  H21      1.0000 0.96550  0.57770  0.37340  Biso   1.000  H
  H22      1.0000 0.53450  0.57770  0.12660  Biso   1.000  H
  H23      1.0000 0.03450  0.42230  0.62660  Biso   1.000  H
  H24      1.0000 0.46550  0.42230  0.87340  Biso   1.000  H
  H25      1.0000 0.85990  0.39850  0.33090  Biso   1.000  H
  H26      1.0000 0.64010  0.39850  0.16910  Biso   1.000  H
  H27      1.0000 0.14010  0.60150  0.66910  Biso   1.000  H
  H28      1.0000 0.35990  0.60150  0.83090  Biso   1.000  H
  H29      1.0000 0.38680  0.73430  0.63650  Biso   1.000  H
  H30      1.0000 0.11320  0.73430  0.86350  Biso   1.000  H
  H31      1.0000 0.61320  0.26570  0.36350  Biso   1.000  H
  H32      1.0000 0.88680  0.26570  0.13650  Biso   1.000  H
  H33      1.0000 0.21480  0.80570  0.64100  Biso   1.000  H
  H34      1.0000 0.28520  0.80570  0.85900  Biso   1.000  H
  H35      1.0000 0.78520  0.19430  0.35900  Biso   1.000  H
  H36      1.0000 0.71480  0.19430  0.14100  Biso   1.000  H
