data_image0
_cell_length_a       10.613
_cell_length_b       10.828
_cell_length_c       13.333
_cell_angle_alpha    85.25
_cell_angle_beta     82.59
_cell_angle_gamma    60.37

_symmetry_space_group_name_H-M    "P 1"
_symmetry_int_tables_number       1

loop_
  _symmetry_equiv_pos_as_xyz
  'x, y, z'

loop_
  _atom_site_label
  _atom_site_occupancy
  _atom_site_fract_x
  _atom_site_fract_y
  _atom_site_fract_z
  _atom_site_thermal_displace_type
  _atom_site_B_iso_or_equiv
  _atom_site_type_symbol
  Cu1      1.0000 0.13514  0.16193  0.24495  Biso   1.000  Cu
  Cu2      1.0000 0.86486  0.83807  0.75505  Biso   1.000  Cu
  O1       1.0000 0.95110  0.34220  0.24560  Biso   1.000  O
  O2       1.0000 0.04890  0.65780  0.75440  Biso   1.000  O
  O3       1.0000 0.84290  0.21330  0.28760  Biso   1.000  O
  O4       1.0000 0.15710  0.78670  0.71240  Biso   1.000  O
  O5       1.0000 0.31480  0.97750  0.25300  Biso   1.000  O
  O6       1.0000 0.68520  0.02250  0.74700  Biso   1.000  O
  O7       1.0000 0.18320  0.87480  0.23580  Biso   1.000  O
  O8       1.0000 0.81680  0.12520  0.76420  Biso   1.000  O
  O9       1.0000 0.48340  0.03900  0.60540  Biso   1.000  O
  O10      1.0000 0.51660  0.96100  0.39460  Biso   1.000  O
  N1       1.0000 0.13780  0.13300  0.09520  Biso   1.000  N
  N2       1.0000 0.86220  0.86700  0.90480  Biso   1.000  N
  N3       1.0000 0.12540  0.17500  0.39710  Biso   1.000  N
  N4       1.0000 0.87460  0.82500  0.60290  Biso   1.000  N
  N5       1.0000 0.25600  0.29250  0.19860  Biso   1.000  N
  N6       1.0000 0.74400  0.70750  0.80140  Biso   1.000  N
  C1       1.0000 0.26390  0.08180  0.03630  Biso   1.000  C
  C2       1.0000 0.73610  0.91820  0.96370  Biso   1.000  C
  C3       1.0000 0.27600  0.05920  0.93440  Biso   1.000  C
  C4       1.0000 0.72400  0.94080  0.06560  Biso   1.000  C
  C5       1.0000 0.15270  0.09020  0.88830  Biso   1.000  C
  C6       1.0000 0.84730  0.90980  0.11170  Biso   1.000  C
  C7       1.0000 0.02310  0.14090  0.95020  Biso   1.000  C
  C8       1.0000 0.97690  0.85910  0.04980  Biso   1.000  C
  C9       1.0000 0.01960  0.16110  0.05200  Biso   1.000  C
  C10      1.0000 0.98040  0.83890  0.94800  Biso   1.000  C
  C11      1.0000 0.15970  0.06980  0.77770  Biso   1.000  C
  C12      1.0000 0.84030  0.93020  0.22230  Biso   1.000  C
  C13      1.0000 0.09690  0.20810  0.71950  Biso   1.000  C
  C14      1.0000 0.90310  0.79190  0.28050  Biso   1.000  C
  C15      1.0000 0.12040  0.28560  0.43810  Biso   1.000  C
  C16      1.0000 0.87960  0.71440  0.56190  Biso   1.000  C
  C17      1.0000 0.11330  0.29760  0.54090  Biso   1.000  C
  C18      1.0000 0.88670  0.70240  0.45910  Biso   1.000  C
  C19      1.0000 0.10920  0.19390  0.60690  Biso   1.000  C
  C20      1.0000 0.89080  0.80610  0.39310  Biso   1.000  C
  C21      1.0000 0.11540  0.07790  0.56330  Biso   1.000  C
  C22      1.0000 0.88460  0.92210  0.43670  Biso   1.000  C
  C23      1.0000 0.12330  0.07340  0.45990  Biso   1.000  C
  C24      1.0000 0.87670  0.92660  0.54010  Biso   1.000  C
  C25      1.0000 0.39350  0.25060  0.21220  Biso   1.000  C
  C26      1.0000 0.60650  0.74940  0.78780  Biso   1.000  C
  C27      1.0000 0.47180  0.31200  0.16390  Biso   1.000  C
  C28      1.0000 0.52820  0.68800  0.83610  Biso   1.000  C
  C29      1.0000 0.40520  0.42680  0.10070  Biso   1.000  C
  C30      1.0000 0.59480  0.57320  0.89930  Biso   1.000  C
  C31      1.0000 0.26280  0.47060  0.08450  Biso   1.000  C
  C32      1.0000 0.73720  0.52940  0.91550  Biso   1.000  C
  C33      1.0000 0.19250  0.40150  0.13520  Biso   1.000  C
  C34      1.0000 0.80750  0.59850  0.86480  Biso   1.000  C
  C35      1.0000 0.47980  0.50960  0.05060  Biso   1.000  C
  C36      1.0000 0.52020  0.49040  0.94940  Biso   1.000  C
  C37      1.0000 0.83770  0.32890  0.27160  Biso   1.000  C
  C38      1.0000 0.16230  0.67110  0.72840  Biso   1.000  C
  C39      1.0000 0.69490  0.46680  0.27570  Biso   1.000  C
  C40      1.0000 0.30510  0.53320  0.72430  Biso   1.000  C
  C41      1.0000 0.69370  0.58110  0.22220  Biso   1.000  C
  C42      1.0000 0.30630  0.41890  0.77780  Biso   1.000  C
  C43      1.0000 0.56410  0.71160  0.21660  Biso   1.000  C
  C44      1.0000 0.43590  0.28840  0.78340  Biso   1.000  C
  C45      1.0000 0.43400  0.72740  0.26240  Biso   1.000  C
  C46      1.0000 0.56600  0.27260  0.73760  Biso   1.000  C
  C47      1.0000 0.43020  0.61270  0.32060  Biso   1.000  C
  C48      1.0000 0.56980  0.38730  0.67940  Biso   1.000  C
  C49      1.0000 0.56250  0.48090  0.32910  Biso   1.000  C
  C50      1.0000 0.43750  0.51910  0.67090  Biso   1.000  C
  C51      1.0000 0.55690  0.37180  0.39320  Biso   1.000  C
  C52      1.0000 0.44310  0.62820  0.60680  Biso   1.000  C
  C53      1.0000 0.42880  0.39010  0.44410  Biso   1.000  C
  C54      1.0000 0.57120  0.60990  0.55590  Biso   1.000  C
  C55      1.0000 0.29890  0.51900  0.43480  Biso   1.000  C
  C56      1.0000 0.70110  0.48100  0.56520  Biso   1.000  C
  C57      1.0000 0.29860  0.62660  0.37480  Biso   1.000  C
  C58      1.0000 0.70140  0.37340  0.62520  Biso   1.000  C
  C59      1.0000 0.29790  0.86880  0.24920  Biso   1.000  C
  C60      1.0000 0.70210  0.13120  0.75080  Biso   1.000  C
  H1       1.0000 0.34940  0.05990  0.06620  Biso   1.000  H
  H2       1.0000 0.65060  0.94010  0.93380  Biso   1.000  H
  H3       1.0000 0.36820  0.02210  0.89570  Biso   1.000  H
  H4       1.0000 0.63180  0.97790  0.10430  Biso   1.000  H
  H5       1.0000 0.93590  0.16310  0.92270  Biso   1.000  H
  H6       1.0000 0.06410  0.83690  0.07730  Biso   1.000  H
  H7       1.0000 0.92910  0.19600  0.09270  Biso   1.000  H
  H8       1.0000 0.07090  0.80400  0.90730  Biso   1.000  H
  H9       1.0000 0.12210  0.35890  0.39470  Biso   1.000  H
  H10      1.0000 0.87790  0.64110  0.60530  Biso   1.000  H
  H11      1.0000 0.11110  0.37770  0.56650  Biso   1.000  H
  H12      1.0000 0.88890  0.62230  0.43350  Biso   1.000  H
  H13      1.0000 0.11390  0.00300  0.60440  Biso   1.000  H
  H14      1.0000 0.88610  0.99700  0.39560  Biso   1.000  H
  H15      1.0000 0.12710  0.99370  0.43170  Biso   1.000  H
  H16      1.0000 0.87290  0.00630  0.56830  Biso   1.000  H
  H17      1.0000 0.44020  0.17400  0.25840  Biso   1.000  H
  H18      1.0000 0.55980  0.82600  0.74160  Biso   1.000  H
  H19      1.0000 0.57070  0.27510  0.17440  Biso   1.000  H
  H20      1.0000 0.42930  0.72490  0.82560  Biso   1.000  H
  H21      1.0000 0.21390  0.54710  0.03890  Biso   1.000  H
  H22      1.0000 0.78610  0.45290  0.96110  Biso   1.000  H
  H23      1.0000 0.09430  0.43380  0.12420  Biso   1.000  H
  H24      1.0000 0.90570  0.56620  0.87580  Biso   1.000  H
  H25      1.0000 0.78220  0.57240  0.18850  Biso   1.000  H
  H26      1.0000 0.21780  0.42760  0.81150  Biso   1.000  H
  H27      1.0000 0.56710  0.78950  0.18030  Biso   1.000  H
  H28      1.0000 0.43290  0.21050  0.81970  Biso   1.000  H
  H29      1.0000 0.64410  0.28400  0.40070  Biso   1.000  H
  H30      1.0000 0.35590  0.71600  0.59930  Biso   1.000  H
  H31      1.0000 0.42730  0.31560  0.48630  Biso   1.000  H
  H32      1.0000 0.57270  0.68440  0.51370  Biso   1.000  H
  H33      1.0000 0.21080  0.53040  0.47060  Biso   1.000  H
  H34      1.0000 0.78920  0.46960  0.52940  Biso   1.000  H
  H35      1.0000 0.20970  0.71230  0.36890  Biso   1.000  H
  H36      1.0000 0.79030  0.28770  0.63110  Biso   1.000  H
  H37      1.0000 0.10040  0.02610  0.75990  Biso   1.000  H
  H38      1.0000 0.89960  0.97390  0.24010  Biso   1.000  H
  H39      1.0000 0.25010  0.98580  0.75140  Biso   1.000  H
  H40      1.0000 0.74990  0.01420  0.24860  Biso   1.000  H
  H41      1.0000 0.99420  0.27570  0.74610  Biso   1.000  H
  H42      1.0000 0.00580  0.72430  0.25390  Biso   1.000  H
  H43      1.0000 0.15740  0.25710  0.73160  Biso   1.000  H
  H44      1.0000 0.84260  0.74290  0.26840  Biso   1.000  H
  H45      1.0000 0.41250  0.61050  0.05940  Biso   1.000  H
  H46      1.0000 0.58750  0.38950  0.94060  Biso   1.000  H
  H47      1.0000 0.56310  0.48630  0.08390  Biso   1.000  H
  H48      1.0000 0.43690  0.51370  0.91610  Biso   1.000  H
