data_image0
_cell_length_a       8.3477
_cell_length_b       12.348
_cell_length_c       23.053
_cell_angle_alpha    87.232
_cell_angle_beta     81.369
_cell_angle_gamma    84.222

_symmetry_space_group_name_H-M    "P 1"
_symmetry_int_tables_number       1

loop_
  _symmetry_equiv_pos_as_xyz
  'x, y, z'

loop_
  _atom_site_label
  _atom_site_occupancy
  _atom_site_fract_x
  _atom_site_fract_y
  _atom_site_fract_z
  _atom_site_thermal_displace_type
  _atom_site_B_iso_or_equiv
  _atom_site_type_symbol
  C1       1.0000 0.45350  0.76930  0.41650  Biso   1.000  C
  C2       1.0000 0.54650  0.23070  0.58350  Biso   1.000  C
  H1       1.0000 0.49750  0.76590  0.45140  Biso   1.000  H
  H2       1.0000 0.50250  0.23410  0.54860  Biso   1.000  H
  C3       1.0000 0.50410  0.69050  0.37730  Biso   1.000  C
  C4       1.0000 0.49590  0.30950  0.62270  Biso   1.000  C
  H3       1.0000 0.58310  0.63520  0.38490  Biso   1.000  H
  H4       1.0000 0.41690  0.36480  0.61510  Biso   1.000  H
  C5       1.0000 0.43860  0.69310  0.32680  Biso   1.000  C
  C6       1.0000 0.56140  0.30690  0.67320  Biso   1.000  C
  H5       1.0000 0.47030  0.63840  0.29990  Biso   1.000  H
  H6       1.0000 0.52970  0.36160  0.70010  Biso   1.000  H
  C7       1.0000 0.32640  0.77600  0.31580  Biso   1.000  C
  C8       1.0000 0.67360  0.22400  0.68420  Biso   1.000  C
  H7       1.0000 0.28010  0.77910  0.28150  Biso   1.000  H
  H8       1.0000 0.71990  0.22090  0.71850  Biso   1.000  H
  C9       1.0000 0.28230  0.85580  0.35690  Biso   1.000  C
  C10      1.0000 0.71770  0.14420  0.64310  Biso   1.000  C
  C11      1.0000 0.16760  0.95000  0.34910  Biso   1.000  C
  C12      1.0000 0.83240  0.05000  0.65090  Biso   1.000  C
  C13      1.0000 0.07520  0.98710  0.30550  Biso   1.000  C
  C14      1.0000 0.92480  0.01290  0.69450  Biso   1.000  C
  H9       1.0000 0.07190  0.95480  0.27020  Biso   1.000  H
  H10      1.0000 0.92810  0.04520  0.72980  Biso   1.000  H
  C15      1.0000 0.99210  0.07950  0.32560  Biso   1.000  C
  C16      1.0000 0.00790  0.92050  0.67440  Biso   1.000  C
  H11      1.0000 0.92060  0.12330  0.30520  Biso   1.000  H
  H12      1.0000 0.07940  0.87670  0.69480  Biso   1.000  H
  C17      1.0000 0.74300  0.44120  0.47460  Biso   1.000  C
  C18      1.0000 0.25700  0.55880  0.52540  Biso   1.000  C
  H13      1.0000 0.69230  0.44420  0.44120  Biso   1.000  H
  H14      1.0000 0.30770  0.55580  0.55880  Biso   1.000  H
  C19      1.0000 0.70970  0.52660  0.51180  Biso   1.000  C
  C20      1.0000 0.29030  0.47340  0.48820  Biso   1.000  C
  H15      1.0000 0.63710  0.58580  0.50380  Biso   1.000  H
  H16      1.0000 0.36290  0.41420  0.49620  Biso   1.000  H
  C21      1.0000 0.78440  0.52350  0.56040  Biso   1.000  C
  C22      1.0000 0.21560  0.47650  0.43960  Biso   1.000  C
  H17      1.0000 0.76560  0.58120  0.58580  Biso   1.000  H
  H18      1.0000 0.23440  0.41880  0.41420  Biso   1.000  H
  C23      1.0000 0.88860  0.43330  0.57170  Biso   1.000  C
  C24      1.0000 0.11140  0.56670  0.42830  Biso   1.000  C
  H19      1.0000 0.93950  0.42860  0.60500  Biso   1.000  H
  H20      1.0000 0.06050  0.57140  0.39500  Biso   1.000  H
  C25      1.0000 0.91540  0.35030  0.53210  Biso   1.000  C
  C26      1.0000 0.08460  0.64970  0.46790  Biso   1.000  C
  C27      1.0000 0.02850  0.25420  0.53930  Biso   1.000  C
  C28      1.0000 0.97150  0.74580  0.46070  Biso   1.000  C
  C29      1.0000 0.11580  0.21590  0.58270  Biso   1.000  C
  C30      1.0000 0.88420  0.78410  0.41730  Biso   1.000  C
  H21      1.0000 0.12060  0.24820  0.61790  Biso   1.000  H
  H22      1.0000 0.87940  0.75180  0.38210  Biso   1.000  H
  C31      1.0000 0.19440  0.11970  0.56270  Biso   1.000  C
  C32      1.0000 0.80560  0.88030  0.43730  Biso   1.000  C
  H23      1.0000 0.26360  0.07400  0.58320  Biso   1.000  H
  H24      1.0000 0.73640  0.92600  0.41680  Biso   1.000  H
  C33      1.0000 0.40880  0.87590  0.56240  Biso   1.000  C
  C34      1.0000 0.59120  0.12410  0.43760  Biso   1.000  C
  C35      1.0000 0.40050  0.78190  0.60690  Biso   1.000  C
  C36      1.0000 0.59950  0.21810  0.39310  Biso   1.000  C
  C37      1.0000 0.52640  0.74790  0.63720  Biso   1.000  C
  C38      1.0000 0.47360  0.25210  0.36280  Biso   1.000  C
  H25      1.0000 0.62280  0.78120  0.62960  Biso   1.000  H
  H26      1.0000 0.37720  0.21880  0.37040  Biso   1.000  H
  C39      1.0000 0.51070  0.66420  0.67910  Biso   1.000  C
  C40      1.0000 0.48930  0.33580  0.32090  Biso   1.000  C
  H27      1.0000 0.59740  0.63810  0.69850  Biso   1.000  H
  H28      1.0000 0.40260  0.36190  0.30150  Biso   1.000  H
  C41      1.0000 0.36590  0.62120  0.69120  Biso   1.000  C
  C42      1.0000 0.63410  0.37880  0.30880  Biso   1.000  C
  H29      1.0000 0.35210  0.56630  0.72010  Biso   1.000  H
  H30      1.0000 0.64790  0.43370  0.27990  Biso   1.000  H
  C43      1.0000 0.23900  0.65780  0.66140  Biso   1.000  C
  C44      1.0000 0.76100  0.34220  0.33860  Biso   1.000  C
  C45      1.0000 0.07080  0.61760  0.67360  Biso   1.000  C
  C46      1.0000 0.92920  0.38240  0.32640  Biso   1.000  C
  C47      1.0000 0.13830  0.92530  0.87330  Biso   1.000  C
  C48      1.0000 0.86170  0.07470  0.12670  Biso   1.000  C
  H31      1.0000 0.08650  0.99500  0.87910  Biso   1.000  H
  H32      1.0000 0.91350  0.00500  0.12090  Biso   1.000  H
  C49      1.0000 0.11330  0.86890  0.82620  Biso   1.000  C
  C50      1.0000 0.88670  0.13110  0.17380  Biso   1.000  C
  H33      1.0000 0.04390  0.89980  0.80060  Biso   1.000  H
  H34      1.0000 0.95610  0.10020  0.19940  Biso   1.000  H
  C51      1.0000 0.19110  0.76670  0.81710  Biso   1.000  C
  C52      1.0000 0.80890  0.23330  0.18290  Biso   1.000  C
  H35      1.0000 0.17440  0.72760  0.78540  Biso   1.000  H
  H36      1.0000 0.82560  0.27240  0.21460  Biso   1.000  H
  C53      1.0000 0.29260  0.72290  0.85450  Biso   1.000  C
  C54      1.0000 0.70740  0.27710  0.14550  Biso   1.000  C
  H37      1.0000 0.34850  0.65450  0.84810  Biso   1.000  H
  H38      1.0000 0.65150  0.34550  0.15190  Biso   1.000  H
  C55      1.0000 0.31190  0.78170  0.90240  Biso   1.000  C
  C56      1.0000 0.68810  0.21830  0.09760  Biso   1.000  C
  C57      1.0000 0.40710  0.74210  0.94810  Biso   1.000  C
  C58      1.0000 0.59290  0.25790  0.05190  Biso   1.000  C
  C59      1.0000 0.50310  0.64650  0.95720  Biso   1.000  C
  C60      1.0000 0.49690  0.35350  0.04280  Biso   1.000  C
  H39      1.0000 0.52610  0.58660  0.93340  Biso   1.000  H
  H40      1.0000 0.47390  0.41340  0.06660  Biso   1.000  H
  C61      1.0000 0.55660  0.66090  0.00970  Biso   1.000  C
  C62      1.0000 0.44340  0.33910  0.99030  Biso   1.000  C
  H41      1.0000 0.62270  0.60930  0.02820  Biso   1.000  H
  H42      1.0000 0.37730  0.39070  0.97180  Biso   1.000  H
  C63      1.0000 0.67550  0.85590  0.21860  Biso   1.000  C
  C64      1.0000 0.32450  0.14410  0.78140  Biso   1.000  C
  H43      1.0000 0.73990  0.79060  0.21160  Biso   1.000  H
  H44      1.0000 0.26010  0.20940  0.78840  Biso   1.000  H
  C65      1.0000 0.68140  0.90750  0.26910  Biso   1.000  C
  C66      1.0000 0.31860  0.09250  0.73090  Biso   1.000  C
  H45      1.0000 0.75010  0.87860  0.29540  Biso   1.000  H
  H46      1.0000 0.24990  0.12140  0.70460  Biso   1.000  H
  C67      1.0000 0.58480  0.00240  0.28040  Biso   1.000  C
  C68      1.0000 0.41520  0.99760  0.71960  Biso   1.000  C
  H47      1.0000 0.58500  0.03830  0.31490  Biso   1.000  H
  H48      1.0000 0.41500  0.96170  0.68510  Biso   1.000  H
  C69      1.0000 0.48840  0.04360  0.24050  Biso   1.000  C
  C70      1.0000 0.51160  0.95640  0.75950  Biso   1.000  C
  H49      1.0000 0.42200  0.10810  0.24750  Biso   1.000  H
  H50      1.0000 0.57800  0.89190  0.75250  Biso   1.000  H
  C71      1.0000 0.48940  0.98870  0.18900  Biso   1.000  C
  C72      1.0000 0.51060  0.01130  0.81100  Biso   1.000  C
  C73      1.0000 0.39590  0.02700  0.14290  Biso   1.000  C
  C74      1.0000 0.60410  0.97300  0.85710  Biso   1.000  C
  C75      1.0000 0.30100  0.12010  0.13260  Biso   1.000  C
  C76      1.0000 0.69900  0.87990  0.86740  Biso   1.000  C
  H51      1.0000 0.27530  0.17980  0.15650  Biso   1.000  H
  H52      1.0000 0.72470  0.82020  0.84350  Biso   1.000  H
  C77      1.0000 0.25100  0.10720  0.07920  Biso   1.000  C
  C78      1.0000 0.74900  0.89280  0.92080  Biso   1.000  C
  H53      1.0000 0.18550  0.15850  0.06040  Biso   1.000  H
  H54      1.0000 0.81450  0.84150  0.93960  Biso   1.000  H
  C79      1.0000 0.09120  0.15640  0.95060  Biso   1.000  C
  C80      1.0000 0.90880  0.84360  0.04940  Biso   1.000  C
  C81      1.0000 0.10650  0.26590  0.91930  Biso   1.000  C
  C82      1.0000 0.89350  0.73410  0.08070  Biso   1.000  C
  C83      1.0000 0.97360  0.34020  0.91700  Biso   1.000  C
  C84      1.0000 0.02640  0.65980  0.08300  Biso   1.000  C
  H55      1.0000 0.87250  0.32640  0.93750  Biso   1.000  H
  H56      1.0000 0.12750  0.67360  0.06250  Biso   1.000  H
  C85      1.0000 0.99190  0.43560  0.88390  Biso   1.000  C
  C86      1.0000 0.00810  0.56440  0.11610  Biso   1.000  C
  H57      1.0000 0.90300  0.48620  0.88060  Biso   1.000  H
  H58      1.0000 0.09700  0.51380  0.11940  Biso   1.000  H
  C87      1.0000 0.14480  0.45400  0.85580  Biso   1.000  C
  C88      1.0000 0.85520  0.54600  0.14420  Biso   1.000  C
  H59      1.0000 0.15940  0.51720  0.83280  Biso   1.000  H
  H60      1.0000 0.84060  0.48280  0.16720  Biso   1.000  H
  C89      1.0000 0.27570  0.37980  0.86160  Biso   1.000  C
  C90      1.0000 0.72430  0.62020  0.13840  Biso   1.000  C
  C91      1.0000 0.44580  0.39440  0.83260  Biso   1.000  C
  C92      1.0000 0.55420  0.60560  0.16740  Biso   1.000  C
  Cu1      1.0000 0.25144  0.97785  0.46068  Biso   1.000  Cu
  Cu2      1.0000 0.74856  0.02215  0.53932  Biso   1.000  Cu
  Cu3      1.0000 0.92940  0.22383  0.42953  Biso   1.000  Cu
  Cu4      1.0000 0.07060  0.77617  0.57047  Biso   1.000  Cu
  Cu5      1.0000 0.27429  0.94865  0.98584  Biso   1.000  Cu
  Cu6      1.0000 0.72571  0.05135  0.01416  Biso   1.000  Cu
  Cu7      1.0000 0.54861  0.82452  0.10193  Biso   1.000  Cu
  Cu8      1.0000 0.45139  0.17548  0.89807  Biso   1.000  Cu
  N1       1.0000 0.34210  0.85230  0.40720  Biso   1.000  N
  N2       1.0000 0.65790  0.14770  0.59280  Biso   1.000  N
  N3       1.0000 0.13550  0.02070  0.39360  Biso   1.000  N
  N4       1.0000 0.86450  0.97930  0.60640  Biso   1.000  N
  N5       1.0000 0.02560  0.10130  0.37970  Biso   1.000  N
  N6       1.0000 0.97440  0.89870  0.62030  Biso   1.000  N
  N7       1.0000 0.84460  0.35440  0.48410  Biso   1.000  N
  N8       1.0000 0.15540  0.64560  0.51590  Biso   1.000  N
  N9       1.0000 0.05380  0.18370  0.49480  Biso   1.000  N
  N10      1.0000 0.94620  0.81630  0.50520  Biso   1.000  N
  N11      1.0000 0.15880  0.09980  0.50980  Biso   1.000  N
  N12      1.0000 0.84120  0.90020  0.49020  Biso   1.000  N
  N13      1.0000 0.25910  0.73680  0.61900  Biso   1.000  N
  N14      1.0000 0.74090  0.26320  0.38100  Biso   1.000  N
  N15      1.0000 0.23560  0.88200  0.91100  Biso   1.000  N
  N16      1.0000 0.76440  0.11800  0.08900  Biso   1.000  N
  N17      1.0000 0.40730  0.80840  0.99260  Biso   1.000  N
  N18      1.0000 0.59270  0.19160  0.00740  Biso   1.000  N
  N19      1.0000 0.50090  0.75850  0.03050  Biso   1.000  N
  N20      1.0000 0.49910  0.24150  0.96950  Biso   1.000  N
  N21      1.0000 0.58160  0.89480  0.17880  Biso   1.000  N
  N22      1.0000 0.41840  0.10520  0.82120  Biso   1.000  N
  N23      1.0000 0.39900  0.95850  0.09820  Biso   1.000  N
  N24      1.0000 0.60100  0.04150  0.90180  Biso   1.000  N
  N25      1.0000 0.31060  0.01010  0.05860  Biso   1.000  N
  N26      1.0000 0.68940  0.98990  0.94140  Biso   1.000  N
  N27      1.0000 0.25320  0.28580  0.89320  Biso   1.000  N
  N28      1.0000 0.74680  0.71420  0.10680  Biso   1.000  N
  O1       1.0000 0.51290  0.93940  0.56500  Biso   1.000  O
  O2       1.0000 0.48710  0.06060  0.43500  Biso   1.000  O
  O3       1.0000 0.30190  0.88190  0.52822  Biso   1.000  O
  O4       1.0000 0.69810  0.11810  0.47178  Biso   1.000  O
  O5       1.0000 0.97180  0.65340  0.64060  Biso   1.000  O
  O6       1.0000 0.02820  0.34660  0.35940  Biso   1.000  O
  O7       1.0000 0.04900  0.55720  0.71840  Biso   1.000  O
  O8       1.0000 0.95100  0.44280  0.28160  Biso   1.000  O
  O9       1.0000 0.55150  0.31870  0.83950  Biso   1.000  O
  O10      1.0000 0.44850  0.68130  0.16050  Biso   1.000  O
  O11      1.0000 0.46650  0.48280  0.80490  Biso   1.000  O
  O12      1.0000 0.53350  0.51720  0.19510  Biso   1.000  O
  O13      1.0000 0.22360  0.09630  0.95185  Biso   1.000  O
  O14      1.0000 0.77640  0.90370  0.04815  Biso   1.000  O
  O15      1.0000 0.95460  0.13190  0.97050  Biso   1.000  O
  O16      1.0000 0.04540  0.86810  0.02950  Biso   1.000  O
  O17      1.0000 0.14090  0.79850  0.18660  Biso   1.000  O
  O18      1.0000 0.85910  0.20150  0.81340  Biso   1.000  O
  O19      1.0000 0.74590  0.60630  0.79730  Biso   1.000  O
  O20      1.0000 0.25410  0.39370  0.20270  Biso   1.000  O
  O21      1.0000 0.06450  0.32620  0.72090  Biso   1.000  O
  O22      1.0000 0.93550  0.67380  0.27910  Biso   1.000  O
