data_image0
_cell_length_a       12.112
_cell_length_b       12.42
_cell_length_c       19.217
_cell_angle_alpha    90
_cell_angle_beta     104.611
_cell_angle_gamma    90

_symmetry_space_group_name_H-M    "P 1"
_symmetry_int_tables_number       1

loop_
  _symmetry_equiv_pos_as_xyz
  'x, y, z'

loop_
  _atom_site_label
  _atom_site_occupancy
  _atom_site_fract_x
  _atom_site_fract_y
  _atom_site_fract_z
  _atom_site_thermal_displace_type
  _atom_site_B_iso_or_equiv
  _atom_site_type_symbol
  Cu1      1.0000 0.53974  0.05020  0.11032  Biso   1.000  Cu
  Cu2      1.0000 0.96026  0.55020  0.38968  Biso   1.000  Cu
  Cu3      1.0000 0.46026  0.94980  0.88968  Biso   1.000  Cu
  Cu4      1.0000 0.03974  0.44980  0.61032  Biso   1.000  Cu
  Cu5      1.0000 0.70259  0.15591  0.96964  Biso   1.000  Cu
  Cu6      1.0000 0.79741  0.65591  0.53036  Biso   1.000  Cu
  Cu7      1.0000 0.29741  0.84409  0.03036  Biso   1.000  Cu
  Cu8      1.0000 0.20259  0.34409  0.46964  Biso   1.000  Cu
  C1       1.0000 0.36510  0.10330  0.19930  Biso   1.000  C
  C2       1.0000 0.13490  0.60330  0.30070  Biso   1.000  C
  C3       1.0000 0.63490  0.89670  0.80070  Biso   1.000  C
  C4       1.0000 0.86510  0.39670  0.69930  Biso   1.000  C
  H1       1.0000 0.37460  0.03260  0.21560  Biso   1.000  H
  H2       1.0000 0.12540  0.53260  0.28440  Biso   1.000  H
  H3       1.0000 0.62540  0.96740  0.78440  Biso   1.000  H
  H4       1.0000 0.87460  0.46740  0.71560  Biso   1.000  H
  C5       1.0000 0.29480  0.16770  0.22510  Biso   1.000  C
  C6       1.0000 0.20520  0.66770  0.27490  Biso   1.000  C
  C7       1.0000 0.70520  0.83230  0.77490  Biso   1.000  C
  C8       1.0000 0.79480  0.33230  0.72510  Biso   1.000  C
  H5       1.0000 0.25750  0.14250  0.25870  Biso   1.000  H
  H6       1.0000 0.24250  0.64250  0.24130  Biso   1.000  H
  H7       1.0000 0.74250  0.85750  0.74130  Biso   1.000  H
  H8       1.0000 0.75750  0.35750  0.75870  Biso   1.000  H
  C9       1.0000 0.28020  0.27200  0.20010  Biso   1.000  C
  C10      1.0000 0.21980  0.77200  0.29990  Biso   1.000  C
  C11      1.0000 0.71980  0.72800  0.79990  Biso   1.000  C
  C12      1.0000 0.78020  0.22800  0.70010  Biso   1.000  C
  H9       1.0000 0.23180  0.31820  0.21640  Biso   1.000  H
  H10      1.0000 0.26820  0.81820  0.28360  Biso   1.000  H
  H11      1.0000 0.76820  0.68180  0.78360  Biso   1.000  H
  H12      1.0000 0.73180  0.18180  0.71640  Biso   1.000  H
  C13      1.0000 0.33640  0.30750  0.15140  Biso   1.000  C
  C14      1.0000 0.16360  0.80750  0.34860  Biso   1.000  C
  C15      1.0000 0.66360  0.69250  0.84860  Biso   1.000  C
  C16      1.0000 0.83640  0.19250  0.65140  Biso   1.000  C
  H13      1.0000 0.32680  0.37780  0.13410  Biso   1.000  H
  H14      1.0000 0.17320  0.87780  0.36590  Biso   1.000  H
  H15      1.0000 0.67320  0.62220  0.86590  Biso   1.000  H
  H16      1.0000 0.82680  0.12220  0.63410  Biso   1.000  H
  C17      1.0000 0.40740  0.23760  0.12830  Biso   1.000  C
  C18      1.0000 0.09260  0.73760  0.37170  Biso   1.000  C
  C19      1.0000 0.59260  0.76240  0.87170  Biso   1.000  C
  C20      1.0000 0.90740  0.26240  0.62830  Biso   1.000  C
  C21      1.0000 0.47330  0.26640  0.07720  Biso   1.000  C
  C22      1.0000 0.02670  0.76640  0.42280  Biso   1.000  C
  C23      1.0000 0.52670  0.73360  0.92280  Biso   1.000  C
  C24      1.0000 0.97330  0.23360  0.57720  Biso   1.000  C
  C25      1.0000 0.47830  0.35600  0.03590  Biso   1.000  C
  C26      1.0000 0.02170  0.85600  0.46410  Biso   1.000  C
  C27      1.0000 0.52170  0.64400  0.96410  Biso   1.000  C
  C28      1.0000 0.97830  0.14400  0.53590  Biso   1.000  C
  H17      1.0000 0.43800  0.42000  0.03430  Biso   1.000  H
  H18      1.0000 0.06200  0.92000  0.46570  Biso   1.000  H
  H19      1.0000 0.56200  0.58000  0.96570  Biso   1.000  H
  H20      1.0000 0.93800  0.08000  0.53430  Biso   1.000  H
  C29      1.0000 0.55570  0.32960  0.99770  Biso   1.000  C
  C30      1.0000 0.94430  0.82960  0.50230  Biso   1.000  C
  C31      1.0000 0.44430  0.67040  0.00230  Biso   1.000  C
  C32      1.0000 0.05570  0.17040  0.49770  Biso   1.000  C
  H21      1.0000 0.57730  0.37450  0.96480  Biso   1.000  H
  H22      1.0000 0.92270  0.87450  0.53520  Biso   1.000  H
  H23      1.0000 0.42270  0.62550  0.03520  Biso   1.000  H
  H24      1.0000 0.07730  0.12550  0.46480  Biso   1.000  H
  C33      1.0000 0.75650  0.12100  0.24770  Biso   1.000  C
  C34      1.0000 0.74350  0.62100  0.25230  Biso   1.000  C
  C35      1.0000 0.24350  0.87900  0.75230  Biso   1.000  C
  C36      1.0000 0.25650  0.37900  0.74770  Biso   1.000  C
  H25      1.0000 0.76960  0.17740  0.21900  Biso   1.000  H
  H26      1.0000 0.73040  0.67740  0.28100  Biso   1.000  H
  H27      1.0000 0.23040  0.82260  0.78100  Biso   1.000  H
  H28      1.0000 0.26960  0.32260  0.71900  Biso   1.000  H
  C37      1.0000 0.82680  0.11170  0.31490  Biso   1.000  C
  C38      1.0000 0.67320  0.61170  0.18510  Biso   1.000  C
  C39      1.0000 0.17320  0.88830  0.68510  Biso   1.000  C
  C40      1.0000 0.32680  0.38830  0.81490  Biso   1.000  C
  H29      1.0000 0.88520  0.16090  0.33180  Biso   1.000  H
  H30      1.0000 0.61480  0.66090  0.16820  Biso   1.000  H
  H31      1.0000 0.11480  0.83910  0.66820  Biso   1.000  H
  H32      1.0000 0.38520  0.33910  0.83180  Biso   1.000  H
  C41      1.0000 0.80910  0.02840  0.35640  Biso   1.000  C
  C42      1.0000 0.69090  0.52840  0.14360  Biso   1.000  C
  C43      1.0000 0.19090  0.97160  0.64360  Biso   1.000  C
  C44      1.0000 0.30910  0.47160  0.85640  Biso   1.000  C
  H33      1.0000 0.85560  0.01960  0.40260  Biso   1.000  H
  H34      1.0000 0.64440  0.51960  0.09740  Biso   1.000  H
  H35      1.0000 0.14440  0.98040  0.59740  Biso   1.000  H
  H36      1.0000 0.35560  0.48040  0.90260  Biso   1.000  H
  C45      1.0000 0.72150  0.95700  0.32960  Biso   1.000  C
  C46      1.0000 0.77850  0.45700  0.17040  Biso   1.000  C
  C47      1.0000 0.27850  0.04300  0.67040  Biso   1.000  C
  C48      1.0000 0.22150  0.54300  0.82960  Biso   1.000  C
  H37      1.0000 0.70860  0.89920  0.35730  Biso   1.000  H
  H38      1.0000 0.79140  0.39920  0.14270  Biso   1.000  H
  H39      1.0000 0.29140  0.10080  0.64270  Biso   1.000  H
  H40      1.0000 0.20860  0.60080  0.85730  Biso   1.000  H
  C49      1.0000 0.65350  0.97220  0.26130  Biso   1.000  C
  C50      1.0000 0.84650  0.47220  0.23870  Biso   1.000  C
  C51      1.0000 0.34650  0.02780  0.73870  Biso   1.000  C
  C52      1.0000 0.15350  0.52780  0.76130  Biso   1.000  C
  C53      1.0000 0.55970  0.90050  0.22740  Biso   1.000  C
  C54      1.0000 0.94030  0.40050  0.27260  Biso   1.000  C
  C55      1.0000 0.44030  0.09950  0.77260  Biso   1.000  C
  C56      1.0000 0.05970  0.59950  0.72740  Biso   1.000  C
  C57      1.0000 0.51220  0.81150  0.25190  Biso   1.000  C
  C58      1.0000 0.98780  0.31150  0.24810  Biso   1.000  C
  C59      1.0000 0.48780  0.18850  0.74810  Biso   1.000  C
  C60      1.0000 0.01220  0.68850  0.75190  Biso   1.000  C
  H41      1.0000 0.53350  0.77970  0.29710  Biso   1.000  H
  H42      1.0000 0.96650  0.27970  0.20290  Biso   1.000  H
  H43      1.0000 0.46650  0.22030  0.70290  Biso   1.000  H
  H44      1.0000 0.03350  0.72030  0.79710  Biso   1.000  H
  C61      1.0000 0.42630  0.78090  0.19390  Biso   1.000  C
  C62      1.0000 0.07370  0.28090  0.30610  Biso   1.000  C
  C63      1.0000 0.57370  0.21910  0.80610  Biso   1.000  C
  C64      1.0000 0.92630  0.71910  0.69390  Biso   1.000  C
  H45      1.0000 0.37870  0.72220  0.19390  Biso   1.000  H
  H46      1.0000 0.12130  0.22220  0.30610  Biso   1.000  H
  H47      1.0000 0.62130  0.27780  0.80610  Biso   1.000  H
  H48      1.0000 0.87870  0.77780  0.69390  Biso   1.000  H
  C65      1.0000 0.88080  0.11170  0.88690  Biso   1.000  C
  C66      1.0000 0.61920  0.61170  0.61310  Biso   1.000  C
  C67      1.0000 0.11920  0.88830  0.11310  Biso   1.000  C
  C68      1.0000 0.38080  0.38830  0.38690  Biso   1.000  C
  H49      1.0000 0.86840  0.18220  0.87050  Biso   1.000  H
  H50      1.0000 0.63160  0.68220  0.62950  Biso   1.000  H
  H51      1.0000 0.13160  0.81780  0.12950  Biso   1.000  H
  H52      1.0000 0.36840  0.31780  0.37050  Biso   1.000  H
  C69      1.0000 0.95970  0.05160  0.86420  Biso   1.000  C
  C70      1.0000 0.54030  0.55160  0.63580  Biso   1.000  C
  C71      1.0000 0.04030  0.94840  0.13580  Biso   1.000  C
  C72      1.0000 0.45970  0.44840  0.36420  Biso   1.000  C
  H53      1.0000 0.99970  0.08090  0.83330  Biso   1.000  H
  H54      1.0000 0.50030  0.58090  0.66670  Biso   1.000  H
  H55      1.0000 0.00030  0.91910  0.16670  Biso   1.000  H
  H56      1.0000 0.49970  0.41910  0.33330  Biso   1.000  H
  C73      1.0000 0.97890  0.94670  0.88790  Biso   1.000  C
  C74      1.0000 0.52110  0.44670  0.61210  Biso   1.000  C
  C75      1.0000 0.02110  0.05330  0.11210  Biso   1.000  C
  C76      1.0000 0.47890  0.55330  0.38790  Biso   1.000  C
  H57      1.0000 0.03250  0.90400  0.87370  Biso   1.000  H
  H58      1.0000 0.46750  0.40400  0.62630  Biso   1.000  H
  H59      1.0000 0.96750  0.09600  0.12630  Biso   1.000  H
  H60      1.0000 0.53250  0.59600  0.37370  Biso   1.000  H
  C77      1.0000 0.91660  0.90700  0.93320  Biso   1.000  C
  C78      1.0000 0.58340  0.40700  0.56680  Biso   1.000  C
  C79      1.0000 0.08340  0.09300  0.06680  Biso   1.000  C
  C80      1.0000 0.41660  0.59300  0.43320  Biso   1.000  C
  H61      1.0000 0.92700  0.83620  0.94930  Biso   1.000  H
  H62      1.0000 0.57300  0.33620  0.55070  Biso   1.000  H
  H63      1.0000 0.07300  0.16380  0.05070  Biso   1.000  H
  H64      1.0000 0.42700  0.66380  0.44930  Biso   1.000  H
  C81      1.0000 0.83900  0.97210  0.95460  Biso   1.000  C
  C82      1.0000 0.66100  0.47210  0.54540  Biso   1.000  C
  C83      1.0000 0.16100  0.02790  0.04540  Biso   1.000  C
  C84      1.0000 0.33900  0.52790  0.45460  Biso   1.000  C
  C85      1.0000 0.76840  0.94000  0.00170  Biso   1.000  C
  C86      1.0000 0.73160  0.44000  0.49830  Biso   1.000  C
  C87      1.0000 0.23160  0.06000  0.99830  Biso   1.000  C
  C88      1.0000 0.26840  0.56000  0.50170  Biso   1.000  C
  C89      1.0000 0.75880  0.84710  0.03870  Biso   1.000  C
  C90      1.0000 0.74120  0.34710  0.46130  Biso   1.000  C
  C91      1.0000 0.24120  0.15290  0.96130  Biso   1.000  C
  C92      1.0000 0.25880  0.65290  0.53870  Biso   1.000  C
  H65      1.0000 0.79850  0.78290  0.03910  Biso   1.000  H
  H66      1.0000 0.70150  0.28290  0.46090  Biso   1.000  H
  H67      1.0000 0.20150  0.21710  0.96090  Biso   1.000  H
  H68      1.0000 0.29850  0.71710  0.53910  Biso   1.000  H
  C93      1.0000 0.67810  0.87010  0.07500  Biso   1.000  C
  C94      1.0000 0.82190  0.37010  0.42500  Biso   1.000  C
  C95      1.0000 0.32190  0.12990  0.92500  Biso   1.000  C
  C96      1.0000 0.17810  0.62990  0.57500  Biso   1.000  C
  H69      1.0000 0.65400  0.82260  0.10550  Biso   1.000  H
  H70      1.0000 0.84600  0.32260  0.39450  Biso   1.000  H
  H71      1.0000 0.34600  0.17740  0.89450  Biso   1.000  H
  H72      1.0000 0.15400  0.67740  0.60550  Biso   1.000  H
  C97      1.0000 0.85430  0.31670  0.00850  Biso   1.000  C
  C98      1.0000 0.64570  0.81670  0.49150  Biso   1.000  C
  C99      1.0000 0.14570  0.68330  0.99150  Biso   1.000  C
  C100     1.0000 0.35430  0.18330  0.50850  Biso   1.000  C
  C101     1.0000 0.91660  0.47100  0.94130  Biso   1.000  C
  C102     1.0000 0.58340  0.97100  0.55870  Biso   1.000  C
  C103     1.0000 0.08340  0.52900  0.05870  Biso   1.000  C
  C104     1.0000 0.41660  0.02900  0.44130  Biso   1.000  C
  H73      1.0000 0.86020  0.45160  0.90070  Biso   1.000  H
  H74      1.0000 0.63980  0.95160  0.59930  Biso   1.000  H
  H75      1.0000 0.13980  0.54840  0.09930  Biso   1.000  H
  H76      1.0000 0.36020  0.04840  0.40070  Biso   1.000  H
  C105     1.0000 0.92890  0.41320  0.00340  Biso   1.000  C
  C106     1.0000 0.57110  0.91320  0.49660  Biso   1.000  C
  C107     1.0000 0.07110  0.58680  0.99660  Biso   1.000  C
  C108     1.0000 0.42890  0.08680  0.50340  Biso   1.000  C
  C109     1.0000 0.01420  0.44280  0.06220  Biso   1.000  C
  C110     1.0000 0.48580  0.94280  0.43780  Biso   1.000  C
  C111     1.0000 0.98580  0.55720  0.93780  Biso   1.000  C
  C112     1.0000 0.51420  0.05720  0.56220  Biso   1.000  C
  H77      1.0000 0.02510  0.40400  0.10470  Biso   1.000  H
  H78      1.0000 0.47490  0.90400  0.39530  Biso   1.000  H
  H79      1.0000 0.97490  0.59600  0.89530  Biso   1.000  H
  H80      1.0000 0.52510  0.09600  0.60470  Biso   1.000  H
  N1       1.0000 0.42250  0.13540  0.15120  Biso   1.000  N
  N2       1.0000 0.07750  0.63540  0.34880  Biso   1.000  N
  N3       1.0000 0.57750  0.86460  0.84880  Biso   1.000  N
  N4       1.0000 0.92250  0.36460  0.65120  Biso   1.000  N
  N5       1.0000 0.54430  0.19080  0.06410  Biso   1.000  N
  N6       1.0000 0.95570  0.69080  0.43590  Biso   1.000  N
  N7       1.0000 0.45570  0.80920  0.93590  Biso   1.000  N
  N8       1.0000 0.04430  0.30920  0.56410  Biso   1.000  N
  N9       1.0000 0.59570  0.23020  0.01460  Biso   1.000  N
  N10      1.0000 0.90430  0.73020  0.48540  Biso   1.000  N
  N11      1.0000 0.40430  0.76980  0.98540  Biso   1.000  N
  N12      1.0000 0.09570  0.26980  0.51460  Biso   1.000  N
  N13      1.0000 0.67050  0.05490  0.22060  Biso   1.000  N
  N14      1.0000 0.82950  0.55490  0.27940  Biso   1.000  N
  N15      1.0000 0.32950  0.94510  0.77940  Biso   1.000  N
  N16      1.0000 0.17050  0.44510  0.72060  Biso   1.000  N
  N17      1.0000 0.50330  0.91980  0.15860  Biso   1.000  N
  N18      1.0000 0.99670  0.41980  0.34140  Biso   1.000  N
  N19      1.0000 0.49670  0.08020  0.84140  Biso   1.000  N
  N20      1.0000 0.00330  0.58020  0.65860  Biso   1.000  N
  N21      1.0000 0.58040  0.15420  0.86250  Biso   1.000  N
  N22      1.0000 0.91960  0.65420  0.63750  Biso   1.000  N
  N23      1.0000 0.41960  0.84580  0.13750  Biso   1.000  N
  N24      1.0000 0.08040  0.34580  0.36250  Biso   1.000  N
  N25      1.0000 0.82110  0.07500  0.93090  Biso   1.000  N
  N26      1.0000 0.67890  0.57500  0.56910  Biso   1.000  N
  N27      1.0000 0.17890  0.92500  0.06910  Biso   1.000  N
  N28      1.0000 0.32110  0.42500  0.43090  Biso   1.000  N
  N29      1.0000 0.69500  0.01330  0.01460  Biso   1.000  N
  N30      1.0000 0.80500  0.51330  0.48540  Biso   1.000  N
  N31      1.0000 0.30500  0.98670  0.98540  Biso   1.000  N
  N32      1.0000 0.19500  0.48670  0.51460  Biso   1.000  N
  N33      1.0000 0.63830  0.97050  0.06040  Biso   1.000  N
  N34      1.0000 0.86170  0.47050  0.43960  Biso   1.000  N
  N35      1.0000 0.36170  0.02950  0.93960  Biso   1.000  N
  N36      1.0000 0.13830  0.52950  0.56040  Biso   1.000  N
  O1       1.0000 0.77530  0.29640  0.95226  Biso   1.000  O
  O2       1.0000 0.72470  0.79640  0.54774  Biso   1.000  O
  O3       1.0000 0.22470  0.70360  0.04774  Biso   1.000  O
  O4       1.0000 0.27530  0.20360  0.45226  Biso   1.000  O
  O5       1.0000 0.87340  0.26390  0.06431  Biso   1.000  O
  O6       1.0000 0.62660  0.76390  0.43569  Biso   1.000  O
  O7       1.0000 0.12660  0.73610  0.93569  Biso   1.000  O
  O8       1.0000 0.37340  0.23610  0.56431  Biso   1.000  O
