data_image0
_cell_length_a       19.674
_cell_length_b       12.787
_cell_length_c       21.57
_cell_angle_alpha    90
_cell_angle_beta     97.964
_cell_angle_gamma    90

_symmetry_space_group_name_H-M    "P 1"
_symmetry_int_tables_number       1

loop_
  _symmetry_equiv_pos_as_xyz
  'x, y, z'

loop_
  _atom_site_label
  _atom_site_occupancy
  _atom_site_fract_x
  _atom_site_fract_y
  _atom_site_fract_z
  _atom_site_thermal_displace_type
  _atom_site_B_iso_or_equiv
  _atom_site_type_symbol
  C1       1.0000 0.78340  0.52950  0.14640  Biso   1.000  C
  C2       1.0000 0.28340  0.02950  0.14640  Biso   1.000  C
  C3       1.0000 0.21660  0.52950  0.35360  Biso   1.000  C
  C4       1.0000 0.71660  0.02950  0.35360  Biso   1.000  C
  C5       1.0000 0.21660  0.47050  0.85360  Biso   1.000  C
  C6       1.0000 0.71660  0.97050  0.85360  Biso   1.000  C
  C7       1.0000 0.78340  0.47050  0.64640  Biso   1.000  C
  C8       1.0000 0.28340  0.97050  0.64640  Biso   1.000  C
  H1       1.0000 0.83080  0.52890  0.14700  Biso   1.000  H
  H2       1.0000 0.33080  0.02890  0.14700  Biso   1.000  H
  H3       1.0000 0.16920  0.52890  0.35300  Biso   1.000  H
  H4       1.0000 0.66920  0.02890  0.35300  Biso   1.000  H
  H5       1.0000 0.16920  0.47110  0.85300  Biso   1.000  H
  H6       1.0000 0.66920  0.97110  0.85300  Biso   1.000  H
  H7       1.0000 0.83080  0.47110  0.64700  Biso   1.000  H
  H8       1.0000 0.33080  0.97110  0.64700  Biso   1.000  H
  C9       1.0000 0.75670  0.57620  0.19490  Biso   1.000  C
  C10      1.0000 0.25670  0.07620  0.19490  Biso   1.000  C
  C11      1.0000 0.24330  0.57620  0.30510  Biso   1.000  C
  C12      1.0000 0.74330  0.07620  0.30510  Biso   1.000  C
  C13      1.0000 0.24330  0.42380  0.80510  Biso   1.000  C
  C14      1.0000 0.74330  0.92380  0.80510  Biso   1.000  C
  C15      1.0000 0.75670  0.42380  0.69490  Biso   1.000  C
  C16      1.0000 0.25670  0.92380  0.69490  Biso   1.000  C
  H9       1.0000 0.71460  0.89240  0.77240  Biso   1.000  H
  H10      1.0000 0.21460  0.39240  0.77240  Biso   1.000  H
  H11      1.0000 0.28540  0.89240  0.72760  Biso   1.000  H
  H12      1.0000 0.78540  0.39240  0.72760  Biso   1.000  H
  H13      1.0000 0.28540  0.10760  0.22760  Biso   1.000  H
  H14      1.0000 0.78540  0.60760  0.22760  Biso   1.000  H
  H15      1.0000 0.71460  0.10760  0.27240  Biso   1.000  H
  H16      1.0000 0.21460  0.60760  0.27240  Biso   1.000  H
  C17      1.0000 0.68700  0.57560  0.19440  Biso   1.000  C
  C18      1.0000 0.18700  0.07560  0.19440  Biso   1.000  C
  C19      1.0000 0.31300  0.57560  0.30560  Biso   1.000  C
  C20      1.0000 0.81300  0.07560  0.30560  Biso   1.000  C
  C21      1.0000 0.31300  0.42440  0.80560  Biso   1.000  C
  C22      1.0000 0.81300  0.92440  0.80560  Biso   1.000  C
  C23      1.0000 0.68700  0.42440  0.69440  Biso   1.000  C
  C24      1.0000 0.18700  0.92440  0.69440  Biso   1.000  C
  H17      1.0000 0.83200  0.89420  0.77270  Biso   1.000  H
  H18      1.0000 0.33200  0.39420  0.77270  Biso   1.000  H
  H19      1.0000 0.16800  0.89420  0.72730  Biso   1.000  H
  H20      1.0000 0.66800  0.39420  0.72730  Biso   1.000  H
  H21      1.0000 0.16800  0.10580  0.22730  Biso   1.000  H
  H22      1.0000 0.66800  0.60580  0.22730  Biso   1.000  H
  H23      1.0000 0.83200  0.10580  0.27270  Biso   1.000  H
  H24      1.0000 0.33200  0.60580  0.27270  Biso   1.000  H
  C25      1.0000 0.64510  0.53100  0.14560  Biso   1.000  C
  C26      1.0000 0.14510  0.03100  0.14560  Biso   1.000  C
  C27      1.0000 0.35490  0.53100  0.35440  Biso   1.000  C
  C28      1.0000 0.85490  0.03100  0.35440  Biso   1.000  C
  C29      1.0000 0.35490  0.46900  0.85440  Biso   1.000  C
  C30      1.0000 0.85490  0.96900  0.85440  Biso   1.000  C
  C31      1.0000 0.64510  0.46900  0.64560  Biso   1.000  C
  C32      1.0000 0.14510  0.96900  0.64560  Biso   1.000  C
  H25      1.0000 0.90230  0.96980  0.85520  Biso   1.000  H
  H26      1.0000 0.40230  0.46980  0.85520  Biso   1.000  H
  H27      1.0000 0.09770  0.96980  0.64480  Biso   1.000  H
  H28      1.0000 0.59770  0.46980  0.64480  Biso   1.000  H
  H29      1.0000 0.09770  0.03020  0.14480  Biso   1.000  H
  H30      1.0000 0.59770  0.53020  0.14480  Biso   1.000  H
  H31      1.0000 0.90230  0.03020  0.35520  Biso   1.000  H
  H32      1.0000 0.40230  0.53020  0.35520  Biso   1.000  H
  C33      1.0000 0.67540  0.48650  0.09720  Biso   1.000  C
  C34      1.0000 0.17540  0.98650  0.09720  Biso   1.000  C
  C35      1.0000 0.32460  0.48650  0.40280  Biso   1.000  C
  C36      1.0000 0.82460  0.98650  0.40280  Biso   1.000  C
  C37      1.0000 0.32460  0.51350  0.90280  Biso   1.000  C
  C38      1.0000 0.82460  0.01350  0.90280  Biso   1.000  C
  C39      1.0000 0.67540  0.51350  0.59720  Biso   1.000  C
  C40      1.0000 0.17540  0.01350  0.59720  Biso   1.000  C
  C41      1.0000 0.63690  0.43920  0.04180  Biso   1.000  C
  C42      1.0000 0.13690  0.93920  0.04180  Biso   1.000  C
  C43      1.0000 0.36310  0.43920  0.45820  Biso   1.000  C
  C44      1.0000 0.86310  0.93920  0.45820  Biso   1.000  C
  C45      1.0000 0.36310  0.56080  0.95820  Biso   1.000  C
  C46      1.0000 0.86310  0.06080  0.95820  Biso   1.000  C
  C47      1.0000 0.63690  0.56080  0.54180  Biso   1.000  C
  C48      1.0000 0.13690  0.06080  0.54180  Biso   1.000  C
  C49      1.0000 0.56840  0.42040  0.02300  Biso   1.000  C
  C50      1.0000 0.06840  0.92040  0.02300  Biso   1.000  C
  C51      1.0000 0.43160  0.42040  0.47700  Biso   1.000  C
  C52      1.0000 0.93160  0.92040  0.47700  Biso   1.000  C
  C53      1.0000 0.43160  0.57960  0.97700  Biso   1.000  C
  C54      1.0000 0.93160  0.07960  0.97700  Biso   1.000  C
  C55      1.0000 0.56840  0.57960  0.52300  Biso   1.000  C
  C56      1.0000 0.06840  0.07960  0.52300  Biso   1.000  C
  H33      1.0000 0.96820  0.06320  0.95570  Biso   1.000  H
  H34      1.0000 0.46820  0.56320  0.95570  Biso   1.000  H
  H35      1.0000 0.03180  0.06320  0.54430  Biso   1.000  H
  H36      1.0000 0.53180  0.56320  0.54430  Biso   1.000  H
  H37      1.0000 0.03180  0.93680  0.04430  Biso   1.000  H
  H38      1.0000 0.53180  0.43680  0.04430  Biso   1.000  H
  H39      1.0000 0.96820  0.93680  0.45570  Biso   1.000  H
  H40      1.0000 0.46820  0.43680  0.45570  Biso   1.000  H
  C57      1.0000 0.56620  0.37240  0.96640  Biso   1.000  C
  C58      1.0000 0.06620  0.87240  0.96640  Biso   1.000  C
  C59      1.0000 0.43380  0.37240  0.53360  Biso   1.000  C
  C60      1.0000 0.93380  0.87240  0.53360  Biso   1.000  C
  C61      1.0000 0.43380  0.62760  0.03360  Biso   1.000  C
  C62      1.0000 0.93380  0.12760  0.03360  Biso   1.000  C
  C63      1.0000 0.56620  0.62760  0.46640  Biso   1.000  C
  C64      1.0000 0.06620  0.12760  0.46640  Biso   1.000  C
  H41      1.0000 0.97370  0.14960  0.05840  Biso   1.000  H
  H42      1.0000 0.47370  0.64960  0.05840  Biso   1.000  H
  H43      1.0000 0.02630  0.14960  0.44160  Biso   1.000  H
  H44      1.0000 0.52630  0.64960  0.44160  Biso   1.000  H
  H45      1.0000 0.02630  0.85040  0.94160  Biso   1.000  H
  H46      1.0000 0.52630  0.35040  0.94160  Biso   1.000  H
  H47      1.0000 0.97370  0.85040  0.55840  Biso   1.000  H
  H48      1.0000 0.47370  0.35040  0.55840  Biso   1.000  H
  C65      1.0000 0.78890  0.65240  0.95860  Biso   1.000  C
  C66      1.0000 0.28890  0.15240  0.95860  Biso   1.000  C
  C67      1.0000 0.21110  0.65240  0.54140  Biso   1.000  C
  C68      1.0000 0.71110  0.15240  0.54140  Biso   1.000  C
  C69      1.0000 0.21110  0.34760  0.04140  Biso   1.000  C
  C70      1.0000 0.71110  0.84760  0.04140  Biso   1.000  C
  C71      1.0000 0.78890  0.34760  0.45860  Biso   1.000  C
  C72      1.0000 0.28890  0.84760  0.45860  Biso   1.000  C
  H49      1.0000 0.74300  0.64590  0.94160  Biso   1.000  H
  H50      1.0000 0.24300  0.14590  0.94160  Biso   1.000  H
  H51      1.0000 0.25700  0.64590  0.55840  Biso   1.000  H
  H52      1.0000 0.75700  0.14590  0.55840  Biso   1.000  H
  H53      1.0000 0.25700  0.35410  0.05840  Biso   1.000  H
  H54      1.0000 0.75700  0.85410  0.05840  Biso   1.000  H
  H55      1.0000 0.74300  0.35410  0.44160  Biso   1.000  H
  H56      1.0000 0.24300  0.85410  0.44160  Biso   1.000  H
  C73      1.0000 0.82350  0.74200  0.94730  Biso   1.000  C
  C74      1.0000 0.32350  0.24200  0.94730  Biso   1.000  C
  C75      1.0000 0.17650  0.74200  0.55270  Biso   1.000  C
  C76      1.0000 0.67650  0.24200  0.55270  Biso   1.000  C
  C77      1.0000 0.17650  0.25800  0.05270  Biso   1.000  C
  C78      1.0000 0.67650  0.75800  0.05270  Biso   1.000  C
  C79      1.0000 0.82350  0.25800  0.44730  Biso   1.000  C
  C80      1.0000 0.32350  0.75800  0.44730  Biso   1.000  C
  H57      1.0000 0.80130  0.79540  0.92320  Biso   1.000  H
  H58      1.0000 0.30130  0.29540  0.92320  Biso   1.000  H
  H59      1.0000 0.19870  0.79540  0.57680  Biso   1.000  H
  H60      1.0000 0.69870  0.29540  0.57680  Biso   1.000  H
  H61      1.0000 0.19870  0.20460  0.07680  Biso   1.000  H
  H62      1.0000 0.69870  0.70460  0.07680  Biso   1.000  H
  H63      1.0000 0.80130  0.20460  0.42320  Biso   1.000  H
  H64      1.0000 0.30130  0.70460  0.42320  Biso   1.000  H
  C81      1.0000 0.89070  0.75190  0.97170  Biso   1.000  C
  C82      1.0000 0.39070  0.25190  0.97170  Biso   1.000  C
  C83      1.0000 0.10930  0.75190  0.52830  Biso   1.000  C
  C84      1.0000 0.60930  0.25190  0.52830  Biso   1.000  C
  C85      1.0000 0.10930  0.24810  0.02830  Biso   1.000  C
  C86      1.0000 0.60930  0.74810  0.02830  Biso   1.000  C
  C87      1.0000 0.89070  0.24810  0.47170  Biso   1.000  C
  C88      1.0000 0.39070  0.74810  0.47170  Biso   1.000  C
  H65      1.0000 0.91480  0.81200  0.96400  Biso   1.000  H
  H66      1.0000 0.41480  0.31200  0.96400  Biso   1.000  H
  H67      1.0000 0.08520  0.81200  0.53600  Biso   1.000  H
  H68      1.0000 0.58520  0.31200  0.53600  Biso   1.000  H
  H69      1.0000 0.08520  0.18800  0.03600  Biso   1.000  H
  H70      1.0000 0.58520  0.68800  0.03600  Biso   1.000  H
  H71      1.0000 0.91480  0.18800  0.46400  Biso   1.000  H
  H72      1.0000 0.41480  0.68800  0.46400  Biso   1.000  H
  C89      1.0000 0.92280  0.67270  0.00770  Biso   1.000  C
  C90      1.0000 0.42280  0.17270  0.00770  Biso   1.000  C
  C91      1.0000 0.07720  0.67270  0.49230  Biso   1.000  C
  C92      1.0000 0.57720  0.17270  0.49230  Biso   1.000  C
  C93      1.0000 0.07720  0.32730  0.99230  Biso   1.000  C
  C94      1.0000 0.57720  0.82730  0.99230  Biso   1.000  C
  C95      1.0000 0.92280  0.32730  0.50770  Biso   1.000  C
  C96      1.0000 0.42280  0.82730  0.50770  Biso   1.000  C
  H73      1.0000 0.96880  0.67840  0.02470  Biso   1.000  H
  H74      1.0000 0.46880  0.17840  0.02470  Biso   1.000  H
  H75      1.0000 0.03120  0.67840  0.47530  Biso   1.000  H
  H76      1.0000 0.53120  0.17840  0.47530  Biso   1.000  H
  H77      1.0000 0.03120  0.32160  0.97530  Biso   1.000  H
  H78      1.0000 0.53120  0.82160  0.97530  Biso   1.000  H
  H79      1.0000 0.96880  0.32160  0.52470  Biso   1.000  H
  H80      1.0000 0.46880  0.82160  0.52470  Biso   1.000  H
  C97      1.0000 0.88510  0.58380  0.01800  Biso   1.000  C
  C98      1.0000 0.38510  0.08380  0.01800  Biso   1.000  C
  C99      1.0000 0.11490  0.58380  0.48200  Biso   1.000  C
  C100     1.0000 0.61490  0.08380  0.48200  Biso   1.000  C
  C101     1.0000 0.11490  0.41620  0.98200  Biso   1.000  C
  C102     1.0000 0.61490  0.91620  0.98200  Biso   1.000  C
  C103     1.0000 0.88510  0.41620  0.51800  Biso   1.000  C
  C104     1.0000 0.38510  0.91620  0.51800  Biso   1.000  C
  C105     1.0000 0.91280  0.49560  0.05686  Biso   1.000  C
  C106     1.0000 0.41280  0.99560  0.05686  Biso   1.000  C
  C107     1.0000 0.08720  0.49560  0.44314  Biso   1.000  C
  C108     1.0000 0.58720  0.99560  0.44314  Biso   1.000  C
  C109     1.0000 0.08720  0.50440  0.94314  Biso   1.000  C
  C110     1.0000 0.58720  0.00440  0.94314  Biso   1.000  C
  C111     1.0000 0.91280  0.50440  0.55686  Biso   1.000  C
  C112     1.0000 0.41280  0.00440  0.55686  Biso   1.000  C
  C113     1.0000 0.97470  0.47710  0.09320  Biso   1.000  C
  C114     1.0000 0.47470  0.97710  0.09320  Biso   1.000  C
  C115     1.0000 0.02530  0.47710  0.40680  Biso   1.000  C
  C116     1.0000 0.52530  0.97710  0.40680  Biso   1.000  C
  C117     1.0000 0.02530  0.52290  0.90680  Biso   1.000  C
  C118     1.0000 0.52530  0.02290  0.90680  Biso   1.000  C
  C119     1.0000 0.97470  0.52290  0.59320  Biso   1.000  C
  C120     1.0000 0.47470  0.02290  0.59320  Biso   1.000  C
  H81      1.0000 0.01350  0.51960  0.09830  Biso   1.000  H
  H82      1.0000 0.51350  0.01960  0.09830  Biso   1.000  H
  H83      1.0000 0.98650  0.51960  0.40170  Biso   1.000  H
  H84      1.0000 0.48650  0.01960  0.40170  Biso   1.000  H
  H85      1.0000 0.98650  0.48040  0.90170  Biso   1.000  H
  H86      1.0000 0.48650  0.98040  0.90170  Biso   1.000  H
  H87      1.0000 0.01350  0.48040  0.59830  Biso   1.000  H
  H88      1.0000 0.51350  0.98040  0.59830  Biso   1.000  H
  C121     1.0000 0.96620  0.38080  0.12050  Biso   1.000  C
  C122     1.0000 0.46620  0.88080  0.12050  Biso   1.000  C
  C123     1.0000 0.03380  0.38080  0.37950  Biso   1.000  C
  C124     1.0000 0.53380  0.88080  0.37950  Biso   1.000  C
  C125     1.0000 0.03380  0.61920  0.87950  Biso   1.000  C
  C126     1.0000 0.53380  0.11920  0.87950  Biso   1.000  C
  C127     1.0000 0.96620  0.61920  0.62050  Biso   1.000  C
  C128     1.0000 0.46620  0.11920  0.62050  Biso   1.000  C
  H89      1.0000 0.99960  0.34690  0.14810  Biso   1.000  H
  H90      1.0000 0.49960  0.84690  0.14810  Biso   1.000  H
  H91      1.0000 0.00040  0.34690  0.35190  Biso   1.000  H
  H92      1.0000 0.50040  0.84690  0.35190  Biso   1.000  H
  H93      1.0000 0.00040  0.65310  0.85190  Biso   1.000  H
  H94      1.0000 0.50040  0.15310  0.85190  Biso   1.000  H
  H95      1.0000 0.99960  0.65310  0.64810  Biso   1.000  H
  H96      1.0000 0.49960  0.15310  0.64810  Biso   1.000  H
  C129     1.0000 0.64070  0.17430  0.75340  Biso   1.000  C
  C130     1.0000 0.14070  0.67430  0.75340  Biso   1.000  C
  C131     1.0000 0.35930  0.17430  0.74660  Biso   1.000  C
  C132     1.0000 0.85930  0.67430  0.74660  Biso   1.000  C
  C133     1.0000 0.35930  0.82570  0.24660  Biso   1.000  C
  C134     1.0000 0.85930  0.32570  0.24660  Biso   1.000  C
  C135     1.0000 0.64070  0.82570  0.25340  Biso   1.000  C
  C136     1.0000 0.14070  0.32570  0.25340  Biso   1.000  C
  H97      1.0000 0.59340  0.17890  0.75290  Biso   1.000  H
  H98      1.0000 0.09340  0.67890  0.75290  Biso   1.000  H
  H99      1.0000 0.40660  0.17890  0.74710  Biso   1.000  H
  H100     1.0000 0.90660  0.67890  0.74710  Biso   1.000  H
  H101     1.0000 0.40660  0.82110  0.24710  Biso   1.000  H
  H102     1.0000 0.90660  0.32110  0.24710  Biso   1.000  H
  H103     1.0000 0.59340  0.82110  0.25290  Biso   1.000  H
  H104     1.0000 0.09340  0.32110  0.25290  Biso   1.000  H
  C137     1.0000 0.66520  0.12510  0.70480  Biso   1.000  C
  C138     1.0000 0.16520  0.62510  0.70480  Biso   1.000  C
  C139     1.0000 0.33480  0.12510  0.79520  Biso   1.000  C
  C140     1.0000 0.83480  0.62510  0.79520  Biso   1.000  C
  C141     1.0000 0.33480  0.87490  0.29520  Biso   1.000  C
  C142     1.0000 0.83480  0.37490  0.29520  Biso   1.000  C
  C143     1.0000 0.66520  0.87490  0.20480  Biso   1.000  C
  C144     1.0000 0.16520  0.37490  0.20480  Biso   1.000  C
  H105     1.0000 0.63520  0.09570  0.67240  Biso   1.000  H
  H106     1.0000 0.13520  0.59570  0.67240  Biso   1.000  H
  H107     1.0000 0.36480  0.09570  0.82760  Biso   1.000  H
  H108     1.0000 0.86480  0.59570  0.82760  Biso   1.000  H
  H109     1.0000 0.36480  0.90430  0.32760  Biso   1.000  H
  H110     1.0000 0.86480  0.40430  0.32760  Biso   1.000  H
  H111     1.0000 0.63520  0.90430  0.17240  Biso   1.000  H
  H112     1.0000 0.13520  0.40430  0.17240  Biso   1.000  H
  C145     1.0000 0.73490  0.12000  0.70480  Biso   1.000  C
  C146     1.0000 0.23490  0.62000  0.70480  Biso   1.000  C
  C147     1.0000 0.26510  0.12000  0.79520  Biso   1.000  C
  C148     1.0000 0.76510  0.62000  0.79520  Biso   1.000  C
  C149     1.0000 0.26510  0.88000  0.29520  Biso   1.000  C
  C150     1.0000 0.76510  0.38000  0.29520  Biso   1.000  C
  C151     1.0000 0.73490  0.88000  0.20480  Biso   1.000  C
  C152     1.0000 0.23490  0.38000  0.20480  Biso   1.000  C
  H113     1.0000 0.75280  0.08640  0.67240  Biso   1.000  H
  H114     1.0000 0.25280  0.58640  0.67240  Biso   1.000  H
  H115     1.0000 0.24720  0.08640  0.82760  Biso   1.000  H
  H116     1.0000 0.74720  0.58640  0.82760  Biso   1.000  H
  H117     1.0000 0.24720  0.91360  0.32760  Biso   1.000  H
  H118     1.0000 0.74720  0.41360  0.32760  Biso   1.000  H
  H119     1.0000 0.75280  0.91360  0.17240  Biso   1.000  H
  H120     1.0000 0.25280  0.41360  0.17240  Biso   1.000  H
  C153     1.0000 0.77810  0.16500  0.75310  Biso   1.000  C
  C154     1.0000 0.27810  0.66500  0.75310  Biso   1.000  C
  C155     1.0000 0.22190  0.16500  0.74690  Biso   1.000  C
  C156     1.0000 0.72190  0.66500  0.74690  Biso   1.000  C
  C157     1.0000 0.22190  0.83500  0.24690  Biso   1.000  C
  C158     1.0000 0.72190  0.33500  0.24690  Biso   1.000  C
  C159     1.0000 0.77810  0.83500  0.25310  Biso   1.000  C
  C160     1.0000 0.27810  0.33500  0.25310  Biso   1.000  C
  H121     1.0000 0.82540  0.16340  0.75340  Biso   1.000  H
  H122     1.0000 0.32540  0.66340  0.75340  Biso   1.000  H
  H123     1.0000 0.17460  0.16340  0.74660  Biso   1.000  H
  H124     1.0000 0.67460  0.66340  0.74660  Biso   1.000  H
  H125     1.0000 0.17460  0.83660  0.24660  Biso   1.000  H
  H126     1.0000 0.67460  0.33660  0.24660  Biso   1.000  H
  H127     1.0000 0.82540  0.83660  0.25340  Biso   1.000  H
  H128     1.0000 0.32540  0.33660  0.25340  Biso   1.000  H
  C161     1.0000 0.74990  0.21250  0.80093  Biso   1.000  C
  C162     1.0000 0.24990  0.71250  0.80093  Biso   1.000  C
  C163     1.0000 0.25010  0.21250  0.69907  Biso   1.000  C
  C164     1.0000 0.75010  0.71250  0.69907  Biso   1.000  C
  C165     1.0000 0.25010  0.78750  0.19907  Biso   1.000  C
  C166     1.0000 0.75010  0.28750  0.19907  Biso   1.000  C
  C167     1.0000 0.74990  0.78750  0.30093  Biso   1.000  C
  C168     1.0000 0.24990  0.28750  0.30093  Biso   1.000  C
  C169     1.0000 0.79030  0.26310  0.85537  Biso   1.000  C
  C170     1.0000 0.29030  0.76310  0.85537  Biso   1.000  C
  C171     1.0000 0.20970  0.26310  0.64463  Biso   1.000  C
  C172     1.0000 0.70970  0.76310  0.64463  Biso   1.000  C
  C173     1.0000 0.20970  0.73690  0.14463  Biso   1.000  C
  C174     1.0000 0.70970  0.23690  0.14463  Biso   1.000  C
  C175     1.0000 0.79030  0.73690  0.35537  Biso   1.000  C
  C176     1.0000 0.29030  0.23690  0.35537  Biso   1.000  C
  C177     1.0000 0.85880  0.28240  0.87220  Biso   1.000  C
  C178     1.0000 0.35880  0.78240  0.87220  Biso   1.000  C
  C179     1.0000 0.14120  0.28240  0.62780  Biso   1.000  C
  C180     1.0000 0.64120  0.78240  0.62780  Biso   1.000  C
  C181     1.0000 0.14120  0.71760  0.12780  Biso   1.000  C
  C182     1.0000 0.64120  0.21760  0.12780  Biso   1.000  C
  C183     1.0000 0.85880  0.71760  0.37220  Biso   1.000  C
  C184     1.0000 0.35880  0.21760  0.37220  Biso   1.000  C
  H129     1.0000 0.89480  0.26570  0.85030  Biso   1.000  H
  H130     1.0000 0.39480  0.76570  0.85030  Biso   1.000  H
  H131     1.0000 0.10520  0.26570  0.64970  Biso   1.000  H
  H132     1.0000 0.60520  0.76570  0.64970  Biso   1.000  H
  H133     1.0000 0.10520  0.73430  0.14970  Biso   1.000  H
  H134     1.0000 0.60520  0.23430  0.14970  Biso   1.000  H
  H135     1.0000 0.89480  0.73430  0.35030  Biso   1.000  H
  H136     1.0000 0.39480  0.23430  0.35030  Biso   1.000  H
  C185     1.0000 0.86200  0.33200  0.92880  Biso   1.000  C
  C186     1.0000 0.36200  0.83200  0.92880  Biso   1.000  C
  C187     1.0000 0.13800  0.33200  0.57120  Biso   1.000  C
  C188     1.0000 0.63800  0.83200  0.57120  Biso   1.000  C
  C189     1.0000 0.13800  0.66800  0.07120  Biso   1.000  C
  C190     1.0000 0.63800  0.16800  0.07120  Biso   1.000  C
  C191     1.0000 0.86200  0.66800  0.42880  Biso   1.000  C
  C192     1.0000 0.36200  0.16800  0.42880  Biso   1.000  C
  H137     1.0000 0.90230  0.35550  0.95230  Biso   1.000  H
  H138     1.0000 0.40230  0.85550  0.95230  Biso   1.000  H
  H139     1.0000 0.09770  0.35550  0.54770  Biso   1.000  H
  H140     1.0000 0.59770  0.85550  0.54770  Biso   1.000  H
  H141     1.0000 0.09770  0.64450  0.04770  Biso   1.000  H
  H142     1.0000 0.59770  0.14450  0.04770  Biso   1.000  H
  H143     1.0000 0.90230  0.64450  0.45230  Biso   1.000  H
  H144     1.0000 0.40230  0.14450  0.45230  Biso   1.000  H
  C193     1.0000 0.45420  0.43120  0.68870  Biso   1.000  C
  C194     1.0000 0.95420  0.93120  0.68870  Biso   1.000  C
  C195     1.0000 0.54580  0.43120  0.81130  Biso   1.000  C
  C196     1.0000 0.04580  0.93120  0.81130  Biso   1.000  C
  C197     1.0000 0.54580  0.56880  0.31130  Biso   1.000  C
  C198     1.0000 0.04580  0.06880  0.31130  Biso   1.000  C
  C199     1.0000 0.45420  0.56880  0.18870  Biso   1.000  C
  C200     1.0000 0.95420  0.06880  0.18870  Biso   1.000  C
  C201     1.0000 0.45720  0.54790  0.70123  Biso   1.000  C
  C202     1.0000 0.95720  0.04790  0.70123  Biso   1.000  C
  C203     1.0000 0.54280  0.54790  0.79877  Biso   1.000  C
  C204     1.0000 0.04280  0.04790  0.79877  Biso   1.000  C
  C205     1.0000 0.54280  0.45210  0.29877  Biso   1.000  C
  C206     1.0000 0.04280  0.95210  0.29877  Biso   1.000  C
  C207     1.0000 0.45720  0.45210  0.20123  Biso   1.000  C
  C208     1.0000 0.95720  0.95210  0.20123  Biso   1.000  C
  C209     1.0000 0.50000  0.59860  0.75000  Biso   1.000  C
  C210     1.0000 0.00000  0.09860  0.75000  Biso   1.000  C
  C211     1.0000 0.50000  0.40140  0.25000  Biso   1.000  C
  C212     1.0000 0.00000  0.90140  0.25000  Biso   1.000  C
  C213     1.0000 0.50000  0.71050  0.75000  Biso   1.000  C
  C214     1.0000 0.00000  0.21050  0.75000  Biso   1.000  C
  C215     1.0000 0.50000  0.28950  0.25000  Biso   1.000  C
  C216     1.0000 0.00000  0.78950  0.25000  Biso   1.000  C
  C217     1.0000 0.45760  0.76480  0.70320  Biso   1.000  C
  C218     1.0000 0.95760  0.26480  0.70320  Biso   1.000  C
  C219     1.0000 0.54240  0.76480  0.79680  Biso   1.000  C
  C220     1.0000 0.04240  0.26480  0.79680  Biso   1.000  C
  C221     1.0000 0.54240  0.23520  0.29680  Biso   1.000  C
  C222     1.0000 0.04240  0.73520  0.29680  Biso   1.000  C
  C223     1.0000 0.45760  0.23520  0.20320  Biso   1.000  C
  C224     1.0000 0.95760  0.73520  0.20320  Biso   1.000  C
  H145     1.0000 0.45750  0.83750  0.70390  Biso   1.000  H
  H146     1.0000 0.95750  0.33750  0.70390  Biso   1.000  H
  H147     1.0000 0.54250  0.83750  0.79610  Biso   1.000  H
  H148     1.0000 0.04250  0.33750  0.79610  Biso   1.000  H
  H149     1.0000 0.54250  0.16250  0.29610  Biso   1.000  H
  H150     1.0000 0.04250  0.66250  0.29610  Biso   1.000  H
  H151     1.0000 0.45750  0.16250  0.20390  Biso   1.000  H
  H152     1.0000 0.95750  0.66250  0.20390  Biso   1.000  H
  C225     1.0000 0.41780  0.71520  0.65800  Biso   1.000  C
  C226     1.0000 0.91780  0.21520  0.65800  Biso   1.000  C
  C227     1.0000 0.58220  0.71520  0.84200  Biso   1.000  C
  C228     1.0000 0.08220  0.21520  0.84200  Biso   1.000  C
  C229     1.0000 0.58220  0.28480  0.34200  Biso   1.000  C
  C230     1.0000 0.08220  0.78480  0.34200  Biso   1.000  C
  C231     1.0000 0.41780  0.28480  0.15800  Biso   1.000  C
  C232     1.0000 0.91780  0.78480  0.15800  Biso   1.000  C
  H153     1.0000 0.39050  0.75280  0.62710  Biso   1.000  H
  H154     1.0000 0.89050  0.25280  0.62710  Biso   1.000  H
  H155     1.0000 0.60950  0.75280  0.87290  Biso   1.000  H
  H156     1.0000 0.10950  0.25280  0.87290  Biso   1.000  H
  H157     1.0000 0.60950  0.24720  0.37290  Biso   1.000  H
  H158     1.0000 0.10950  0.74720  0.37290  Biso   1.000  H
  H159     1.0000 0.39050  0.24720  0.12710  Biso   1.000  H
  H160     1.0000 0.89050  0.74720  0.12710  Biso   1.000  H
  C233     1.0000 0.41720  0.60730  0.65710  Biso   1.000  C
  C234     1.0000 0.91720  0.10730  0.65710  Biso   1.000  C
  C235     1.0000 0.58280  0.60730  0.84290  Biso   1.000  C
  C236     1.0000 0.08280  0.10730  0.84290  Biso   1.000  C
  C237     1.0000 0.58280  0.39270  0.34290  Biso   1.000  C
  C238     1.0000 0.08280  0.89270  0.34290  Biso   1.000  C
  C239     1.0000 0.41720  0.39270  0.15710  Biso   1.000  C
  C240     1.0000 0.91720  0.89270  0.15710  Biso   1.000  C
  H161     1.0000 0.38860  0.57330  0.62540  Biso   1.000  H
  H162     1.0000 0.88860  0.07330  0.62540  Biso   1.000  H
  H163     1.0000 0.61140  0.57330  0.87460  Biso   1.000  H
  H164     1.0000 0.11140  0.07330  0.87460  Biso   1.000  H
  H165     1.0000 0.61140  0.42670  0.37460  Biso   1.000  H
  H166     1.0000 0.11140  0.92670  0.37460  Biso   1.000  H
  H167     1.0000 0.38860  0.42670  0.12540  Biso   1.000  H
  H168     1.0000 0.88860  0.92670  0.12540  Biso   1.000  H
  Cu1      1.0000 0.77425  0.41457  0.02011  Biso   1.000  Cu
  Cu2      1.0000 0.27425  0.91457  0.02011  Biso   1.000  Cu
  Cu3      1.0000 0.22575  0.41457  0.47989  Biso   1.000  Cu
  Cu4      1.0000 0.72575  0.91457  0.47989  Biso   1.000  Cu
  Cu5      1.0000 0.22575  0.58543  0.97989  Biso   1.000  Cu
  Cu6      1.0000 0.72575  0.08543  0.97989  Biso   1.000  Cu
  Cu7      1.0000 0.77425  0.58543  0.52011  Biso   1.000  Cu
  Cu8      1.0000 0.27425  0.08543  0.52011  Biso   1.000  Cu
  Cu9      1.0000 0.65149  0.28809  0.87709  Biso   1.000  Cu
  Cu10     1.0000 0.15149  0.78809  0.87709  Biso   1.000  Cu
  Cu11     1.0000 0.34851  0.28809  0.62291  Biso   1.000  Cu
  Cu12     1.0000 0.84851  0.78809  0.62291  Biso   1.000  Cu
  Cu13     1.0000 0.34851  0.71191  0.12291  Biso   1.000  Cu
  Cu14     1.0000 0.84851  0.21191  0.12291  Biso   1.000  Cu
  Cu15     1.0000 0.65149  0.71191  0.37709  Biso   1.000  Cu
  Cu16     1.0000 0.15149  0.21191  0.37709  Biso   1.000  Cu
  N1       1.0000 0.74368  0.48450  0.09792  Biso   1.000  N
  N2       1.0000 0.24368  0.98450  0.09792  Biso   1.000  N
  N3       1.0000 0.25632  0.48450  0.40208  Biso   1.000  N
  N4       1.0000 0.75632  0.98450  0.40208  Biso   1.000  N
  N5       1.0000 0.25632  0.51550  0.90208  Biso   1.000  N
  N6       1.0000 0.75632  0.01550  0.90208  Biso   1.000  N
  N7       1.0000 0.74368  0.51550  0.59792  Biso   1.000  N
  N8       1.0000 0.24368  0.01550  0.59792  Biso   1.000  N
  N9       1.0000 0.67405  0.40340  0.99870  Biso   1.000  N
  N10      1.0000 0.17405  0.90340  0.99870  Biso   1.000  N
  N11      1.0000 0.32595  0.40340  0.50130  Biso   1.000  N
  N12      1.0000 0.82595  0.90340  0.50130  Biso   1.000  N
  N13      1.0000 0.32595  0.59660  0.00130  Biso   1.000  N
  N14      1.0000 0.82595  0.09660  0.00130  Biso   1.000  N
  N15      1.0000 0.67405  0.59660  0.49870  Biso   1.000  N
  N16      1.0000 0.17405  0.09660  0.49870  Biso   1.000  N
  N17      1.0000 0.62966  0.36150  0.95165  Biso   1.000  N
  N18      1.0000 0.12966  0.86150  0.95165  Biso   1.000  N
  N19      1.0000 0.37034  0.36150  0.54835  Biso   1.000  N
  N20      1.0000 0.87034  0.86150  0.54835  Biso   1.000  N
  N21      1.0000 0.37034  0.63850  0.04835  Biso   1.000  N
  N22      1.0000 0.87034  0.13850  0.04835  Biso   1.000  N
  N23      1.0000 0.62966  0.63850  0.45165  Biso   1.000  N
  N24      1.0000 0.12966  0.13850  0.45165  Biso   1.000  N
  N25      1.0000 0.81887  0.57410  0.99336  Biso   1.000  N
  N26      1.0000 0.31887  0.07410  0.99336  Biso   1.000  N
  N27      1.0000 0.18113  0.57410  0.50664  Biso   1.000  N
  N28      1.0000 0.68113  0.07410  0.50664  Biso   1.000  N
  N29      1.0000 0.18113  0.42590  0.00664  Biso   1.000  N
  N30      1.0000 0.68113  0.92590  0.00664  Biso   1.000  N
  N31      1.0000 0.81887  0.42590  0.49336  Biso   1.000  N
  N32      1.0000 0.31887  0.92590  0.49336  Biso   1.000  N
  N33      1.0000 0.87052  0.41390  0.06254  Biso   1.000  N
  N34      1.0000 0.37052  0.91390  0.06254  Biso   1.000  N
  N35      1.0000 0.12948  0.41390  0.43746  Biso   1.000  N
  N36      1.0000 0.62948  0.91390  0.43746  Biso   1.000  N
  N37      1.0000 0.12948  0.58610  0.93746  Biso   1.000  N
  N38      1.0000 0.62948  0.08610  0.93746  Biso   1.000  N
  N39      1.0000 0.87052  0.58610  0.56254  Biso   1.000  N
  N40      1.0000 0.37052  0.08610  0.56254  Biso   1.000  N
  N41      1.0000 0.90351  0.34350  0.10180  Biso   1.000  N
  N42      1.0000 0.40351  0.84350  0.10180  Biso   1.000  N
  N43      1.0000 0.09649  0.34350  0.39820  Biso   1.000  N
  N44      1.0000 0.59649  0.84350  0.39820  Biso   1.000  N
  N45      1.0000 0.09649  0.65650  0.89820  Biso   1.000  N
  N46      1.0000 0.59649  0.15650  0.89820  Biso   1.000  N
  N47      1.0000 0.90351  0.65650  0.60180  Biso   1.000  N
  N48      1.0000 0.40351  0.15650  0.60180  Biso   1.000  N
  N49      1.0000 0.68200  0.21630  0.80190  Biso   1.000  N
  N50      1.0000 0.18200  0.71630  0.80190  Biso   1.000  N
  N51      1.0000 0.31800  0.21630  0.69810  Biso   1.000  N
  N52      1.0000 0.81800  0.71630  0.69810  Biso   1.000  N
  N53      1.0000 0.31800  0.78370  0.19810  Biso   1.000  N
  N54      1.0000 0.81800  0.28370  0.19810  Biso   1.000  N
  N55      1.0000 0.68200  0.78370  0.30190  Biso   1.000  N
  N56      1.0000 0.18200  0.28370  0.30190  Biso   1.000  N
  N57      1.0000 0.75456  0.29910  0.89944  Biso   1.000  N
  N58      1.0000 0.25456  0.79910  0.89944  Biso   1.000  N
  N59      1.0000 0.24544  0.29910  0.60056  Biso   1.000  N
  N60      1.0000 0.74544  0.79910  0.60056  Biso   1.000  N
  N61      1.0000 0.24544  0.70090  0.10056  Biso   1.000  N
  N62      1.0000 0.74544  0.20090  0.10056  Biso   1.000  N
  N63      1.0000 0.75456  0.70090  0.39944  Biso   1.000  N
  N64      1.0000 0.25456  0.20090  0.39944  Biso   1.000  N
  N65      1.0000 0.79947  0.34200  0.94564  Biso   1.000  N
  N66      1.0000 0.29947  0.84200  0.94564  Biso   1.000  N
  N67      1.0000 0.20053  0.34200  0.55436  Biso   1.000  N
  N68      1.0000 0.70053  0.84200  0.55436  Biso   1.000  N
  N69      1.0000 0.20053  0.65800  0.05436  Biso   1.000  N
  N70      1.0000 0.70053  0.15800  0.05436  Biso   1.000  N
  N71      1.0000 0.79947  0.65800  0.44564  Biso   1.000  N
  N72      1.0000 0.29947  0.15800  0.44564  Biso   1.000  N
  O1       1.0000 0.39360  0.39540  0.68269  Biso   1.000  O
  O2       1.0000 0.89360  0.89540  0.68269  Biso   1.000  O
  O3       1.0000 0.60640  0.39540  0.81731  Biso   1.000  O
  O4       1.0000 0.10640  0.89540  0.81731  Biso   1.000  O
  O5       1.0000 0.60640  0.60460  0.31731  Biso   1.000  O
  O6       1.0000 0.10640  0.10460  0.31731  Biso   1.000  O
  O7       1.0000 0.39360  0.60460  0.18269  Biso   1.000  O
  O8       1.0000 0.89360  0.10460  0.18269  Biso   1.000  O
  O9       1.0000 0.50660  0.38510  0.68082  Biso   1.000  O
  O10      1.0000 0.00660  0.88510  0.68082  Biso   1.000  O
  O11      1.0000 0.49340  0.38510  0.81918  Biso   1.000  O
  O12      1.0000 0.99340  0.88510  0.81918  Biso   1.000  O
  O13      1.0000 0.49340  0.61490  0.31918  Biso   1.000  O
  O14      1.0000 0.99340  0.11490  0.31918  Biso   1.000  O
  O15      1.0000 0.50660  0.61490  0.18082  Biso   1.000  O
  O16      1.0000 0.00660  0.11490  0.18082  Biso   1.000  O
