data_image0
_cell_length_a       8.592
_cell_length_b       15.872
_cell_length_c       20.296
_cell_angle_alpha    90
_cell_angle_beta     90
_cell_angle_gamma    90

_symmetry_space_group_name_H-M    "P 1"
_symmetry_int_tables_number       1

loop_
  _symmetry_equiv_pos_as_xyz
  'x, y, z'

loop_
  _atom_site_label
  _atom_site_occupancy
  _atom_site_fract_x
  _atom_site_fract_y
  _atom_site_fract_z
  _atom_site_thermal_displace_type
  _atom_site_B_iso_or_equiv
  _atom_site_type_symbol
  Sm1      1.0000 0.63960  0.11275  0.43090  Biso   1.000  Sm
  Sm2      1.0000 0.86040  0.88725  0.93090  Biso   1.000  Sm
  Sm3      1.0000 0.36040  0.61275  0.06910  Biso   1.000  Sm
  Sm4      1.0000 0.13960  0.38725  0.56910  Biso   1.000  Sm
  Cu1      1.0000 0.75993  0.95895  0.31465  Biso   1.000  Cu
  Cu2      1.0000 0.74007  0.04105  0.81465  Biso   1.000  Cu
  Cu3      1.0000 0.24007  0.45895  0.18535  Biso   1.000  Cu
  Cu4      1.0000 0.25993  0.54105  0.68535  Biso   1.000  Cu
  N1       1.0000 0.73630  0.83510  0.30740  Biso   1.000  N
  N2       1.0000 0.76370  0.16490  0.80740  Biso   1.000  N
  N3       1.0000 0.26370  0.33510  0.19260  Biso   1.000  N
  N4       1.0000 0.23630  0.66490  0.69260  Biso   1.000  N
  N5       1.0000 0.89880  0.97200  0.23790  Biso   1.000  N
  N6       1.0000 0.60120  0.02800  0.73790  Biso   1.000  N
  N7       1.0000 0.10120  0.47200  0.26210  Biso   1.000  N
  N8       1.0000 0.39880  0.52800  0.76210  Biso   1.000  N
  O1       1.0000 0.61560  0.96844  0.38812  Biso   1.000  O
  O2       1.0000 0.88440  0.03156  0.88812  Biso   1.000  O
  O3       1.0000 0.38440  0.46844  0.11188  Biso   1.000  O
  O4       1.0000 0.11560  0.53156  0.61188  Biso   1.000  O
  O5       1.0000 0.75760  0.08261  0.32559  Biso   1.000  O
  O6       1.0000 0.74240  0.91739  0.82559  Biso   1.000  O
  O7       1.0000 0.24240  0.58261  0.17441  Biso   1.000  O
  O8       1.0000 0.25760  0.41739  0.67441  Biso   1.000  O
  O9       1.0000 0.44600  0.01220  0.48775  Biso   1.000  O
  O10      1.0000 0.05400  0.98780  0.98775  Biso   1.000  O
  O11      1.0000 0.55400  0.51220  0.01225  Biso   1.000  O
  O12      1.0000 0.94600  0.48780  0.51225  Biso   1.000  O
  O13      1.0000 0.63680  0.23115  0.34485  Biso   1.000  O
  O14      1.0000 0.86320  0.76885  0.84485  Biso   1.000  O
  O15      1.0000 0.36320  0.73115  0.15515  Biso   1.000  O
  O16      1.0000 0.13680  0.26885  0.65515  Biso   1.000  O
  O17      1.0000 0.72310  0.08066  0.55028  Biso   1.000  O
  O18      1.0000 0.77690  0.91934  0.05028  Biso   1.000  O
  O19      1.0000 0.27690  0.58066  0.94972  Biso   1.000  O
  O20      1.0000 0.22310  0.41934  0.44972  Biso   1.000  O
  O21      1.0000 0.85260  0.01964  0.47058  Biso   1.000  O
  O22      1.0000 0.64740  0.98036  0.97058  Biso   1.000  O
  O23      1.0000 0.14740  0.51964  0.02942  Biso   1.000  O
  O24      1.0000 0.35260  0.48036  0.52942  Biso   1.000  O
  O25      1.0000 0.15560  0.92420  0.67217  Biso   1.000  O
  O26      1.0000 0.34440  0.07580  0.17217  Biso   1.000  O
  O27      1.0000 0.84440  0.42420  0.82783  Biso   1.000  O
  O28      1.0000 0.65560  0.57580  0.32783  Biso   1.000  O
  O29      1.0000 0.03220  0.00769  0.74683  Biso   1.000  O
  O30      1.0000 0.46780  0.99231  0.24683  Biso   1.000  O
  O31      1.0000 0.96780  0.50769  0.75317  Biso   1.000  O
  O32      1.0000 0.53220  0.49231  0.25317  Biso   1.000  O
  O33      1.0000 0.50520  0.21303  0.49466  Biso   1.000  O
  O34      1.0000 0.99480  0.78697  0.99466  Biso   1.000  O
  O35      1.0000 0.49480  0.71303  0.00534  Biso   1.000  O
  O36      1.0000 0.00520  0.28697  0.50534  Biso   1.000  O
  O37      1.0000 0.89960  0.37765  0.62580  Biso   1.000  O
  O38      1.0000 0.60040  0.62235  0.12580  Biso   1.000  O
  O39      1.0000 0.10040  0.87765  0.87420  Biso   1.000  O
  O40      1.0000 0.39960  0.12235  0.37420  Biso   1.000  O
  O41      1.0000 0.74790  0.47237  0.67483  Biso   1.000  O
  O42      1.0000 0.75210  0.52763  0.17483  Biso   1.000  O
  O43      1.0000 0.25210  0.97237  0.82517  Biso   1.000  O
  O44      1.0000 0.24790  0.02763  0.32517  Biso   1.000  O
  C1       1.0000 0.66150  0.79250  0.34980  Biso   1.000  C
  C2       1.0000 0.83850  0.20750  0.84980  Biso   1.000  C
  C3       1.0000 0.33850  0.29250  0.15020  Biso   1.000  C
  C4       1.0000 0.16150  0.70750  0.65020  Biso   1.000  C
  H1       1.0000 0.66360  0.73320  0.34330  Biso   1.000  H
  H2       1.0000 0.83640  0.26680  0.84330  Biso   1.000  H
  H3       1.0000 0.33640  0.23320  0.15670  Biso   1.000  H
  H4       1.0000 0.16360  0.76680  0.65670  Biso   1.000  H
  C5       1.0000 0.57320  0.82040  0.40660  Biso   1.000  C
  C6       1.0000 0.92680  0.17960  0.90660  Biso   1.000  C
  C7       1.0000 0.42680  0.32040  0.09340  Biso   1.000  C
  C8       1.0000 0.07320  0.67960  0.59340  Biso   1.000  C
  C9       1.0000 0.50450  0.75960  0.44720  Biso   1.000  C
  C10      1.0000 0.99550  0.24040  0.94720  Biso   1.000  C
  C11      1.0000 0.49550  0.25960  0.05280  Biso   1.000  C
  C12      1.0000 0.00450  0.74040  0.55280  Biso   1.000  C
  H5       1.0000 0.51950  0.70180  0.43680  Biso   1.000  H
  H6       1.0000 0.98050  0.29820  0.93680  Biso   1.000  H
  H7       1.0000 0.48050  0.20180  0.06320  Biso   1.000  H
  H8       1.0000 0.01950  0.79820  0.56320  Biso   1.000  H
  C13      1.0000 0.41910  0.77930  0.49980  Biso   1.000  C
  C14      1.0000 0.08090  0.22070  0.99980  Biso   1.000  C
  C15      1.0000 0.58090  0.27930  0.00020  Biso   1.000  C
  C16      1.0000 0.91910  0.72070  0.50020  Biso   1.000  C
  H9       1.0000 0.37600  0.73590  0.52640  Biso   1.000  H
  H10      1.0000 0.12400  0.26410  0.02640  Biso   1.000  H
  H11      1.0000 0.62400  0.23590  0.97360  Biso   1.000  H
  H12      1.0000 0.87600  0.76410  0.47360  Biso   1.000  H
  C17      1.0000 0.39170  0.86700  0.51650  Biso   1.000  C
  C18      1.0000 0.10830  0.13300  0.01650  Biso   1.000  C
  C19      1.0000 0.60830  0.36700  0.98350  Biso   1.000  C
  C20      1.0000 0.89170  0.63300  0.48350  Biso   1.000  C
  H13      1.0000 0.32920  0.88250  0.55310  Biso   1.000  H
  H14      1.0000 0.17080  0.11750  0.05310  Biso   1.000  H
  H15      1.0000 0.67080  0.38250  0.94690  Biso   1.000  H
  H16      1.0000 0.82920  0.61750  0.44690  Biso   1.000  H
  C21      1.0000 0.45920  0.92660  0.47660  Biso   1.000  C
  C22      1.0000 0.04080  0.07340  0.97660  Biso   1.000  C
  C23      1.0000 0.54080  0.42660  0.02340  Biso   1.000  C
  C24      1.0000 0.95920  0.57340  0.52340  Biso   1.000  C
  C25      1.0000 0.55260  0.90710  0.42210  Biso   1.000  C
  C26      1.0000 0.94740  0.09290  0.92210  Biso   1.000  C
  C27      1.0000 0.44740  0.40710  0.07790  Biso   1.000  C
  C28      1.0000 0.05260  0.59290  0.57790  Biso   1.000  C
  C29      1.0000 0.76130  0.13570  0.27540  Biso   1.000  C
  C30      1.0000 0.73870  0.86430  0.77540  Biso   1.000  C
  C31      1.0000 0.23870  0.63570  0.22460  Biso   1.000  C
  C32      1.0000 0.26130  0.36430  0.72460  Biso   1.000  C
  C33      1.0000 0.69510  0.21660  0.28250  Biso   1.000  C
  C34      1.0000 0.80490  0.78340  0.78250  Biso   1.000  C
  C35      1.0000 0.30490  0.71660  0.21750  Biso   1.000  C
  C36      1.0000 0.19510  0.28340  0.71750  Biso   1.000  C
  C37      1.0000 0.69250  0.27410  0.23210  Biso   1.000  C
  C38      1.0000 0.80750  0.72590  0.73210  Biso   1.000  C
  C39      1.0000 0.30750  0.77410  0.26790  Biso   1.000  C
  C40      1.0000 0.19250  0.22590  0.76790  Biso   1.000  C
  H17      1.0000 0.64340  0.32730  0.23790  Biso   1.000  H
  H18      1.0000 0.85660  0.67270  0.73790  Biso   1.000  H
  H19      1.0000 0.35660  0.82730  0.26210  Biso   1.000  H
  H20      1.0000 0.14340  0.17270  0.76210  Biso   1.000  H
  C41      1.0000 0.76270  0.25380  0.17200  Biso   1.000  C
  C42      1.0000 0.73730  0.74620  0.67200  Biso   1.000  C
  C43      1.0000 0.23730  0.75380  0.32800  Biso   1.000  C
  C44      1.0000 0.26270  0.24620  0.82800  Biso   1.000  C
  H21      1.0000 0.76290  0.29340  0.13690  Biso   1.000  H
  H22      1.0000 0.73710  0.70660  0.63690  Biso   1.000  H
  H23      1.0000 0.23710  0.79340  0.36310  Biso   1.000  H
  H24      1.0000 0.26290  0.20660  0.86310  Biso   1.000  H
  C45      1.0000 0.83030  0.17750  0.16420  Biso   1.000  C
  C46      1.0000 0.66970  0.82250  0.66420  Biso   1.000  C
  C47      1.0000 0.16970  0.67750  0.33580  Biso   1.000  C
  C48      1.0000 0.33030  0.32250  0.83580  Biso   1.000  C
  H25      1.0000 0.87830  0.16440  0.12330  Biso   1.000  H
  H26      1.0000 0.62170  0.83560  0.62330  Biso   1.000  H
  H27      1.0000 0.12170  0.66440  0.37670  Biso   1.000  H
  H28      1.0000 0.37830  0.33560  0.87670  Biso   1.000  H
  C49      1.0000 0.83160  0.11690  0.21489  Biso   1.000  C
  C50      1.0000 0.66840  0.88310  0.71489  Biso   1.000  C
  C51      1.0000 0.16840  0.61690  0.28511  Biso   1.000  C
  C52      1.0000 0.33160  0.38310  0.78511  Biso   1.000  C
  C53      1.0000 0.91140  0.03900  0.20390  Biso   1.000  C
  C54      1.0000 0.58860  0.96100  0.70390  Biso   1.000  C
  C55      1.0000 0.08860  0.53900  0.29610  Biso   1.000  C
  C56      1.0000 0.41140  0.46100  0.79610  Biso   1.000  C
  H29      1.0000 0.98080  0.03710  0.16750  Biso   1.000  H
  H30      1.0000 0.51920  0.96290  0.66750  Biso   1.000  H
  H31      1.0000 0.01920  0.53710  0.33250  Biso   1.000  H
  H32      1.0000 0.48080  0.46290  0.83250  Biso   1.000  H
  C57      1.0000 0.99710  0.90050  0.21820  Biso   1.000  C
  C58      1.0000 0.50290  0.09950  0.71820  Biso   1.000  C
  C59      1.0000 0.00290  0.40050  0.28180  Biso   1.000  C
  C60      1.0000 0.49710  0.59950  0.78180  Biso   1.000  C
  H33      1.0000 0.07260  0.88800  0.25370  Biso   1.000  H
  H34      1.0000 0.42740  0.11200  0.75370  Biso   1.000  H
  H35      1.0000 0.92740  0.38800  0.24630  Biso   1.000  H
  H36      1.0000 0.57260  0.61200  0.74630  Biso   1.000  H
  H37      1.0000 0.05650  0.91560  0.17810  Biso   1.000  H
  H38      1.0000 0.44350  0.08440  0.67810  Biso   1.000  H
  H39      1.0000 0.94350  0.41560  0.32190  Biso   1.000  H
  H40      1.0000 0.55650  0.58440  0.82190  Biso   1.000  H
  C61      1.0000 0.90240  0.82500  0.20500  Biso   1.000  C
  C62      1.0000 0.59760  0.17500  0.70500  Biso   1.000  C
  C63      1.0000 0.09760  0.32500  0.29500  Biso   1.000  C
  C64      1.0000 0.40240  0.67500  0.79500  Biso   1.000  C
  H41      1.0000 0.81870  0.84110  0.17390  Biso   1.000  H
  H42      1.0000 0.68130  0.15890  0.67390  Biso   1.000  H
  H43      1.0000 0.18130  0.34110  0.32610  Biso   1.000  H
  H44      1.0000 0.31870  0.65890  0.82610  Biso   1.000  H
  H45      1.0000 0.96920  0.78330  0.18230  Biso   1.000  H
  H46      1.0000 0.53080  0.21670  0.68230  Biso   1.000  H
  H47      1.0000 0.03080  0.28330  0.31770  Biso   1.000  H
  H48      1.0000 0.46920  0.71670  0.81770  Biso   1.000  H
  C65      1.0000 0.83080  0.78360  0.26100  Biso   1.000  C
  C66      1.0000 0.66920  0.21640  0.76100  Biso   1.000  C
  C67      1.0000 0.16920  0.28360  0.23900  Biso   1.000  C
  C68      1.0000 0.33080  0.71640  0.73900  Biso   1.000  C
  H49      1.0000 0.91470  0.75630  0.28680  Biso   1.000  H
  H50      1.0000 0.58530  0.24370  0.78680  Biso   1.000  H
  H51      1.0000 0.08530  0.25630  0.21320  Biso   1.000  H
  H52      1.0000 0.41470  0.74370  0.71320  Biso   1.000  H
  H53      1.0000 0.76320  0.73810  0.24390  Biso   1.000  H
  H54      1.0000 0.73680  0.26190  0.74390  Biso   1.000  H
  H55      1.0000 0.23680  0.23810  0.25610  Biso   1.000  H
  H56      1.0000 0.26320  0.76190  0.75610  Biso   1.000  H
  C69      1.0000 0.33300  0.04010  0.53450  Biso   1.000  C
  C70      1.0000 0.16700  0.95990  0.03450  Biso   1.000  C
  C71      1.0000 0.66700  0.54010  0.96550  Biso   1.000  C
  C72      1.0000 0.83300  0.45990  0.46550  Biso   1.000  C
  H57      1.0000 0.23000  0.01920  0.52180  Biso   1.000  H
  H58      1.0000 0.27000  0.98080  0.02180  Biso   1.000  H
  H59      1.0000 0.77000  0.51920  0.97820  Biso   1.000  H
  H60      1.0000 0.73000  0.48080  0.47820  Biso   1.000  H
  H61      1.0000 0.33160  0.10180  0.53570  Biso   1.000  H
  H62      1.0000 0.16840  0.89820  0.03570  Biso   1.000  H
  H63      1.0000 0.66840  0.60180  0.96430  Biso   1.000  H
  H64      1.0000 0.83160  0.39820  0.46430  Biso   1.000  H
  H65      1.0000 0.35990  0.01830  0.57830  Biso   1.000  H
  H66      1.0000 0.14010  0.98170  0.07830  Biso   1.000  H
  H67      1.0000 0.64010  0.51830  0.92170  Biso   1.000  H
  H68      1.0000 0.85990  0.48170  0.42170  Biso   1.000  H
  C73      1.0000 0.56570  0.31200  0.35576  Biso   1.000  C
  C74      1.0000 0.93430  0.68800  0.85576  Biso   1.000  C
  C75      1.0000 0.43430  0.81200  0.14424  Biso   1.000  C
  C76      1.0000 0.06570  0.18800  0.64424  Biso   1.000  C
  H69      1.0000 0.64570  0.35600  0.35440  Biso   1.000  H
  H70      1.0000 0.85430  0.64400  0.85440  Biso   1.000  H
  H71      1.0000 0.35430  0.85600  0.14560  Biso   1.000  H
  H72      1.0000 0.14570  0.14400  0.64560  Biso   1.000  H
  H73      1.0000 0.51470  0.31240  0.39900  Biso   1.000  H
  H74      1.0000 0.98530  0.68760  0.89900  Biso   1.000  H
  H75      1.0000 0.48530  0.81240  0.10100  Biso   1.000  H
  H76      1.0000 0.01470  0.18760  0.60100  Biso   1.000  H
  H77      1.0000 0.48820  0.32270  0.32130  Biso   1.000  H
  H78      1.0000 0.01180  0.67730  0.82130  Biso   1.000  H
  H79      1.0000 0.51180  0.82270  0.17870  Biso   1.000  H
  H80      1.0000 0.98820  0.17730  0.67870  Biso   1.000  H
  C77      1.0000 0.83160  0.03191  0.53149  Biso   1.000  C
  C78      1.0000 0.66840  0.96809  0.03149  Biso   1.000  C
  C79      1.0000 0.16840  0.53191  0.96851  Biso   1.000  C
  C80      1.0000 0.33160  0.46809  0.46851  Biso   1.000  C
  C81      1.0000 0.93310  0.99080  0.57760  Biso   1.000  C
  C82      1.0000 0.56690  0.00920  0.07760  Biso   1.000  C
  C83      1.0000 0.06690  0.49080  0.92240  Biso   1.000  C
  C84      1.0000 0.43310  0.50920  0.42240  Biso   1.000  C
  H81      1.0000 0.00370  0.94990  0.56110  Biso   1.000  H
  H82      1.0000 0.49630  0.05010  0.06110  Biso   1.000  H
  H83      1.0000 0.99630  0.44990  0.93890  Biso   1.000  H
  H84      1.0000 0.50370  0.55010  0.43890  Biso   1.000  H
  C85      1.0000 0.93420  0.00600  0.63950  Biso   1.000  C
  C86      1.0000 0.56580  0.99400  0.13950  Biso   1.000  C
  C87      1.0000 0.06580  0.50600  0.86050  Biso   1.000  C
  C88      1.0000 0.43420  0.49400  0.36050  Biso   1.000  C
  H85      1.0000 0.85420  0.04110  0.65650  Biso   1.000  H
  H86      1.0000 0.64580  0.95890  0.15650  Biso   1.000  H
  H87      1.0000 0.14580  0.54110  0.84350  Biso   1.000  H
  H88      1.0000 0.35420  0.45890  0.34350  Biso   1.000  H
  C89      1.0000 0.05300  0.97220  0.68780  Biso   1.000  C
  C90      1.0000 0.44700  0.02780  0.18780  Biso   1.000  C
  C91      1.0000 0.94700  0.47220  0.81220  Biso   1.000  C
  C92      1.0000 0.55300  0.52780  0.31220  Biso   1.000  C
  C93      1.0000 0.76960  0.40930  0.63860  Biso   1.000  C
  C94      1.0000 0.73040  0.59070  0.13860  Biso   1.000  C
  C95      1.0000 0.23040  0.90930  0.86140  Biso   1.000  C
  C96      1.0000 0.26960  0.09070  0.36140  Biso   1.000  C
  O45      1.0000 0.35590  0.29605  0.55436  Biso   1.000  O
  O46      1.0000 0.14410  0.70395  0.05436  Biso   1.000  O
  O47      1.0000 0.64410  0.79605  0.94564  Biso   1.000  O
  O48      1.0000 0.85590  0.20395  0.44564  Biso   1.000  O
  C97      1.0000 0.48810  0.27060  0.53728  Biso   1.000  C
  C98      1.0000 0.01190  0.72940  0.03728  Biso   1.000  C
  C99      1.0000 0.51190  0.77060  0.96272  Biso   1.000  C
  C100     1.0000 0.98810  0.22940  0.46272  Biso   1.000  C
  C101     1.0000 0.63120  0.30785  0.56581  Biso   1.000  C
  C102     1.0000 0.86880  0.69215  0.06581  Biso   1.000  C
  C103     1.0000 0.36880  0.80785  0.93419  Biso   1.000  C
  C104     1.0000 0.13120  0.19215  0.43419  Biso   1.000  C
  H89      1.0000 0.72920  0.28650  0.55210  Biso   1.000  H
  H90      1.0000 0.77080  0.71350  0.05210  Biso   1.000  H
  H91      1.0000 0.27080  0.78650  0.94790  Biso   1.000  H
  H92      1.0000 0.22920  0.21350  0.44790  Biso   1.000  H
  C105     1.0000 0.62800  0.37000  0.60990  Biso   1.000  C
  C106     1.0000 0.87200  0.63000  0.10990  Biso   1.000  C
  C107     1.0000 0.37200  0.87000  0.89010  Biso   1.000  C
  C108     1.0000 0.12800  0.13000  0.39010  Biso   1.000  C
  H93      1.0000 0.52940  0.39050  0.62380  Biso   1.000  H
  H94      1.0000 0.97060  0.60950  0.12380  Biso   1.000  H
  H95      1.0000 0.47060  0.89050  0.87620  Biso   1.000  H
  H96      1.0000 0.02940  0.10950  0.37620  Biso   1.000  H
  O49      1.0000 0.99840  0.92620  0.37727  Biso   1.000  O
  O50      1.0000 0.50160  0.07380  0.87727  Biso   1.000  O
  O51      1.0000 0.00160  0.42620  0.12273  Biso   1.000  O
  O52      1.0000 0.49840  0.57380  0.62273  Biso   1.000  O
  H97      1.0000 0.08600  0.95700  0.36700  Biso   1.000  H
  H98      1.0000 0.41400  0.04300  0.86700  Biso   1.000  H
  H99      1.0000 0.91400  0.45700  0.13300  Biso   1.000  H
  H100     1.0000 0.58600  0.54300  0.63300  Biso   1.000  H
  H101     1.0000 0.97200  0.95100  0.41500  Biso   1.000  H
  H102     1.0000 0.52800  0.04900  0.91500  Biso   1.000  H
  H103     1.0000 0.02800  0.45100  0.08500  Biso   1.000  H
  H104     1.0000 0.47200  0.54900  0.58500  Biso   1.000  H
