data_image0
_cell_length_a       11.8532
_cell_length_b       12.658
_cell_length_c       13.9794
_cell_angle_alpha    66.278
_cell_angle_beta     78.579
_cell_angle_gamma    77.078

_symmetry_space_group_name_H-M    "P 1"
_symmetry_int_tables_number       1

loop_
  _symmetry_equiv_pos_as_xyz
  'x, y, z'

loop_
  _atom_site_label
  _atom_site_occupancy
  _atom_site_fract_x
  _atom_site_fract_y
  _atom_site_fract_z
  _atom_site_thermal_displace_type
  _atom_site_B_iso_or_equiv
  _atom_site_type_symbol
  Cu1      1.0000 0.45392  0.42492  0.26358  Biso   1.000  Cu
  Cu2      1.0000 0.54608  0.57508  0.73642  Biso   1.000  Cu
  Gd1      1.0000 0.73870  0.28379  0.27355  Biso   1.000  Gd
  Gd2      1.0000 0.26130  0.71621  0.72645  Biso   1.000  Gd
  N1       1.0000 0.36150  0.51940  0.34290  Biso   1.000  N
  N2       1.0000 0.63850  0.48060  0.65710  Biso   1.000  N
  N3       1.0000 0.33350  0.45470  0.16940  Biso   1.000  N
  N4       1.0000 0.66650  0.54530  0.83060  Biso   1.000  N
  O1       1.0000 0.59670  0.42370  0.31840  Biso   1.000  O
  O2       1.0000 0.40330  0.57630  0.68160  Biso   1.000  O
  O3       1.0000 0.57230  0.34920  0.18270  Biso   1.000  O
  O4       1.0000 0.42770  0.65080  0.81730  Biso   1.000  O
  O5       1.0000 0.80980  0.42660  0.33130  Biso   1.000  O
  O6       1.0000 0.19020  0.57340  0.66870  Biso   1.000  O
  O7       1.0000 0.74760  0.21940  0.12230  Biso   1.000  O
  O8       1.0000 0.25240  0.78060  0.87770  Biso   1.000  O
  O9       1.0000 0.42000  0.24950  0.38320  Biso   1.000  O
  O10      1.0000 0.58000  0.75050  0.61680  Biso   1.000  O
  O11      1.0000 0.60730  0.16730  0.38800  Biso   1.000  O
  O12      1.0000 0.39270  0.83270  0.61200  Biso   1.000  O
  O13      1.0000 0.85450  0.07850  0.32640  Biso   1.000  O
  O14      1.0000 0.14550  0.92150  0.67360  Biso   1.000  O
  O15      1.0000 0.85020  0.18060  0.42200  Biso   1.000  O
  O16      1.0000 0.14980  0.81940  0.57800  Biso   1.000  O
  O17      1.0000 0.80690  0.44670  0.11130  Biso   1.000  O
  O18      1.0000 0.19310  0.55330  0.88870  Biso   1.000  O
  O19      1.0000 0.93690  0.29770  0.18760  Biso   1.000  O
  O20      1.0000 0.06310  0.70230  0.81240  Biso   1.000  O
  C1       1.0000 0.23410  0.52660  0.35790  Biso   1.000  C
  C2       1.0000 0.76590  0.47340  0.64210  Biso   1.000  C
  H1       1.0000 0.19800  0.57350  0.40140  Biso   1.000  H
  H2       1.0000 0.80200  0.42650  0.59860  Biso   1.000  H
  H3       1.0000 0.21340  0.44720  0.39510  Biso   1.000  H
  H4       1.0000 0.78660  0.55280  0.60490  Biso   1.000  H
  C3       1.0000 0.18780  0.58320  0.25120  Biso   1.000  C
  C4       1.0000 0.81220  0.41680  0.74880  Biso   1.000  C
  H5       1.0000 0.10300  0.61060  0.26190  Biso   1.000  H
  H6       1.0000 0.89700  0.38940  0.73810  Biso   1.000  H
  H7       1.0000 0.22570  0.65250  0.20750  Biso   1.000  H
  H8       1.0000 0.77430  0.34750  0.79250  Biso   1.000  H
  C5       1.0000 0.20880  0.50210  0.19270  Biso   1.000  C
  C6       1.0000 0.79120  0.49790  0.80730  Biso   1.000  C
  H9       1.0000 0.16630  0.43570  0.23460  Biso   1.000  H
  H10      1.0000 0.83370  0.56430  0.76540  Biso   1.000  H
  H11      1.0000 0.17510  0.54450  0.12530  Biso   1.000  H
  H12      1.0000 0.82490  0.45550  0.87470  Biso   1.000  H
  C7       1.0000 0.35500  0.42960  0.08710  Biso   1.000  C
  C8       1.0000 0.64500  0.57040  0.91290  Biso   1.000  C
  H13      1.0000 0.34000  0.50550  0.02790  Biso   1.000  H
  H14      1.0000 0.66000  0.49450  0.97210  Biso   1.000  H
  H15      1.0000 0.29240  0.38620  0.09290  Biso   1.000  H
  H16      1.0000 0.70760  0.61380  0.90710  Biso   1.000  H
  C9       1.0000 0.46030  0.36740  0.04980  Biso   1.000  C
  C10      1.0000 0.53970  0.63260  0.95020  Biso   1.000  C
  C11      1.0000 0.45800  0.34160  0.96130  Biso   1.000  C
  C12      1.0000 0.54200  0.65840  0.03870  Biso   1.000  C
  H17      1.0000 0.39070  0.37110  0.92530  Biso   1.000  H
  H18      1.0000 0.60930  0.62890  0.07470  Biso   1.000  H
  C13      1.0000 0.55140  0.27430  0.92610  Biso   1.000  C
  C14      1.0000 0.44860  0.72570  0.07390  Biso   1.000  C
  H19      1.0000 0.54850  0.25780  0.86610  Biso   1.000  H
  H20      1.0000 0.45150  0.74220  0.13390  Biso   1.000  H
  C15      1.0000 0.65050  0.23030  0.97880  Biso   1.000  C
  C16      1.0000 0.34950  0.76970  0.02120  Biso   1.000  C
  H21      1.0000 0.71450  0.18210  0.95600  Biso   1.000  H
  H22      1.0000 0.28550  0.81790  0.04400  Biso   1.000  H
  C17      1.0000 0.65470  0.25730  0.06370  Biso   1.000  C
  C18      1.0000 0.34530  0.74270  0.93630  Biso   1.000  C
  C19      1.0000 0.56070  0.32610  0.10160  Biso   1.000  C
  C20      1.0000 0.43930  0.67390  0.89840  Biso   1.000  C
  C21      1.0000 0.61390  0.50830  0.34490  Biso   1.000  C
  C22      1.0000 0.38610  0.49170  0.65510  Biso   1.000  C
  C23      1.0000 0.72900  0.51580  0.35010  Biso   1.000  C
  C24      1.0000 0.27100  0.48420  0.64990  Biso   1.000  C
  C25      1.0000 0.75480  0.60270  0.37300  Biso   1.000  C
  C26      1.0000 0.24520  0.39730  0.62700  Biso   1.000  C
  H23      1.0000 0.83360  0.60780  0.37300  Biso   1.000  H
  H24      1.0000 0.16640  0.39220  0.62700  Biso   1.000  H
  C27      1.0000 0.66400  0.68360  0.39640  Biso   1.000  C
  C28      1.0000 0.33600  0.31640  0.60360  Biso   1.000  C
  H25      1.0000 0.68100  0.74470  0.41160  Biso   1.000  H
  H26      1.0000 0.31900  0.25530  0.58840  Biso   1.000  H
  C29      1.0000 0.55080  0.67520  0.39750  Biso   1.000  C
  C30      1.0000 0.44920  0.32480  0.60250  Biso   1.000  C
  H27      1.0000 0.48960  0.72820  0.41700  Biso   1.000  H
  H28      1.0000 0.51040  0.27180  0.58300  Biso   1.000  H
  C31      1.0000 0.52380  0.58880  0.37030  Biso   1.000  C
  C32      1.0000 0.47620  0.41120  0.62970  Biso   1.000  C
  C33      1.0000 0.40180  0.58260  0.37640  Biso   1.000  C
  C34      1.0000 0.59820  0.41740  0.62360  Biso   1.000  C
  H29      1.0000 0.37080  0.56020  0.45180  Biso   1.000  H
  H30      1.0000 0.62920  0.43980  0.54820  Biso   1.000  H
  H31      1.0000 0.36370  0.66390  0.34060  Biso   1.000  H
  H32      1.0000 0.63630  0.33610  0.65940  Biso   1.000  H
  C35      1.0000 0.92910  0.42610  0.33910  Biso   1.000  C
  C36      1.0000 0.07090  0.57390  0.66090  Biso   1.000  C
  H33      1.0000 0.95710  0.49390  0.28170  Biso   1.000  H
  H34      1.0000 0.04290  0.50610  0.71830  Biso   1.000  H
  H35      1.0000 0.97720  0.35420  0.33420  Biso   1.000  H
  H36      1.0000 0.02280  0.64580  0.66580  Biso   1.000  H
  H37      1.0000 0.93420  0.42970  0.40680  Biso   1.000  H
  H38      1.0000 0.06580  0.57030  0.59320  Biso   1.000  H
  C37      1.0000 0.85180  0.16160  0.07840  Biso   1.000  C
  C38      1.0000 0.14820  0.83840  0.92160  Biso   1.000  C
  H39      1.0000 0.83500  0.09100  0.07490  Biso   1.000  H
  H40      1.0000 0.16500  0.90900  0.92510  Biso   1.000  H
  H41      1.0000 0.91370  0.14020  0.12320  Biso   1.000  H
  H42      1.0000 0.08630  0.85980  0.87680  Biso   1.000  H
  H43      1.0000 0.87710  0.21460  0.00750  Biso   1.000  H
  H44      1.0000 0.12290  0.78540  0.99250  Biso   1.000  H
  C39      1.0000 0.49920  0.16370  0.41320  Biso   1.000  C
  C40      1.0000 0.50080  0.83630  0.58680  Biso   1.000  C
  C41      1.0000 0.46220  0.04900  0.48410  Biso   1.000  C
  C42      1.0000 0.53780  0.95100  0.51590  Biso   1.000  C
  C43      1.0000 0.88680  0.08870  0.40220  Biso   1.000  C
  C44      1.0000 0.11320  0.91130  0.59780  Biso   1.000  C
  C45      1.0000 0.97210  0.99330  0.46710  Biso   1.000  C
  C46      1.0000 0.02790  0.00670  0.53290  Biso   1.000  C
  C47      1.0000 0.91070  0.39540  0.11550  Biso   1.000  C
  C48      1.0000 0.08930  0.60460  0.88450  Biso   1.000  C
  C49      1.0000 0.00820  0.44710  0.03670  Biso   1.000  C
  C50      1.0000 0.99180  0.55290  0.96330  Biso   1.000  C
  O21      1.0000 0.43810  0.03250  0.23480  Biso   1.000  O
  O22      1.0000 0.56190  0.96750  0.76520  Biso   1.000  O
  H45      1.0000 0.50210  0.04520  0.19730  Biso   1.000  H
  H46      1.0000 0.49790  0.95480  0.80270  Biso   1.000  H
  C51      1.0000 0.37730  0.98350  0.19230  Biso   1.000  C
  C52      1.0000 0.62270  0.01650  0.80770  Biso   1.000  C
  H47      1.0000 0.41330  0.90070  0.20770  Biso   1.000  H
  H48      1.0000 0.58670  0.09930  0.79230  Biso   1.000  H
  H49      1.0000 0.38550  0.02470  0.11490  Biso   1.000  H
  H50      1.0000 0.61450  0.97530  0.88510  Biso   1.000  H
  C53      1.0000 0.25740  0.98800  0.23060  Biso   1.000  C
  C54      1.0000 0.74260  0.01200  0.76940  Biso   1.000  C
  H51      1.0000 0.24760  0.92970  0.30230  Biso   1.000  H
  H52      1.0000 0.75240  0.07030  0.69770  Biso   1.000  H
  H53      1.0000 0.21670  0.97130  0.18500  Biso   1.000  H
  H54      1.0000 0.78330  0.02870  0.81500  Biso   1.000  H
  H55      1.0000 0.22470  0.06610  0.23100  Biso   1.000  H
  H56      1.0000 0.77530  0.93390  0.76900  Biso   1.000  H
  O23      1.0000 0.18460  0.23340  0.42610  Biso   1.000  O
  O24      1.0000 0.81540  0.76660  0.57390  Biso   1.000  O
  O25      1.0000 0.15780  0.20410  0.24610  Biso   1.000  O
  O26      1.0000 0.84220  0.79590  0.75390  Biso   1.000  O
  O27      1.0000 0.12530  0.95430  0.11180  Biso   1.000  O
  O28      1.0000 0.87470  0.04570  0.88820  Biso   1.000  O
  O29      1.0000 0.18030  0.78670  0.39400  Biso   1.000  O
  O30      1.0000 0.81970  0.21330  0.60600  Biso   1.000  O
