data_image0
_cell_length_a       12.492
_cell_length_b       15.593
_cell_length_c       30.232
_cell_angle_alpha    93.85
_cell_angle_beta     97.79
_cell_angle_gamma    101.02

_symmetry_space_group_name_H-M    "P 1"
_symmetry_int_tables_number       1

loop_
  _symmetry_equiv_pos_as_xyz
  'x, y, z'

loop_
  _atom_site_label
  _atom_site_occupancy
  _atom_site_fract_x
  _atom_site_fract_y
  _atom_site_fract_z
  _atom_site_thermal_displace_type
  _atom_site_B_iso_or_equiv
  _atom_site_type_symbol
  Gd1      1.0000 0.21272  0.87092  0.10593  Biso   1.000  Gd
  Gd2      1.0000 0.78728  0.12908  0.89407  Biso   1.000  Gd
  Cu1      1.0000 0.48484  0.93345  0.15956  Biso   1.000  Cu
  Cu2      1.0000 0.51516  0.06655  0.84044  Biso   1.000  Cu
  N1       1.0000 0.61860  0.99260  0.13875  Biso   1.000  N
  N2       1.0000 0.38140  0.00740  0.86125  Biso   1.000  N
  N3       1.0000 0.55420  0.90350  0.21750  Biso   1.000  N
  N4       1.0000 0.44580  0.09650  0.78250  Biso   1.000  N
  O1       1.0000 0.39000  0.95640  0.10670  Biso   1.000  O
  O2       1.0000 0.61000  0.04360  0.89330  Biso   1.000  O
  O3       1.0000 0.33750  0.89680  0.17465  Biso   1.000  O
  O4       1.0000 0.66250  0.10320  0.82535  Biso   1.000  O
  O5       1.0000 0.23220  0.96480  0.04177  Biso   1.000  O
  O6       1.0000 0.76780  0.03520  0.95823  Biso   1.000  O
  O7       1.0000 0.12670  0.86180  0.17806  Biso   1.000  O
  O8       1.0000 0.87330  0.13820  0.82194  Biso   1.000  O
  O9       1.0000 0.19000  0.02640  0.13093  Biso   1.000  O
  O10      1.0000 0.81000  0.97360  0.86907  Biso   1.000  O
  O11      1.0000 0.04300  0.93360  0.09483  Biso   1.000  O
  O12      1.0000 0.95700  0.06640  0.90517  Biso   1.000  O
  O13      1.0000 0.08270  0.77690  0.05390  Biso   1.000  O
  O14      1.0000 0.91730  0.22310  0.94610  Biso   1.000  O
  O15      1.0000 0.93110  0.78040  0.00695  Biso   1.000  O
  O16      1.0000 0.06890  0.21960  0.99305  Biso   1.000  O
  O17      1.0000 0.20810  0.73310  0.13309  Biso   1.000  O
  O18      1.0000 0.79190  0.26690  0.86691  Biso   1.000  O
  O19      1.0000 0.33990  0.66420  0.16138  Biso   1.000  O
  O20      1.0000 0.66010  0.33580  0.83862  Biso   1.000  O
  O21      1.0000 0.31040  0.79680  0.05524  Biso   1.000  O
  O22      1.0000 0.68960  0.20320  0.94476  Biso   1.000  O
  C1       1.0000 0.61810  0.04000  0.10500  Biso   1.000  C
  C2       1.0000 0.38190  0.96000  0.89500  Biso   1.000  C
  H1       1.0000 0.68840  0.06960  0.09980  Biso   1.000  H
  H2       1.0000 0.31160  0.93040  0.90020  Biso   1.000  H
  C3       1.0000 0.52560  0.05330  0.07470  Biso   1.000  C
  C4       1.0000 0.47440  0.94670  0.92530  Biso   1.000  C
  C5       1.0000 0.54720  0.10790  0.04050  Biso   1.000  C
  C6       1.0000 0.45280  0.89210  0.95950  Biso   1.000  C
  H3       1.0000 0.62050  0.13870  0.04030  Biso   1.000  H
  H4       1.0000 0.37950  0.86130  0.95970  Biso   1.000  H
  C7       1.0000 0.46520  0.11790  0.00760  Biso   1.000  C
  C8       1.0000 0.53480  0.88210  0.99240  Biso   1.000  C
  H5       1.0000 0.48090  0.15680  0.98540  Biso   1.000  H
  H6       1.0000 0.51910  0.84320  0.01460  Biso   1.000  H
  C9       1.0000 0.35740  0.06970  0.00690  Biso   1.000  C
  C10      1.0000 0.64260  0.93030  0.99310  Biso   1.000  C
  H7       1.0000 0.30020  0.07440  0.98360  Biso   1.000  H
  H8       1.0000 0.69980  0.92560  0.01640  Biso   1.000  H
  C11      1.0000 0.33520  0.01590  0.04020  Biso   1.000  C
  C12      1.0000 0.66480  0.98410  0.95980  Biso   1.000  C
  C13      1.0000 0.41770  0.00800  0.07490  Biso   1.000  C
  C14      1.0000 0.58230  0.99200  0.92510  Biso   1.000  C
  C15      1.0000 0.19510  0.85400  0.21690  Biso   1.000  C
  C16      1.0000 0.80490  0.14600  0.78310  Biso   1.000  C
  C17      1.0000 0.15960  0.83240  0.25630  Biso   1.000  C
  C18      1.0000 0.84040  0.16760  0.74370  Biso   1.000  C
  H9       1.0000 0.08310  0.82220  0.25850  Biso   1.000  H
  H10      1.0000 0.91690  0.17780  0.74150  Biso   1.000  H
  C19      1.0000 0.23550  0.82540  0.29310  Biso   1.000  C
  C20      1.0000 0.76450  0.17460  0.70690  Biso   1.000  C
  H11      1.0000 0.21070  0.80910  0.32030  Biso   1.000  H
  H12      1.0000 0.78930  0.19090  0.67970  Biso   1.000  H
  C21      1.0000 0.34700  0.84180  0.29050  Biso   1.000  C
  C22      1.0000 0.65300  0.15820  0.70950  Biso   1.000  C
  H13      1.0000 0.39820  0.83720  0.31600  Biso   1.000  H
  H14      1.0000 0.60180  0.16280  0.68400  Biso   1.000  H
  C23      1.0000 0.38540  0.86530  0.25070  Biso   1.000  C
  C24      1.0000 0.61460  0.13470  0.74930  Biso   1.000  C
  C25      1.0000 0.30930  0.87380  0.21390  Biso   1.000  C
  C26      1.0000 0.69070  0.12620  0.78610  Biso   1.000  C
  C27      1.0000 0.50240  0.87840  0.24960  Biso   1.000  C
  C28      1.0000 0.49760  0.12160  0.75040  Biso   1.000  C
  H15      1.0000 0.54640  0.86700  0.27590  Biso   1.000  H
  H16      1.0000 0.45360  0.13300  0.72410  Biso   1.000  H
  C29      1.0000 0.67610  0.91370  0.22820  Biso   1.000  C
  C30      1.0000 0.32390  0.08630  0.77180  Biso   1.000  C
  H17      1.0000 0.70650  0.96980  0.24690  Biso   1.000  H
  H18      1.0000 0.29350  0.03020  0.75310  Biso   1.000  H
  H19      1.0000 0.69290  0.86560  0.24600  Biso   1.000  H
  H20      1.0000 0.30710  0.13440  0.75400  Biso   1.000  H
  C31      1.0000 0.73100  0.91280  0.18840  Biso   1.000  C
  C32      1.0000 0.26900  0.08720  0.81160  Biso   1.000  C
  H21      1.0000 0.69560  0.85880  0.16860  Biso   1.000  H
  H22      1.0000 0.30440  0.14120  0.83140  Biso   1.000  H
  H23      1.0000 0.80880  0.90890  0.19810  Biso   1.000  H
  H24      1.0000 0.19120  0.09110  0.80190  Biso   1.000  H
  C33      1.0000 0.73020  0.98870  0.16160  Biso   1.000  C
  C34      1.0000 0.26980  0.01130  0.83840  Biso   1.000  C
  H25      1.0000 0.77950  0.98570  0.13880  Biso   1.000  H
  H26      1.0000 0.22050  0.01430  0.86120  Biso   1.000  H
  H27      1.0000 0.76010  0.04340  0.18160  Biso   1.000  H
  H28      1.0000 0.23990  0.95660  0.81840  Biso   1.000  H
  C35      1.0000 0.14930  0.95760  0.00270  Biso   1.000  C
  C36      1.0000 0.85070  0.04240  0.99730  Biso   1.000  C
  H29      1.0000 0.12710  0.01420  0.99990  Biso   1.000  H
  H30      1.0000 0.87290  0.98580  0.00010  Biso   1.000  H
  H31      1.0000 0.08500  0.91270  0.00590  Biso   1.000  H
  H32      1.0000 0.91500  0.08730  0.99410  Biso   1.000  H
  H33      1.0000 0.17960  0.94100  0.97590  Biso   1.000  H
  H34      1.0000 0.82040  0.05900  0.02410  Biso   1.000  H
  C37      1.0000 0.01320  0.81420  0.17480  Biso   1.000  C
  C38      1.0000 0.98680  0.18580  0.82520  Biso   1.000  C
  H35      1.0000 0.01260  0.75240  0.17920  Biso   1.000  H
  H36      1.0000 0.98740  0.24760  0.82080  Biso   1.000  H
  H37      1.0000 0.97290  0.81830  0.14510  Biso   1.000  H
  H38      1.0000 0.02710  0.18170  0.85490  Biso   1.000  H
  H39      1.0000 0.97760  0.83990  0.19790  Biso   1.000  H
  H40      1.0000 0.02240  0.16010  0.80210  Biso   1.000  H
  C39      1.0000 0.09080  0.00860  0.11300  Biso   1.000  C
  C40      1.0000 0.90920  0.99140  0.88700  Biso   1.000  C
  C41      1.0000 0.02640  0.07810  0.11170  Biso   1.000  C
  C42      1.0000 0.97360  0.92190  0.88830  Biso   1.000  C
  C43      1.0000 0.97380  0.13380  0.10950  Biso   1.000  C
  C44      1.0000 0.02620  0.86620  0.89050  Biso   1.000  C
  C45      1.0000 0.91320  0.20690  0.11170  Biso   1.000  C
  C46      1.0000 0.08680  0.79310  0.88830  Biso   1.000  C
  C47      1.0000 0.98330  0.75170  0.03740  Biso   1.000  C
  C48      1.0000 0.01670  0.24830  0.96260  Biso   1.000  C
  C49      1.0000 0.92080  0.67830  0.05880  Biso   1.000  C
  C50      1.0000 0.07920  0.32170  0.94120  Biso   1.000  C
  C51      1.0000 0.24250  0.67480  0.15370  Biso   1.000  C
  C52      1.0000 0.75750  0.32520  0.84630  Biso   1.000  C
  C53      1.0000 0.15870  0.61250  0.17180  Biso   1.000  C
  C54      1.0000 0.84130  0.38750  0.82820  Biso   1.000  C
  Gd3      1.0000 0.80720  0.35210  0.13130  Biso   1.000  Gd
  Gd4      1.0000 0.19280  0.64790  0.86870  Biso   1.000  Gd
  Cu3      1.0000 0.52780  0.30300  0.08390  Biso   1.000  Cu
  Cu4      1.0000 0.47220  0.69700  0.91610  Biso   1.000  Cu
  N5       1.0000 0.45290  0.34590  0.02950  Biso   1.000  N
  N6       1.0000 0.54710  0.65410  0.97050  Biso   1.000  N
  N7       1.0000 0.39550  0.24090  0.10530  Biso   1.000  N
  N8       1.0000 0.60450  0.75910  0.89470  Biso   1.000  N
  O23      1.0000 0.67280  0.34250  0.06660  Biso   1.000  O
  O24      1.0000 0.32720  0.65750  0.93340  Biso   1.000  O
  O25      1.0000 0.62660  0.26870  0.13200  Biso   1.000  O
  O26      1.0000 0.37340  0.73130  0.86800  Biso   1.000  O
  O27      1.0000 0.87980  0.36660  0.05630  Biso   1.000  O
  O28      1.0000 0.12020  0.63340  0.94370  Biso   1.000  O
  O29      1.0000 0.79000  0.25240  0.19250  Biso   1.000  O
  O30      1.0000 0.21000  0.74760  0.80750  Biso   1.000  O
  O31      1.0000 0.96490  0.27800  0.13200  Biso   1.000  O
  O32      1.0000 0.03510  0.72200  0.86800  Biso   1.000  O
  O33      1.0000 0.81360  0.19470  0.09490  Biso   1.000  O
  O34      1.0000 0.18640  0.80530  0.90510  Biso   1.000  O
  O35      1.0000 0.96420  0.43000  0.17950  Biso   1.000  O
  O36      1.0000 0.03580  0.57000  0.82050  Biso   1.000  O
  O37      1.0000 0.00350  0.51240  0.24500  Biso   1.000  O
  O38      1.0000 0.99650  0.48760  0.75500  Biso   1.000  O
  O39      1.0000 0.82430  0.49610  0.11020  Biso   1.000  O
  O40      1.0000 0.17570  0.50390  0.88980  Biso   1.000  O
  O41      1.0000 0.68930  0.56980  0.09400  Biso   1.000  O
  O42      1.0000 0.31070  0.43020  0.90600  Biso   1.000  O
  O43      1.0000 0.72970  0.42550  0.18770  Biso   1.000  O
  O44      1.0000 0.27030  0.57450  0.81230  Biso   1.000  O
  C55      1.0000 0.50250  0.37950  0.99850  Biso   1.000  C
  C56      1.0000 0.49750  0.62050  0.00150  Biso   1.000  C
  H41      1.0000 0.45780  0.39930  0.97500  Biso   1.000  H
  H42      1.0000 0.54220  0.60070  0.02500  Biso   1.000  H
  C57      1.0000 0.61830  0.39090  0.99510  Biso   1.000  C
  C58      1.0000 0.38170  0.60910  0.00490  Biso   1.000  C
  C59      1.0000 0.65180  0.42310  0.95520  Biso   1.000  C
  C60      1.0000 0.34820  0.57690  0.04480  Biso   1.000  C
  H43      1.0000 0.59850  0.43660  0.93260  Biso   1.000  H
  H44      1.0000 0.40150  0.56340  0.06740  Biso   1.000  H
  C61      1.0000 0.76060  0.43490  0.94870  Biso   1.000  C
  C62      1.0000 0.23940  0.56510  0.05130  Biso   1.000  C
  C63      1.0000 0.83840  0.41540  0.98240  Biso   1.000  C
  C64      1.0000 0.16160  0.58460  0.01760  Biso   1.000  C
  H45      1.0000 0.91340  0.42260  0.97810  Biso   1.000  H
  H46      1.0000 0.08660  0.57740  0.02190  Biso   1.000  H
  C65      1.0000 0.80850  0.38630  0.02160  Biso   1.000  C
  C66      1.0000 0.19150  0.61370  0.97840  Biso   1.000  C
  C67      1.0000 0.69730  0.37210  0.02850  Biso   1.000  C
  C68      1.0000 0.30270  0.62790  0.97150  Biso   1.000  C
  C69      1.0000 0.68460  0.21350  0.19970  Biso   1.000  C
  C70      1.0000 0.31540  0.78650  0.80030  Biso   1.000  C
  C71      1.0000 0.66470  0.16850  0.23620  Biso   1.000  C
  C72      1.0000 0.33530  0.83150  0.76380  Biso   1.000  C
  H47      1.0000 0.72380  0.16340  0.25850  Biso   1.000  H
  H48      1.0000 0.27620  0.83660  0.74150  Biso   1.000  H
  C73      1.0000 0.55560  0.13020  0.23990  Biso   1.000  C
  C74      1.0000 0.44440  0.86980  0.76010  Biso   1.000  C
  H49      1.0000 0.54020  0.09790  0.26460  Biso   1.000  H
  H50      1.0000 0.45980  0.90210  0.73540  Biso   1.000  H
  C75      1.0000 0.47160  0.13960  0.20780  Biso   1.000  C
  C76      1.0000 0.52840  0.86040  0.79220  Biso   1.000  C
  H51      1.0000 0.39790  0.11340  0.21060  Biso   1.000  H
  H52      1.0000 0.60210  0.88660  0.78940  Biso   1.000  H
  C77      1.0000 0.49100  0.18680  0.17060  Biso   1.000  C
  C78      1.0000 0.50900  0.81320  0.82940  Biso   1.000  C
  C79      1.0000 0.60020  0.22390  0.16660  Biso   1.000  C
  C80      1.0000 0.39980  0.77610  0.83340  Biso   1.000  C
  C81      1.0000 0.39760  0.19760  0.14050  Biso   1.000  C
  C82      1.0000 0.60240  0.80240  0.85950  Biso   1.000  C
  H53      1.0000 0.32780  0.16950  0.14700  Biso   1.000  H
  H54      1.0000 0.67220  0.83050  0.85300  Biso   1.000  H
  C83      1.0000 0.28490  0.24130  0.08110  Biso   1.000  C
  C84      1.0000 0.71510  0.75870  0.91890  Biso   1.000  C
  H55      1.0000 0.22990  0.22890  0.10170  Biso   1.000  H
  H56      1.0000 0.77010  0.77110  0.89830  Biso   1.000  H
  H57      1.0000 0.26600  0.19400  0.05610  Biso   1.000  H
  H58      1.0000 0.73400  0.80600  0.94390  Biso   1.000  H
  C85      1.0000 0.27870  0.32680  0.06280  Biso   1.000  C
  C86      1.0000 0.72130  0.67320  0.93720  Biso   1.000  C
  H59      1.0000 0.31570  0.37490  0.08620  Biso   1.000  H
  H60      1.0000 0.68430  0.62510  0.91380  Biso   1.000  H
  H61      1.0000 0.20020  0.33120  0.05610  Biso   1.000  H
  H62      1.0000 0.79980  0.66880  0.94390  Biso   1.000  H
  C87      1.0000 0.33060  0.33980  0.02110  Biso   1.000  C
  C88      1.0000 0.66940  0.66020  0.97890  Biso   1.000  C
  H63      1.0000 0.29670  0.29010  0.99820  Biso   1.000  H
  H64      1.0000 0.70330  0.70990  0.00180  Biso   1.000  H
  H65      1.0000 0.31490  0.39420  0.00890  Biso   1.000  H
  H66      1.0000 0.68510  0.60580  0.99110  Biso   1.000  H
  C89      1.0000 0.99350  0.41070  0.05870  Biso   1.000  C
  C90      1.0000 0.00650  0.58930  0.94130  Biso   1.000  C
  H67      1.0000 0.02420  0.38760  0.03330  Biso   1.000  H
  H68      1.0000 0.97580  0.61240  0.96670  Biso   1.000  H
  H69      1.0000 0.03610  0.40040  0.08680  Biso   1.000  H
  H70      1.0000 0.96390  0.59960  0.91320  Biso   1.000  H
  H71      1.0000 0.99740  0.47380  0.05750  Biso   1.000  H
  H72      1.0000 0.00260  0.52620  0.94250  Biso   1.000  H
  C91      1.0000 0.88110  0.24410  0.22550  Biso   1.000  C
  C92      1.0000 0.11890  0.75590  0.77450  Biso   1.000  C
  H73      1.0000 0.87240  0.27070  0.25480  Biso   1.000  H
  H74      1.0000 0.12760  0.72930  0.74520  Biso   1.000  H
  H75      1.0000 0.95030  0.27410  0.21670  Biso   1.000  H
  H76      1.0000 0.04970  0.72590  0.78330  Biso   1.000  H
  H77      1.0000 0.88260  0.18190  0.22740  Biso   1.000  H
  H78      1.0000 0.11740  0.81810  0.77260  Biso   1.000  H
  C93      1.0000 0.01120  0.49690  0.20480  Biso   1.000  C
  C94      1.0000 0.98880  0.50310  0.79520  Biso   1.000  C
  C95      1.0000 0.09060  0.56190  0.18620  Biso   1.000  C
  C96      1.0000 0.90940  0.43810  0.81380  Biso   1.000  C
  C97      1.0000 0.78570  0.55850  0.09480  Biso   1.000  C
  C98      1.0000 0.21430  0.44150  0.90520  Biso   1.000  C
  C99      1.0000 0.86260  0.62410  0.07570  Biso   1.000  C
  C100     1.0000 0.13740  0.37590  0.92430  Biso   1.000  C
  Gd5      1.0000 0.18670  0.37960  0.60730  Biso   1.000  Gd
  Gd6      1.0000 0.81330  0.62040  0.39270  Biso   1.000  Gd
  Cu5      1.0000 0.46230  0.42950  0.65510  Biso   1.000  Cu
  Cu6      1.0000 0.53770  0.57050  0.34490  Biso   1.000  Cu
  N9       1.0000 0.59780  0.49390  0.63570  Biso   1.000  N
  N10      1.0000 0.40220  0.50610  0.36430  Biso   1.000  N
  N11      1.0000 0.53350  0.39220  0.71080  Biso   1.000  N
  N12      1.0000 0.46650  0.60780  0.28920  Biso   1.000  N
  O45      1.0000 0.36710  0.45820  0.60410  Biso   1.000  O
  O46      1.0000 0.63290  0.54180  0.39590  Biso   1.000  O
  O47      1.0000 0.20810  0.47000  0.54060  Biso   1.000  O
  O48      1.0000 0.79190  0.53000  0.45940  Biso   1.000  O
  O49      1.0000 0.10800  0.37170  0.68060  Biso   1.000  O
  O50      1.0000 0.89200  0.62830  0.31940  Biso   1.000  O
  O51      1.0000 0.17910  0.53900  0.63480  Biso   1.000  O
  O52      1.0000 0.82090  0.46100  0.36520  Biso   1.000  O
  O53      1.0000 0.02960  0.45570  0.59640  Biso   1.000  O
  O54      1.0000 0.97040  0.54430  0.40360  Biso   1.000  O
  O55      1.0000 0.02220  0.29230  0.56610  Biso   1.000  O
  O56      1.0000 0.97780  0.70770  0.43390  Biso   1.000  O
  O57      1.0000 0.04600  0.17290  0.52770  Biso   1.000  O
  O58      1.0000 0.95400  0.82710  0.47230  Biso   1.000  O
  O59      1.0000 0.17530  0.23850  0.63160  Biso   1.000  O
  O60      1.0000 0.82470  0.76150  0.36840  Biso   1.000  O
  O61      1.0000 0.30890  0.16750  0.65510  Biso   1.000  O
  O62      1.0000 0.69110  0.83250  0.34490  Biso   1.000  O
  O63      1.0000 0.25350  0.29460  0.54980  Biso   1.000  O
  O64      1.0000 0.74650  0.70540  0.45020  Biso   1.000  O
  O65      1.0000 0.43840  0.28860  0.61250  Biso   1.000  O
  O66      1.0000 0.56160  0.71140  0.38750  Biso   1.000  O
  C101     1.0000 0.59560  0.54240  0.60260  Biso   1.000  C
  C102     1.0000 0.40440  0.45760  0.39740  Biso   1.000  C
  H79      1.0000 0.66520  0.57460  0.59810  Biso   1.000  H
  H80      1.0000 0.33480  0.42540  0.40190  Biso   1.000  H
  C103     1.0000 0.50270  0.55440  0.57180  Biso   1.000  C
  C104     1.0000 0.49730  0.44560  0.42820  Biso   1.000  C
  C105     1.0000 0.52530  0.60930  0.53730  Biso   1.000  C
  C106     1.0000 0.47470  0.39070  0.46270  Biso   1.000  C
  H81      1.0000 0.59800  0.64150  0.53730  Biso   1.000  H
  H82      1.0000 0.40200  0.35850  0.46270  Biso   1.000  H
  C107     1.0000 0.44330  0.61570  0.50440  Biso   1.000  C
  C108     1.0000 0.55670  0.38430  0.49560  Biso   1.000  C
  H83      1.0000 0.45930  0.65190  0.48110  Biso   1.000  H
  H84      1.0000 0.54070  0.34810  0.51890  Biso   1.000  H
  C109     1.0000 0.33560  0.57000  0.50390  Biso   1.000  C
  C110     1.0000 0.66440  0.43000  0.49610  Biso   1.000  C
  H85      1.0000 0.27870  0.57500  0.48060  Biso   1.000  H
  H86      1.0000 0.72130  0.42500  0.51940  Biso   1.000  H
  C111     1.0000 0.31300  0.51780  0.53770  Biso   1.000  C
  C112     1.0000 0.68700  0.48220  0.46230  Biso   1.000  C
  C113     1.0000 0.39520  0.50910  0.57280  Biso   1.000  C
  C114     1.0000 0.60480  0.49090  0.42720  Biso   1.000  C
  C115     1.0000 0.29050  0.37420  0.71250  Biso   1.000  C
  C116     1.0000 0.70950  0.62580  0.28750  Biso   1.000  C
  C117     1.0000 0.17870  0.35930  0.71820  Biso   1.000  C
  C118     1.0000 0.82130  0.64070  0.28180  Biso   1.000  C
  C119     1.0000 0.14630  0.33630  0.75790  Biso   1.000  C
  C120     1.0000 0.85370  0.66370  0.24210  Biso   1.000  C
  H87      1.0000 0.07060  0.32740  0.76130  Biso   1.000  H
  H88      1.0000 0.92940  0.67260  0.23870  Biso   1.000  H
  C121     1.0000 0.22460  0.32590  0.79310  Biso   1.000  C
  C122     1.0000 0.77540  0.67410  0.20690  Biso   1.000  C
  H89      1.0000 0.20220  0.31060  0.82080  Biso   1.000  H
  H90      1.0000 0.79780  0.68940  0.17920  Biso   1.000  H
  C123     1.0000 0.33380  0.33740  0.78850  Biso   1.000  C
  C124     1.0000 0.66620  0.66260  0.21150  Biso   1.000  C
  H91      1.0000 0.38650  0.32900  0.81270  Biso   1.000  H
  H92      1.0000 0.61350  0.67100  0.18730  Biso   1.000  H
  C125     1.0000 0.36820  0.36190  0.74760  Biso   1.000  C
  C126     1.0000 0.63180  0.63810  0.25240  Biso   1.000  C
  C127     1.0000 0.48390  0.36850  0.74430  Biso   1.000  C
  C128     1.0000 0.51610  0.63150  0.25570  Biso   1.000  C
  H93      1.0000 0.52850  0.35380  0.76950  Biso   1.000  H
  H94      1.0000 0.47150  0.64620  0.23050  Biso   1.000  H
  C129     1.0000 0.65080  0.38780  0.71490  Biso   1.000  C
  C130     1.0000 0.34920  0.61220  0.28510  Biso   1.000  C
  H95      1.0000 0.67680  0.37580  0.74580  Biso   1.000  H
  H96      1.0000 0.32320  0.62420  0.25420  Biso   1.000  H
  H97      1.0000 0.65930  0.33840  0.69420  Biso   1.000  H
  H98      1.0000 0.34070  0.66160  0.30580  Biso   1.000  H
  C131     1.0000 0.71910  0.46820  0.70470  Biso   1.000  C
  C132     1.0000 0.28090  0.53180  0.29530  Biso   1.000  C
  H99      1.0000 0.79710  0.46600  0.71520  Biso   1.000  H
  H100     1.0000 0.20290  0.53400  0.28480  Biso   1.000  H
  H101     1.0000 0.70170  0.51770  0.72270  Biso   1.000  H
  H102     1.0000 0.29830  0.48230  0.27730  Biso   1.000  H
  C133     1.0000 0.71030  0.48900  0.65700  Biso   1.000  C
  C134     1.0000 0.28970  0.51100  0.34300  Biso   1.000  C
  H103     1.0000 0.76020  0.54590  0.65560  Biso   1.000  H
  H104     1.0000 0.23980  0.45410  0.34440  Biso   1.000  H
  H105     1.0000 0.73660  0.44360  0.63930  Biso   1.000  H
  H106     1.0000 0.26340  0.55640  0.36070  Biso   1.000  H
  C135     1.0000 0.13260  0.44640  0.49960  Biso   1.000  C
  C136     1.0000 0.86740  0.55360  0.50040  Biso   1.000  C
  H107     1.0000 0.10990  0.49910  0.48880  Biso   1.000  H
  H108     1.0000 0.89010  0.50090  0.51120  Biso   1.000  H
  H109     1.0000 0.06750  0.40440  0.50490  Biso   1.000  H
  H110     1.0000 0.93250  0.59560  0.49510  Biso   1.000  H
  H111     1.0000 0.16860  0.41960  0.47700  Biso   1.000  H
  H112     1.0000 0.83140  0.58040  0.52300  Biso   1.000  H
  C137     1.0000 0.99440  0.32740  0.67860  Biso   1.000  C
  C138     1.0000 0.00560  0.67260  0.32140  Biso   1.000  C
  H113     1.0000 0.99140  0.26520  0.68270  Biso   1.000  H
  H114     1.0000 0.00860  0.73480  0.31730  Biso   1.000  H
  H115     1.0000 0.95270  0.33280  0.64940  Biso   1.000  H
  H116     1.0000 0.04730  0.66720  0.35060  Biso   1.000  H
  H117     1.0000 0.96210  0.35430  0.70250  Biso   1.000  H
  H118     1.0000 0.03790  0.64570  0.29750  Biso   1.000  H
  C139     1.0000 0.08000  0.52820  0.61640  Biso   1.000  C
  C140     1.0000 0.92000  0.47180  0.38360  Biso   1.000  C
  C141     1.0000 0.01880  0.59910  0.61730  Biso   1.000  C
  C142     1.0000 0.98120  0.40090  0.38270  Biso   1.000  C
  C143     1.0000 0.96220  0.65270  0.61580  Biso   1.000  C
  C144     1.0000 0.03780  0.34730  0.38420  Biso   1.000  C
  C145     1.0000 0.89650  0.72080  0.61780  Biso   1.000  C
  C146     1.0000 0.10350  0.27920  0.38220  Biso   1.000  C
  C147     1.0000 0.99870  0.21120  0.55290  Biso   1.000  C
  C148     1.0000 0.00130  0.78880  0.44710  Biso   1.000  C
  C149     1.0000 0.90390  0.16100  0.57040  Biso   1.000  C
  C150     1.0000 0.09610  0.83900  0.42960  Biso   1.000  C
  C151     1.0000 0.83100  0.11830  0.58570  Biso   1.000  C
  C152     1.0000 0.16900  0.88170  0.41430  Biso   1.000  C
  C153     1.0000 0.74130  0.06350  0.60380  Biso   1.000  C
  C154     1.0000 0.25870  0.93650  0.39620  Biso   1.000  C
  C155     1.0000 0.21310  0.17970  0.65160  Biso   1.000  C
  C156     1.0000 0.78690  0.82030  0.34840  Biso   1.000  C
  C157     1.0000 0.13370  0.11850  0.67200  Biso   1.000  C
  C158     1.0000 0.86630  0.88150  0.32800  Biso   1.000  C
  C159     1.0000 0.07000  0.06790  0.68970  Biso   1.000  C
  C160     1.0000 0.93000  0.93210  0.31030  Biso   1.000  C
  C161     1.0000 0.99670  0.00590  0.71150  Biso   1.000  C
  C162     1.0000 0.00330  0.99410  0.28850  Biso   1.000  C
  Gd7      1.0000 0.78480  0.86110  0.63890  Biso   1.000  Gd
  Gd8      1.0000 0.21520  0.13890  0.36110  Biso   1.000  Gd
  Cu7      1.0000 0.50730  0.80040  0.59010  Biso   1.000  Cu
  Cu8      1.0000 0.49270  0.19960  0.40990  Biso   1.000  Cu
  N13      1.0000 0.42970  0.83230  0.53380  Biso   1.000  N
  N14      1.0000 0.57030  0.16770  0.46620  Biso   1.000  N
  N15      1.0000 0.37670  0.73960  0.61390  Biso   1.000  N
  N16      1.0000 0.62330  0.26040  0.38610  Biso   1.000  N
  O67      1.0000 0.65170  0.84520  0.57390  Biso   1.000  O
  O68      1.0000 0.34830  0.15480  0.42610  Biso   1.000  O
  O69      1.0000 0.60830  0.77480  0.64080  Biso   1.000  O
  O70      1.0000 0.39170  0.22520  0.35920  Biso   1.000  O
  O71      1.0000 0.86110  0.89730  0.56920  Biso   1.000  O
  O72      1.0000 0.13890  0.10270  0.43080  Biso   1.000  O
  O73      1.0000 0.77360  0.76040  0.69990  Biso   1.000  O
  O74      1.0000 0.22640  0.23960  0.30010  Biso   1.000  O
  O75      1.0000 0.76920  0.00540  0.62690  Biso   1.000  O
  O76      1.0000 0.23080  0.99460  0.37310  Biso   1.000  O
  O77      1.0000 0.64630  0.07780  0.59590  Biso   1.000  O
  O78      1.0000 0.35370  0.92220  0.40410  Biso   1.000  O
  O79      1.0000 0.93570  0.94310  0.68620  Biso   1.000  O
  O80      1.0000 0.06430  0.05690  0.31380  Biso   1.000  O
  O81      1.0000 0.00220  0.01750  0.75290  Biso   1.000  O
  O82      1.0000 0.99780  0.98250  0.24710  Biso   1.000  O
  O83      1.0000 0.94570  0.79490  0.63780  Biso   1.000  O
  O84      1.0000 0.05430  0.20510  0.36220  Biso   1.000  O
  O85      1.0000 0.79730  0.70550  0.60130  Biso   1.000  O
  O86      1.0000 0.20270  0.29450  0.39870  Biso   1.000  O
  O87      1.0000 0.70360  0.93210  0.70030  Biso   1.000  O
  O88      1.0000 0.29640  0.06790  0.29970  Biso   1.000  O
  C163     1.0000 0.47990  0.87120  0.50390  Biso   1.000  C
  C164     1.0000 0.52010  0.12880  0.49610  Biso   1.000  C
  H119     1.0000 0.43340  0.88690  0.47960  Biso   1.000  H
  H120     1.0000 0.56660  0.11310  0.52040  Biso   1.000  H
  C165     1.0000 0.59610  0.89430  0.50220  Biso   1.000  C
  C166     1.0000 0.40390  0.10570  0.49780  Biso   1.000  C
  C167     1.0000 0.62840  0.93150  0.46370  Biso   1.000  C
  C168     1.0000 0.37160  0.06850  0.53630  Biso   1.000  C
  H121     1.0000 0.57390  0.93750  0.43960  Biso   1.000  H
  H122     1.0000 0.42610  0.06250  0.56040  Biso   1.000  H
  C169     1.0000 0.73710  0.95900  0.46080  Biso   1.000  C
  C170     1.0000 0.26290  0.04100  0.53920  Biso   1.000  C
  H123     1.0000 0.75800  0.98500  0.43490  Biso   1.000  H
  H124     1.0000 0.24200  0.01500  0.56510  Biso   1.000  H
  C171     1.0000 0.81830  0.94930  0.49560  Biso   1.000  C
  C172     1.0000 0.18170  0.05070  0.50440  Biso   1.000  C
  H125     1.0000 0.89410  0.96860  0.49350  Biso   1.000  H
  H126     1.0000 0.10590  0.03140  0.50650  Biso   1.000  H
  C173     1.0000 0.78800  0.91200  0.53260  Biso   1.000  C
  C174     1.0000 0.21200  0.08800  0.46740  Biso   1.000  C
  C175     1.0000 0.67630  0.88150  0.53660  Biso   1.000  C
  C176     1.0000 0.32370  0.11850  0.46340  Biso   1.000  C
  C177     1.0000 0.66960  0.71980  0.70770  Biso   1.000  C
  C178     1.0000 0.33040  0.28020  0.29230  Biso   1.000  C
  C179     1.0000 0.65140  0.67460  0.74430  Biso   1.000  C
  C180     1.0000 0.34860  0.32540  0.25570  Biso   1.000  C
  H127     1.0000 0.71170  0.66930  0.76600  Biso   1.000  H
  H128     1.0000 0.28830  0.33070  0.23400  Biso   1.000  H
  C181     1.0000 0.54350  0.63640  0.74930  Biso   1.000  C
  C182     1.0000 0.45650  0.36360  0.25070  Biso   1.000  C
  H129     1.0000 0.53000  0.60420  0.77420  Biso   1.000  H
  H130     1.0000 0.47000  0.39580  0.22580  Biso   1.000  H
  C183     1.0000 0.45810  0.64560  0.71810  Biso   1.000  C
  C184     1.0000 0.54190  0.35440  0.28190  Biso   1.000  C
  H131     1.0000 0.38480  0.62040  0.72190  Biso   1.000  H
  H132     1.0000 0.61520  0.37960  0.27810  Biso   1.000  H
  C185     1.0000 0.47600  0.69200  0.68020  Biso   1.000  C
  C186     1.0000 0.52400  0.30800  0.31980  Biso   1.000  C
  C187     1.0000 0.58330  0.73020  0.67500  Biso   1.000  C
  C188     1.0000 0.41670  0.26980  0.32500  Biso   1.000  C
  C189     1.0000 0.38070  0.70280  0.65050  Biso   1.000  C
  C190     1.0000 0.61930  0.29720  0.34950  Biso   1.000  C
  H133     1.0000 0.31150  0.67960  0.65910  Biso   1.000  H
  H134     1.0000 0.68850  0.32040  0.34090  Biso   1.000  H
  C191     1.0000 0.26280  0.73610  0.59040  Biso   1.000  C
  C192     1.0000 0.73720  0.26390  0.40960  Biso   1.000  C
  H135     1.0000 0.24010  0.68250  0.56910  Biso   1.000  H
  H136     1.0000 0.75990  0.31750  0.43090  Biso   1.000  H
  H137     1.0000 0.21150  0.73190  0.61280  Biso   1.000  H
  H138     1.0000 0.78850  0.26810  0.38720  Biso   1.000  H
  C193     1.0000 0.25310  0.81360  0.56560  Biso   1.000  C
  C194     1.0000 0.74690  0.18640  0.43440  Biso   1.000  C
  H139     1.0000 0.28750  0.86760  0.58550  Biso   1.000  H
  H140     1.0000 0.71250  0.13240  0.41450  Biso   1.000  H
  H141     1.0000 0.17410  0.81470  0.55690  Biso   1.000  H
  H142     1.0000 0.82590  0.18530  0.44310  Biso   1.000  H
  C195     1.0000 0.30780  0.81340  0.52380  Biso   1.000  C
  C196     1.0000 0.69220  0.18660  0.47620  Biso   1.000  C
  H143     1.0000 0.28250  0.75520  0.50630  Biso   1.000  H
  H144     1.0000 0.71750  0.24480  0.49370  Biso   1.000  H
  H145     1.0000 0.28410  0.85780  0.50480  Biso   1.000  H
  H146     1.0000 0.71590  0.14220  0.49520  Biso   1.000  H
  C197     1.0000 0.97620  0.93720  0.57080  Biso   1.000  C
  C198     1.0000 0.02380  0.06280  0.42920  Biso   1.000  C
  H147     1.0000 0.00670  0.90730  0.54740  Biso   1.000  H
  H148     1.0000 0.99330  0.09270  0.45260  Biso   1.000  H
  H149     1.0000 0.01700  0.93200  0.60020  Biso   1.000  H
  H150     1.0000 0.98300  0.06800  0.39980  Biso   1.000  H
  H151     1.0000 0.98300  0.99940  0.56590  Biso   1.000  H
  H152     1.0000 0.01700  0.00060  0.43410  Biso   1.000  H
  C199     1.0000 0.86830  0.74820  0.73020  Biso   1.000  C
  C200     1.0000 0.13170  0.25180  0.26980  Biso   1.000  C
  H153     1.0000 0.86260  0.76990  0.76080  Biso   1.000  H
  H154     1.0000 0.13740  0.23010  0.23920  Biso   1.000  H
  H155     1.0000 0.93580  0.78090  0.72120  Biso   1.000  H
  H156     1.0000 0.06420  0.21910  0.27880  Biso   1.000  H
  H157     1.0000 0.87060  0.68570  0.72910  Biso   1.000  H
  H158     1.0000 0.12940  0.31430  0.27090  Biso   1.000  H
  O89      1.0000 0.81810  0.86460  0.06740  Biso   1.000  O
  O90      1.0000 0.18190  0.13540  0.93260  Biso   1.000  O
  O91      1.0000 0.47540  0.78640  0.12100  Biso   1.000  O
  O92      1.0000 0.52460  0.21360  0.87900  Biso   1.000  O
  O93      1.0000 0.65520  0.73940  0.09560  Biso   1.000  O
  O94      1.0000 0.34480  0.26060  0.90440  Biso   1.000  O
  O95      1.0000 0.37150  0.49180  0.16150  Biso   1.000  O
  O96      1.0000 0.62850  0.50820  0.83850  Biso   1.000  O
  O97      1.0000 0.54860  0.44350  0.12980  Biso   1.000  O
  O98      1.0000 0.45140  0.55650  0.87020  Biso   1.000  O
  O99      1.0000 0.17580  0.36990  0.16750  Biso   1.000  O
  O100     1.0000 0.82420  0.63010  0.83250  Biso   1.000  O
  O101     1.0000 0.16530  0.85230  0.67720  Biso   1.000  O
  O102     1.0000 0.83470  0.14770  0.32280  Biso   1.000  O
  O103     1.0000 0.32370  0.98980  0.65840  Biso   1.000  O
  O104     1.0000 0.67630  0.01020  0.34160  Biso   1.000  O
  O105     1.0000 0.51440  0.94420  0.63440  Biso   1.000  O
  O106     1.0000 0.48560  0.05580  0.36560  Biso   1.000  O
  O107     1.0000 0.18070  0.58050  0.72850  Biso   1.000  O
  O108     1.0000 0.81930  0.41950  0.27150  Biso   1.000  O
  O109     1.0000 0.81610  0.92060  0.77840  Biso   1.000  O
  O110     1.0000 0.18390  0.07940  0.22160  Biso   1.000  O
  O111     1.0000 0.82280  0.35440  0.57360  Biso   1.000  O
  O112     1.0000 0.17720  0.64560  0.42640  Biso   1.000  O
  O113     1.0000 0.63550  0.25480  0.59740  Biso   1.000  O
  O114     1.0000 0.36450  0.74520  0.40260  Biso   1.000  O
  H159     1.0000 0.30280  0.82370  0.03130  Biso   1.000  H
  H160     1.0000 0.69720  0.17630  0.96870  Biso   1.000  H
  H161     1.0000 0.27300  0.74450  0.04820  Biso   1.000  H
  H162     1.0000 0.72700  0.25550  0.95180  Biso   1.000  H
  H163     1.0000 0.76750  0.47740  0.19330  Biso   1.000  H
  H164     1.0000 0.23250  0.52260  0.80670  Biso   1.000  H
  H165     1.0000 0.67900  0.41980  0.20380  Biso   1.000  H
  H166     1.0000 0.32100  0.58020  0.79620  Biso   1.000  H
  H167     1.0000 0.23970  0.25160  0.52950  Biso   1.000  H
  H168     1.0000 0.76030  0.74840  0.47050  Biso   1.000  H
  H169     1.0000 0.26600  0.34150  0.53640  Biso   1.000  H
  H170     1.0000 0.73400  0.65850  0.46360  Biso   1.000  H
  H171     1.0000 0.40020  0.25320  0.62730  Biso   1.000  H
  H172     1.0000 0.59980  0.74680  0.37270  Biso   1.000  H
  H173     1.0000 0.39740  0.32430  0.60300  Biso   1.000  H
  H174     1.0000 0.60260  0.67570  0.39700  Biso   1.000  H
  H175     1.0000 0.71850  0.98820  0.69970  Biso   1.000  H
  H176     1.0000 0.28150  0.01180  0.30030  Biso   1.000  H
  H177     1.0000 0.64380  0.92010  0.71140  Biso   1.000  H
  H178     1.0000 0.35620  0.07990  0.28860  Biso   1.000  H
  H179     1.0000 0.82520  0.83210  0.04450  Biso   1.000  H
  H180     1.0000 0.17480  0.16790  0.95550  Biso   1.000  H
  H181     1.0000 0.88220  0.89520  0.07760  Biso   1.000  H
  H182     1.0000 0.11780  0.10480  0.92240  Biso   1.000  H
  H183     1.0000 0.44070  0.74740  0.13550  Biso   1.000  H
  H184     1.0000 0.55930  0.25260  0.86450  Biso   1.000  H
  H185     1.0000 0.42910  0.81900  0.11250  Biso   1.000  H
  H186     1.0000 0.57090  0.18100  0.88750  Biso   1.000  H
  H187     1.0000 0.70310  0.75740  0.11900  Biso   1.000  H
  H188     1.0000 0.29690  0.24260  0.88100  Biso   1.000  H
  H189     1.0000 0.62220  0.78150  0.09000  Biso   1.000  H
  H190     1.0000 0.37780  0.21850  0.91000  Biso   1.000  H
  H191     1.0000 0.37310  0.53930  0.17730  Biso   1.000  H
  H192     1.0000 0.62690  0.46070  0.82270  Biso   1.000  H
  H193     1.0000 0.36840  0.45100  0.17920  Biso   1.000  H
  H194     1.0000 0.63160  0.54900  0.82080  Biso   1.000  H
  H195     1.0000 0.48200  0.43990  0.11700  Biso   1.000  H
  H196     1.0000 0.51800  0.56010  0.88300  Biso   1.000  H
  H197     1.0000 0.58870  0.48440  0.11870  Biso   1.000  H
  H198     1.0000 0.41130  0.51560  0.88130  Biso   1.000  H
  H199     1.0000 0.15690  0.40290  0.18750  Biso   1.000  H
  H200     1.0000 0.84310  0.59710  0.81250  Biso   1.000  H
  H201     1.0000 0.11780  0.33310  0.15550  Biso   1.000  H
  H202     1.0000 0.88220  0.66690  0.84450  Biso   1.000  H
  H203     1.0000 0.23090  0.83960  0.68050  Biso   1.000  H
  H204     1.0000 0.76910  0.16040  0.31950  Biso   1.000  H
  H205     1.0000 0.16680  0.88980  0.69940  Biso   1.000  H
  H206     1.0000 0.83320  0.11020  0.30060  Biso   1.000  H
  H207     1.0000 0.33900  0.03890  0.67490  Biso   1.000  H
  H208     1.0000 0.66100  0.96110  0.32510  Biso   1.000  H
  H209     1.0000 0.26760  0.99290  0.63880  Biso   1.000  H
  H210     1.0000 0.73240  0.00710  0.36120  Biso   1.000  H
  H211     1.0000 0.44690  0.93910  0.62250  Biso   1.000  H
  H212     1.0000 0.55310  0.06090  0.37750  Biso   1.000  H
  H213     1.0000 0.55250  0.98240  0.62060  Biso   1.000  H
  H214     1.0000 0.44750  0.01760  0.37940  Biso   1.000  H
  H215     1.0000 0.19140  0.55350  0.70450  Biso   1.000  H
  H216     1.0000 0.80860  0.44650  0.29550  Biso   1.000  H
  H217     1.0000 0.11170  0.58150  0.72560  Biso   1.000  H
  H218     1.0000 0.88830  0.41850  0.27440  Biso   1.000  H
  H219     1.0000 0.81780  0.93540  0.80610  Biso   1.000  H
  H220     1.0000 0.18220  0.06460  0.19390  Biso   1.000  H
  H221     1.0000 0.88100  0.94030  0.77230  Biso   1.000  H
  H222     1.0000 0.11900  0.05970  0.22770  Biso   1.000  H
  H223     1.0000 0.85030  0.40690  0.58540  Biso   1.000  H
  H224     1.0000 0.14970  0.59310  0.41460  Biso   1.000  H
  H225     1.0000 0.87750  0.33130  0.56860  Biso   1.000  H
  H226     1.0000 0.12250  0.66870  0.43140  Biso   1.000  H
  H227     1.0000 0.57370  0.25980  0.58190  Biso   1.000  H
  H228     1.0000 0.42630  0.74020  0.41810  Biso   1.000  H
  H229     1.0000 0.63150  0.19960  0.59870  Biso   1.000  H
  H230     1.0000 0.36850  0.80040  0.40130  Biso   1.000  H
  O115     1.0000 0.31630  0.40190  0.67300  Biso   1.000  O
  O116     1.0000 0.68370  0.59810  0.32700  Biso   1.000  O
