data_image0
_cell_length_a       10.7392
_cell_length_b       14.3927
_cell_length_c       17.14
_cell_angle_alpha    86.807
_cell_angle_beta     75.86
_cell_angle_gamma    71.679

_symmetry_space_group_name_H-M    "P 1"
_symmetry_int_tables_number       1

loop_
  _symmetry_equiv_pos_as_xyz
  'x, y, z'

loop_
  _atom_site_label
  _atom_site_occupancy
  _atom_site_fract_x
  _atom_site_fract_y
  _atom_site_fract_z
  _atom_site_thermal_displace_type
  _atom_site_B_iso_or_equiv
  _atom_site_type_symbol
  Gd1      1.0000 0.81645  0.40837  0.43324  Biso   1.000  Gd
  Gd2      1.0000 0.18355  0.59163  0.56675  Biso   1.000  Gd
  Cu1      1.0000 0.88318  0.20190  0.30915  Biso   1.000  Cu
  Cu2      1.0000 0.11682  0.79810  0.69085  Biso   1.000  Cu
  Cr1      1.0000 0.77540  0.29273  0.90351  Biso   1.000  Cr
  Cr2      1.0000 0.22460  0.70727  0.09649  Biso   1.000  Cr
  N1       1.0000 0.92630  0.18710  0.18933  Biso   1.000  N
  N2       1.0000 0.07370  0.81290  0.81067  Biso   1.000  N
  N3       1.0000 0.93660  0.06140  0.33218  Biso   1.000  N
  N4       1.0000 0.06340  0.93860  0.66782  Biso   1.000  N
  N5       1.0000 0.75660  0.43820  0.90829  Biso   1.000  N
  N6       1.0000 0.24340  0.56180  0.09171  Biso   1.000  N
  N7       1.0000 0.67220  0.32660  0.02106  Biso   1.000  N
  N8       1.0000 0.32780  0.67340  0.97894  Biso   1.000  N
  O1       1.0000 0.74270  0.53257  0.33036  Biso   1.000  O
  O2       1.0000 0.25730  0.46743  0.66964  Biso   1.000  O
  O3       1.0000 0.83050  0.34456  0.30438  Biso   1.000  O
  O4       1.0000 0.16950  0.65544  0.69562  Biso   1.000  O
  O5       1.0000 0.86100  0.23727  0.42409  Biso   1.000  O
  O6       1.0000 0.13900  0.76273  0.57591  Biso   1.000  O
  O7       1.0000 0.73990  0.32659  0.56403  Biso   1.000  O
  O8       1.0000 0.26010  0.67341  0.43597  Biso   1.000  O
  O9       1.0000 0.96660  0.38883  0.52075  Biso   1.000  O
  O10      1.0000 0.03340  0.61117  0.47925  Biso   1.000  O
  O11      1.0000 0.58970  0.40140  0.43358  Biso   1.000  O
  O12      1.0000 0.41030  0.59860  0.56642  Biso   1.000  O
  O13      1.0000 0.36650  0.46784  0.48132  Biso   1.000  O
  O14      1.0000 0.63350  0.53216  0.51868  Biso   1.000  O
  O15      1.0000 0.10930  0.44955  0.56153  Biso   1.000  O
  O16      1.0000 0.89070  0.55045  0.43847  Biso   1.000  O
  O17      1.0000 0.61690  0.32816  0.85911  Biso   1.000  O
  O18      1.0000 0.38310  0.67184  0.14089  Biso   1.000  O
  O19      1.0000 0.75740  0.16103  0.90301  Biso   1.000  O
  O20      1.0000 0.24260  0.83897  0.09699  Biso   1.000  O
  O21      1.0000 0.49270  0.26110  0.80810  Biso   1.000  O
  O22      1.0000 0.50730  0.73890  0.19190  Biso   1.000  O
  O23      1.0000 0.63790  0.08290  0.85770  Biso   1.000  O
  O24      1.0000 0.36210  0.91710  0.14230  Biso   1.000  O
  O25      1.0000 0.94330  0.25237  0.94024  Biso   1.000  O
  O26      1.0000 0.05670  0.74763  0.05976  Biso   1.000  O
  O27      1.0000 0.89870  0.27132  0.79674  Biso   1.000  O
  O28      1.0000 0.10130  0.72868  0.20326  Biso   1.000  O
  O29      1.0000 0.16570  0.21230  0.89008  Biso   1.000  O
  O30      1.0000 0.83430  0.78770  0.10992  Biso   1.000  O
  O31      1.0000 0.11860  0.21760  0.73912  Biso   1.000  O
  O32      1.0000 0.88140  0.78240  0.26088  Biso   1.000  O
  C1       1.0000 0.80260  0.50160  0.25100  Biso   1.000  C
  C2       1.0000 0.19740  0.49840  0.74900  Biso   1.000  C
  C3       1.0000 0.81880  0.56350  0.18800  Biso   1.000  C
  C4       1.0000 0.18120  0.43650  0.81200  Biso   1.000  C
  H1       1.0000 0.78910  0.63240  0.19690  Biso   1.000  H
  H2       1.0000 0.21090  0.36760  0.80310  Biso   1.000  H
  C5       1.0000 0.88000  0.52280  0.11040  Biso   1.000  C
  C6       1.0000 0.12000  0.47720  0.88960  Biso   1.000  C
  H3       1.0000 0.89390  0.56440  0.06630  Biso   1.000  H
  H4       1.0000 0.10610  0.43560  0.93370  Biso   1.000  H
  C7       1.0000 0.91940  0.42500  0.09770  Biso   1.000  C
  C8       1.0000 0.08060  0.57500  0.90230  Biso   1.000  C
  H5       1.0000 0.95910  0.39900  0.04440  Biso   1.000  H
  H6       1.0000 0.04090  0.60100  0.95560  Biso   1.000  H
  C9       1.0000 0.90280  0.36090  0.16170  Biso   1.000  C
  C10      1.0000 0.09720  0.63910  0.83830  Biso   1.000  C
  C11      1.0000 0.84630  0.39910  0.24020  Biso   1.000  C
  C12      1.0000 0.15370  0.60090  0.75980  Biso   1.000  C
  C13      1.0000 0.93630  0.25830  0.14170  Biso   1.000  C
  C14      1.0000 0.06370  0.74170  0.85830  Biso   1.000  C
  H7       1.0000 0.97020  0.24110  0.08610  Biso   1.000  H
  H8       1.0000 0.02980  0.75890  0.91390  Biso   1.000  H
  C15      1.0000 0.96290  0.09200  0.14570  Biso   1.000  C
  C16      1.0000 0.03710  0.90800  0.85430  Biso   1.000  C
  H9       1.0000 0.06050  0.07180  0.11910  Biso   1.000  H
  H10      1.0000 0.93950  0.92820  0.88090  Biso   1.000  H
  H11      1.0000 0.91260  0.10150  0.10310  Biso   1.000  H
  H12      1.0000 0.08740  0.89850  0.89690  Biso   1.000  H
  C17      1.0000 0.93350  0.01100  0.19890  Biso   1.000  C
  C18      1.0000 0.06650  0.98900  0.80110  Biso   1.000  C
  H13      1.0000 0.95960  0.95080  0.16550  Biso   1.000  H
  H14      1.0000 0.04040  0.04920  0.83450  Biso   1.000  H
  H15      1.0000 0.83510  0.02920  0.22280  Biso   1.000  H
  H16      1.0000 0.16490  0.97080  0.77720  Biso   1.000  H
  C19      1.0000 0.00690  0.98970  0.26540  Biso   1.000  C
  C20      1.0000 0.99310  0.01030  0.73460  Biso   1.000  C
  H17      1.0000 0.01220  0.92300  0.28530  Biso   1.000  H
  H18      1.0000 0.98780  0.07700  0.71470  Biso   1.000  H
  H19      1.0000 0.10020  0.99220  0.24440  Biso   1.000  H
  H20      1.0000 0.89980  0.00780  0.75560  Biso   1.000  H
  C21      1.0000 0.90870  0.02730  0.40210  Biso   1.000  C
  C22      1.0000 0.09130  0.97270  0.59790  Biso   1.000  C
  H21      1.0000 0.93580  0.95800  0.40550  Biso   1.000  H
  H22      1.0000 0.06420  0.04200  0.59450  Biso   1.000  H
  C23      1.0000 0.84110  0.08130  0.47680  Biso   1.000  C
  C24      1.0000 0.15890  0.91870  0.52320  Biso   1.000  C
  C25      1.0000 0.79620  0.02950  0.54340  Biso   1.000  C
  C26      1.0000 0.20380  0.97050  0.45660  Biso   1.000  C
  H23      1.0000 0.81200  0.96110  0.53790  Biso   1.000  H
  H24      1.0000 0.18800  0.03890  0.46210  Biso   1.000  H
  C27      1.0000 0.72990  0.07550  0.61650  Biso   1.000  C
  C28      1.0000 0.27010  0.92450  0.38350  Biso   1.000  C
  H25      1.0000 0.69830  0.03950  0.66090  Biso   1.000  H
  H26      1.0000 0.30170  0.96050  0.33910  Biso   1.000  H
  C29      1.0000 0.70900  0.17480  0.62560  Biso   1.000  C
  C30      1.0000 0.29100  0.82520  0.37440  Biso   1.000  C
  H27      1.0000 0.66290  0.20700  0.67620  Biso   1.000  H
  H28      1.0000 0.33710  0.79300  0.32380  Biso   1.000  H
  C31      1.0000 0.75510  0.22690  0.56090  Biso   1.000  C
  C32      1.0000 0.24490  0.77310  0.43910  Biso   1.000  C
  C33      1.0000 0.82070  0.18270  0.48480  Biso   1.000  C
  C34      1.0000 0.17930  0.81730  0.51520  Biso   1.000  C
  C35      1.0000 0.68460  0.63720  0.34510  Biso   1.000  C
  C36      1.0000 0.31540  0.36280  0.65490  Biso   1.000  C
  H29      1.0000 0.64050  0.65030  0.40240  Biso   1.000  H
  H30      1.0000 0.35950  0.34970  0.59760  Biso   1.000  H
  H31      1.0000 0.61780  0.66390  0.31300  Biso   1.000  H
  H32      1.0000 0.38220  0.33610  0.68700  Biso   1.000  H
  H33      1.0000 0.75610  0.66810  0.32990  Biso   1.000  H
  H34      1.0000 0.24390  0.33190  0.67010  Biso   1.000  H
  C37      1.0000 0.71360  0.36820  0.64390  Biso   1.000  C
  C38      1.0000 0.28640  0.63180  0.35610  Biso   1.000  C
  H35      1.0000 0.72060  0.43470  0.63940  Biso   1.000  H
  H36      1.0000 0.27940  0.56530  0.36060  Biso   1.000  H
  H37      1.0000 0.78010  0.32760  0.67220  Biso   1.000  H
  H38      1.0000 0.21990  0.67240  0.32780  Biso   1.000  H
  H39      1.0000 0.62260  0.37050  0.67420  Biso   1.000  H
  H40      1.0000 0.37740  0.62950  0.32580  Biso   1.000  H
  C39      1.0000 0.02280  0.45270  0.52380  Biso   1.000  C
  C40      1.0000 0.97720  0.54730  0.47620  Biso   1.000  C
  C41      1.0000 0.48790  0.46200  0.47516  Biso   1.000  C
  C42      1.0000 0.51210  0.53800  0.52484  Biso   1.000  C
  C43      1.0000 0.58230  0.25590  0.84200  Biso   1.000  C
  C44      1.0000 0.41770  0.74410  0.15800  Biso   1.000  C
  C45      1.0000 0.66570  0.15580  0.86920  Biso   1.000  C
  C46      1.0000 0.33430  0.84420  0.13080  Biso   1.000  C
  C47      1.0000 0.05030  0.23360  0.88290  Biso   1.000  C
  C48      1.0000 0.94970  0.76640  0.11710  Biso   1.000  C
  C49      1.0000 0.02390  0.24060  0.79780  Biso   1.000  C
  C50      1.0000 0.97610  0.75940  0.20220  Biso   1.000  C
  C51      1.0000 0.79780  0.49040  0.84590  Biso   1.000  C
  C52      1.0000 0.20220  0.50960  0.15410  Biso   1.000  C
  H41      1.0000 0.84490  0.45770  0.79560  Biso   1.000  H
  H42      1.0000 0.15510  0.54230  0.20440  Biso   1.000  H
  C53      1.0000 0.77450  0.58990  0.85170  Biso   1.000  C
  C54      1.0000 0.22550  0.41010  0.14830  Biso   1.000  C
  H43      1.0000 0.80540  0.62500  0.80650  Biso   1.000  H
  H44      1.0000 0.19460  0.37500  0.19350  Biso   1.000  H
  C55      1.0000 0.70540  0.63720  0.92450  Biso   1.000  C
  C56      1.0000 0.29460  0.36280  0.07550  Biso   1.000  C
  H45      1.0000 0.68740  0.70580  0.93000  Biso   1.000  H
  H46      1.0000 0.31260  0.29420  0.07000  Biso   1.000  H
  C57      1.0000 0.66280  0.58480  0.98910  Biso   1.000  C
  C58      1.0000 0.33720  0.41520  0.01090  Biso   1.000  C
  H47      1.0000 0.61630  0.61680  0.03970  Biso   1.000  H
  H48      1.0000 0.38370  0.38320  0.96030  Biso   1.000  H
  C59      1.0000 0.68790  0.48510  0.98030  Biso   1.000  C
  C60      1.0000 0.31210  0.51490  0.01970  Biso   1.000  C
  C61      1.0000 0.58670  0.45110  0.12400  Biso   1.000  C
  C62      1.0000 0.41330  0.54890  0.87600  Biso   1.000  C
  H49      1.0000 0.56640  0.51750  0.13980  Biso   1.000  H
  H50      1.0000 0.43360  0.48250  0.86020  Biso   1.000  H
  C63      1.0000 0.55800  0.38370  0.18010  Biso   1.000  C
  C64      1.0000 0.44200  0.61630  0.81990  Biso   1.000  C
  H51      1.0000 0.51820  0.40330  0.23490  Biso   1.000  H
  H52      1.0000 0.48180  0.59670  0.76510  Biso   1.000  H
  C65      1.0000 0.58740  0.28770  0.15640  Biso   1.000  C
  C66      1.0000 0.41260  0.71230  0.84360  Biso   1.000  C
  H53      1.0000 0.56990  0.24010  0.19450  Biso   1.000  H
  H54      1.0000 0.43010  0.75990  0.80550  Biso   1.000  H
  C67      1.0000 0.64250  0.26260  0.07620  Biso   1.000  C
  C68      1.0000 0.35750  0.73740  0.92380  Biso   1.000  C
  H55      1.0000 0.66020  0.19690  0.05940  Biso   1.000  H
  H56      1.0000 0.33980  0.80310  0.94060  Biso   1.000  H
  C69      1.0000 0.64560  0.42110  0.04440  Biso   1.000  C
  C70      1.0000 0.35440  0.57890  0.95560  Biso   1.000  C
  O33      1.0000 0.64830  0.22435  0.33865  Biso   1.000  O
  O34      1.0000 0.35170  0.77565  0.66135  Biso   1.000  O
  O35      1.0000 0.04160  0.37371  0.34625  Biso   1.000  O
  O36      1.0000 0.95840  0.62629  0.65375  Biso   1.000  O
  O37      1.0000 0.39720  0.12000  0.75269  Biso   1.000  O
  O38      1.0000 0.60280  0.88000  0.24731  Biso   1.000  O
  O39      1.0000 0.10790  0.20438  0.58076  Biso   1.000  O
  O40      1.0000 0.89210  0.79562  0.41924  Biso   1.000  O
  O41      1.0000 0.53410  0.09310  0.43423  Biso   1.000  O
  O42      1.0000 0.46590  0.90690  0.56577  Biso   1.000  O
  O43      1.0000 0.28880  0.37300  0.36415  Biso   1.000  O
  O44      1.0000 0.71120  0.62700  0.63585  Biso   1.000  O
  O45      1.0000 0.36770  0.16750  0.33260  Biso   1.000  O
  O46      1.0000 0.63230  0.83250  0.66740  Biso   1.000  O
  O47      1.0000 0.46130  0.92680  0.80960  Biso   1.000  O
  O48      1.0000 0.53870  0.07320  0.19040  Biso   1.000  O
  O49      1.0000 0.14320  0.19340  0.27481  Biso   1.000  O
  O50      1.0000 0.85680  0.80660  0.72519  Biso   1.000  O
  O51      1.0000 0.36620  0.15190  0.96950  Biso   1.000  O
  O52      1.0000 0.63380  0.84810  0.03050  Biso   1.000  O
  O53      1.0000 0.69680  0.88680  0.87418  Biso   1.000  O
  O54      1.0000 0.30320  0.11320  0.12582  Biso   1.000  O
  O55      1.0000 0.62260  0.89150  0.40953  Biso   1.000  O
  O56      1.0000 0.37740  0.10850  0.59047  Biso   1.000  O
  H57      1.0000 0.61850  0.18740  0.37170  Biso   1.000  H
  H58      1.0000 0.38150  0.81260  0.62830  Biso   1.000  H
  H59      1.0000 0.63170  0.27840  0.36970  Biso   1.000  H
  H60      1.0000 0.36830  0.72160  0.63030  Biso   1.000  H
  H61      1.0000 0.07760  0.31730  0.31340  Biso   1.000  H
  H62      1.0000 0.92240  0.68270  0.68660  Biso   1.000  H
  H63      1.0000 0.10190  0.39420  0.35100  Biso   1.000  H
  H64      1.0000 0.89810  0.60580  0.64900  Biso   1.000  H
  H65      1.0000 0.47510  0.15150  0.74830  Biso   1.000  H
  H66      1.0000 0.52490  0.84850  0.25170  Biso   1.000  H
  H67      1.0000 0.32620  0.15460  0.76790  Biso   1.000  H
  H68      1.0000 0.67380  0.84540  0.23210  Biso   1.000  H
  H69      1.0000 0.08340  0.22590  0.63620  Biso   1.000  H
  H70      1.0000 0.91660  0.77410  0.36380  Biso   1.000  H
  H71      1.0000 0.07170  0.24610  0.55120  Biso   1.000  H
  H72      1.0000 0.92830  0.75390  0.44880  Biso   1.000  H
  H73      1.0000 0.57880  0.02640  0.42380  Biso   1.000  H
  H74      1.0000 0.42120  0.97360  0.57620  Biso   1.000  H
  H75      1.0000 0.49110  0.10080  0.48500  Biso   1.000  H
  H76      1.0000 0.50890  0.89920  0.51500  Biso   1.000  H
  H77      1.0000 0.33150  0.31880  0.34720  Biso   1.000  H
  H78      1.0000 0.66850  0.68120  0.65280  Biso   1.000  H
  H79      1.0000 0.31940  0.39950  0.40530  Biso   1.000  H
  H80      1.0000 0.68060  0.60050  0.59470  Biso   1.000  H
  H81      1.0000 0.39410  0.15070  0.37880  Biso   1.000  H
  H82      1.0000 0.60590  0.84930  0.62120  Biso   1.000  H
  H83      1.0000 0.44460  0.13860  0.28100  Biso   1.000  H
  H84      1.0000 0.55540  0.86140  0.71900  Biso   1.000  H
  H85      1.0000 0.54120  0.91410  0.83160  Biso   1.000  H
  H86      1.0000 0.45880  0.08590  0.16840  Biso   1.000  H
  H87      1.0000 0.42430  0.98930  0.78820  Biso   1.000  H
  H88      1.0000 0.57570  0.01070  0.21180  Biso   1.000  H
  H89      1.0000 0.21370  0.20230  0.29960  Biso   1.000  H
  H90      1.0000 0.78630  0.79770  0.70040  Biso   1.000  H
  H91      1.0000 0.18620  0.19070  0.22070  Biso   1.000  H
  H92      1.0000 0.81380  0.80930  0.77930  Biso   1.000  H
  H93      1.0000 0.28300  0.18380  0.95180  Biso   1.000  H
  H94      1.0000 0.71700  0.81620  0.04820  Biso   1.000  H
  H95      1.0000 0.44420  0.11300  0.93090  Biso   1.000  H
  H96      1.0000 0.55580  0.88700  0.06910  Biso   1.000  H
  H97      1.0000 0.69380  0.87170  0.93180  Biso   1.000  H
  H98      1.0000 0.30620  0.12830  0.06820  Biso   1.000  H
  H99      1.0000 0.68370  0.95640  0.87380  Biso   1.000  H
  H100     1.0000 0.31630  0.04360  0.12620  Biso   1.000  H
  H101     1.0000 0.69460  0.85810  0.41710  Biso   1.000  H
  H102     1.0000 0.30540  0.14190  0.58290  Biso   1.000  H
  H103     1.0000 0.62480  0.87690  0.35690  Biso   1.000  H
  H104     1.0000 0.37520  0.12310  0.64310  Biso   1.000  H
