data_image0
_cell_length_a       10.3753
_cell_length_b       10.5726
_cell_length_c       14.7142
_cell_angle_alpha    85.914
_cell_angle_beta     86.741
_cell_angle_gamma    66.319

_symmetry_space_group_name_H-M    "P 1"
_symmetry_int_tables_number       1

loop_
  _symmetry_equiv_pos_as_xyz
  'x, y, z'

loop_
  _atom_site_label
  _atom_site_occupancy
  _atom_site_fract_x
  _atom_site_fract_y
  _atom_site_fract_z
  _atom_site_thermal_displace_type
  _atom_site_B_iso_or_equiv
  _atom_site_type_symbol
  Er1      1.0000 0.77283  0.26543  0.74540  Biso   1.000  Er
  Er2      1.0000 0.22717  0.73457  0.25460  Biso   1.000  Er
  Cu1      1.0000 0.72760  0.57767  0.83080  Biso   1.000  Cu
  Cu2      1.0000 0.27240  0.42233  0.16920  Biso   1.000  Cu
  N1       1.0000 0.57610  0.70480  0.90942  Biso   1.000  N
  N2       1.0000 0.42390  0.29520  0.09058  Biso   1.000  N
  N3       1.0000 0.86370  0.66510  0.83353  Biso   1.000  N
  N4       1.0000 0.13630  0.33490  0.16647  Biso   1.000  N
  N5       1.0000 0.24790  0.85360  0.71200  Biso   1.000  N
  N6       1.0000 0.75210  0.14640  0.28800  Biso   1.000  N
  O1       1.0000 0.63276  0.45198  0.82823  Biso   1.000  O
  O2       1.0000 0.36724  0.54802  0.17177  Biso   1.000  O
  O3       1.0000 0.86441  0.42862  0.75971  Biso   1.000  O
  O4       1.0000 0.13559  0.57138  0.24029  Biso   1.000  O
  O5       1.0000 0.53150  0.28400  0.76956  Biso   1.000  O
  O6       1.0000 0.46850  0.71600  0.23044  Biso   1.000  O
  O7       1.0000 0.96300  0.24460  0.63596  Biso   1.000  O
  O8       1.0000 0.03700  0.75540  0.36404  Biso   1.000  O
  O9       1.0000 0.74980  0.16210  0.89349  Biso   1.000  O
  O10      1.0000 0.25020  0.83790  0.10651  Biso   1.000  O
  O11      1.0000 0.95800  0.15720  0.85214  Biso   1.000  O
  O12      1.0000 0.04200  0.84280  0.14786  Biso   1.000  O
  O13      1.0000 0.68280  0.24330  0.60073  Biso   1.000  O
  O14      1.0000 0.31720  0.75670  0.39927  Biso   1.000  O
  O15      1.0000 0.65600  0.45100  0.63507  Biso   1.000  O
  O16      1.0000 0.34400  0.54900  0.36493  Biso   1.000  O
  O17      1.0000 0.35000  0.88130  0.73060  Biso   1.000  O
  O18      1.0000 0.65000  0.11870  0.26940  Biso   1.000  O
  O19      1.0000 0.24770  0.80970  0.63770  Biso   1.000  O
  O20      1.0000 0.75230  0.19030  0.36230  Biso   1.000  O
  O21      1.0000 0.14930  0.87450  0.76747  Biso   1.000  O
  O22      1.0000 0.85070  0.12550  0.23253  Biso   1.000  O
  C1       1.0000 0.58330  0.82980  0.94530  Biso   1.000  C
  C2       1.0000 0.41670  0.17020  0.05470  Biso   1.000  C
  H1       1.0000 0.61110  0.80910  0.00970  Biso   1.000  H
  H2       1.0000 0.38890  0.19090  0.99030  Biso   1.000  H
  H3       1.0000 0.48810  0.90540  0.94410  Biso   1.000  H
  H4       1.0000 0.51190  0.09460  0.05590  Biso   1.000  H
  C3       1.0000 0.68460  0.87950  0.89320  Biso   1.000  C
  C4       1.0000 0.31540  0.12050  0.10680  Biso   1.000  C
  H5       1.0000 0.67720  0.96670  0.91830  Biso   1.000  H
  H6       1.0000 0.32280  0.03330  0.08170  Biso   1.000  H
  H7       1.0000 0.65720  0.90010  0.82870  Biso   1.000  H
  H8       1.0000 0.34280  0.09990  0.17130  Biso   1.000  H
  C5       1.0000 0.83620  0.77600  0.89700  Biso   1.000  C
  C6       1.0000 0.16380  0.22400  0.10300  Biso   1.000  C
  H9       1.0000 0.89960  0.82400  0.88060  Biso   1.000  H
  H10      1.0000 0.10040  0.17600  0.11940  Biso   1.000  H
  H11      1.0000 0.85650  0.73490  0.95980  Biso   1.000  H
  H12      1.0000 0.14350  0.26510  0.04020  Biso   1.000  H
  C7       1.0000 0.96670  0.64430  0.77600  Biso   1.000  C
  C8       1.0000 0.03330  0.35570  0.22400  Biso   1.000  C
  H13      1.0000 0.01630  0.70230  0.77860  Biso   1.000  H
  H14      1.0000 0.98370  0.29770  0.22140  Biso   1.000  H
  C9       1.0000 0.01600  0.54240  0.70750  Biso   1.000  C
  C10      1.0000 0.98400  0.45760  0.29250  Biso   1.000  C
  C11      1.0000 0.12220  0.54690  0.64470  Biso   1.000  C
  C12      1.0000 0.87780  0.45310  0.35530  Biso   1.000  C
  H15      1.0000 0.15820  0.61600  0.64830  Biso   1.000  H
  H16      1.0000 0.84180  0.38400  0.35170  Biso   1.000  H
  C13      1.0000 0.17350  0.45310  0.57890  Biso   1.000  C
  C14      1.0000 0.82650  0.54690  0.42110  Biso   1.000  C
  H17      1.0000 0.24410  0.45820  0.53650  Biso   1.000  H
  H18      1.0000 0.75590  0.54180  0.46350  Biso   1.000  H
  C15      1.0000 0.12320  0.34950  0.57330  Biso   1.000  C
  C16      1.0000 0.87680  0.65050  0.42670  Biso   1.000  C
  H19      1.0000 0.15920  0.28440  0.52740  Biso   1.000  H
  H20      1.0000 0.84080  0.71560  0.47260  Biso   1.000  H
  C17      1.0000 0.02070  0.34270  0.63510  Biso   1.000  C
  C18      1.0000 0.97930  0.65730  0.36490  Biso   1.000  C
  C19      1.0000 0.96380  0.43950  0.70348  Biso   1.000  C
  C20      1.0000 0.03620  0.56050  0.29652  Biso   1.000  C
  C21      1.0000 0.50160  0.47370  0.85429  Biso   1.000  C
  C22      1.0000 0.49840  0.52630  0.14571  Biso   1.000  C
  C23      1.0000 0.41660  0.58440  0.90703  Biso   1.000  C
  C24      1.0000 0.58340  0.41560  0.09297  Biso   1.000  C
  C25      1.0000 0.28110  0.59520  0.93600  Biso   1.000  C
  C26      1.0000 0.71890  0.40480  0.06400  Biso   1.000  C
  H21      1.0000 0.22380  0.66910  0.97250  Biso   1.000  H
  H22      1.0000 0.77620  0.33090  0.02750  Biso   1.000  H
  C27      1.0000 0.23050  0.50100  0.91240  Biso   1.000  C
  C28      1.0000 0.76950  0.49900  0.08760  Biso   1.000  C
  H23      1.0000 0.14020  0.50810  0.93470  Biso   1.000  H
  H24      1.0000 0.85980  0.49190  0.06530  Biso   1.000  H
  C29      1.0000 0.31020  0.39480  0.85581  Biso   1.000  C
  C30      1.0000 0.68980  0.60520  0.14419  Biso   1.000  C
  H25      1.0000 0.27340  0.33200  0.83720  Biso   1.000  H
  H26      1.0000 0.72660  0.66800  0.16280  Biso   1.000  H
  C31      1.0000 0.44360  0.38250  0.82734  Biso   1.000  C
  C32      1.0000 0.55640  0.61750  0.17266  Biso   1.000  C
  C33      1.0000 0.46080  0.69080  0.93197  Biso   1.000  C
  C34      1.0000 0.53920  0.30920  0.06803  Biso   1.000  C
  H27      1.0000 0.39630  0.75880  0.96980  Biso   1.000  H
  H28      1.0000 0.60370  0.24120  0.03020  Biso   1.000  H
  C35      1.0000 0.47720  0.18880  0.73840  Biso   1.000  C
  C36      1.0000 0.52280  0.81120  0.26160  Biso   1.000  C
  H29      1.0000 0.45510  0.13800  0.79100  Biso   1.000  H
  H30      1.0000 0.54490  0.86200  0.20900  Biso   1.000  H
  H31      1.0000 0.54810  0.12350  0.69870  Biso   1.000  H
  H32      1.0000 0.45190  0.87650  0.30130  Biso   1.000  H
  H33      1.0000 0.39160  0.24060  0.70440  Biso   1.000  H
  H34      1.0000 0.60840  0.75940  0.29560  Biso   1.000  H
  C37      1.0000 0.00490  0.15450  0.56030  Biso   1.000  C
  C38      1.0000 0.99510  0.84550  0.43970  Biso   1.000  C
  H35      1.0000 0.98640  0.21060  0.50280  Biso   1.000  H
  H36      1.0000 0.01360  0.78940  0.49720  Biso   1.000  H
  H37      1.0000 0.95100  0.09640  0.56380  Biso   1.000  H
  H38      1.0000 0.04900  0.90360  0.43620  Biso   1.000  H
  H39      1.0000 0.10570  0.09560  0.56320  Biso   1.000  H
  H40      1.0000 0.89430  0.90440  0.43680  Biso   1.000  H
  C39      1.0000 0.87760  0.12430  0.90784  Biso   1.000  C
  C40      1.0000 0.12240  0.87570  0.09216  Biso   1.000  C
  C41      1.0000 0.93280  0.03580  0.99340  Biso   1.000  C
  C42      1.0000 0.06720  0.96420  0.00660  Biso   1.000  C
  H41      1.0000 0.86710  0.03190  0.04000  Biso   1.000  H
  H42      1.0000 0.13290  0.96810  0.96000  Biso   1.000  H
  C43      1.0000 0.63200  0.37280  0.58391  Biso   1.000  C
  C44      1.0000 0.36800  0.62720  0.41609  Biso   1.000  C
  C45      1.0000 0.53920  0.43320  0.50466  Biso   1.000  C
  C46      1.0000 0.46080  0.56680  0.49534  Biso   1.000  C
  H43      1.0000 0.53640  0.37400  0.45990  Biso   1.000  H
  H44      1.0000 0.46360  0.62600  0.54010  Biso   1.000  H
  O23      1.0000 0.86730  0.02590  0.72055  Biso   1.000  O
  O24      1.0000 0.13270  0.97410  0.27945  Biso   1.000  O
  O25      1.0000 0.62620  0.70400  0.69042  Biso   1.000  O
  O26      1.0000 0.37380  0.29600  0.30958  Biso   1.000  O
  O27      1.0000 0.61020  0.06550  0.49690  Biso   1.000  O
  O28      1.0000 0.38980  0.93450  0.50310  Biso   1.000  O
  O29      1.0000 0.62600  0.99360  0.46790  Biso   1.000  O
  O30      1.0000 0.37400  0.00640  0.53210  Biso   1.000  O
  O31      1.0000 0.76260  0.88230  0.62876  Biso   1.000  O
  O32      1.0000 0.23740  0.11770  0.37124  Biso   1.000  O
  O33      1.0000 0.75160  0.89960  0.14229  Biso   1.000  O
  O34      1.0000 0.24840  0.10040  0.85771  Biso   1.000  O
  H45      1.0000 0.95020  0.98730  0.74080  Biso   1.000  H
  H46      1.0000 0.04980  0.01270  0.25920  Biso   1.000  H
  H47      1.0000 0.81550  0.99430  0.75370  Biso   1.000  H
  H48      1.0000 0.18450  0.00570  0.24630  Biso   1.000  H
  H49      1.0000 0.54070  0.74720  0.70790  Biso   1.000  H
  H50      1.0000 0.45930  0.25280  0.29210  Biso   1.000  H
  H51      1.0000 0.63050  0.63450  0.66260  Biso   1.000  H
  H52      1.0000 0.36950  0.36550  0.33740  Biso   1.000  H
  H53      1.0000 0.83860  0.84530  0.59600  Biso   1.000  H
  H54      1.0000 0.16140  0.15470  0.40400  Biso   1.000  H
  H55      1.0000 0.74510  0.81370  0.65010  Biso   1.000  H
  H56      1.0000 0.25490  0.18630  0.34990  Biso   1.000  H
  H57      1.0000 0.84030  0.87840  0.13980  Biso   1.000  H
  H58      1.0000 0.15970  0.12160  0.86020  Biso   1.000  H
  H59      1.0000 0.71690  0.95350  0.18550  Biso   1.000  H
  H60      1.0000 0.28310  0.04650  0.81450  Biso   1.000  H
