data_image0
_cell_length_a       15.852
_cell_length_b       16.153
_cell_length_c       11.348
_cell_angle_alpha    90
_cell_angle_beta     90
_cell_angle_gamma    90

_symmetry_space_group_name_H-M    "P 1"
_symmetry_int_tables_number       1

loop_
  _symmetry_equiv_pos_as_xyz
  'x, y, z'

loop_
  _atom_site_label
  _atom_site_occupancy
  _atom_site_fract_x
  _atom_site_fract_y
  _atom_site_fract_z
  _atom_site_thermal_displace_type
  _atom_site_B_iso_or_equiv
  _atom_site_type_symbol
  Cu1      1.0000 0.87391  0.12236  0.36510  Biso   1.000  Cu
  Cu2      1.0000 0.12609  0.87764  0.86510  Biso   1.000  Cu
  Cu3      1.0000 0.62609  0.62236  0.86510  Biso   1.000  Cu
  Cu4      1.0000 0.37391  0.37764  0.36510  Biso   1.000  Cu
  Gd1      1.0000 0.68511  0.03520  0.27961  Biso   1.000  Gd
  Gd2      1.0000 0.31489  0.96480  0.77961  Biso   1.000  Gd
  Gd3      1.0000 0.81489  0.53520  0.77961  Biso   1.000  Gd
  Gd4      1.0000 0.18511  0.46480  0.27961  Biso   1.000  Gd
  N1       1.0000 0.97940  0.06940  0.42880  Biso   1.000  N
  N2       1.0000 0.02060  0.93060  0.92880  Biso   1.000  N
  N3       1.0000 0.52060  0.56940  0.92880  Biso   1.000  N
  N4       1.0000 0.47940  0.43060  0.42880  Biso   1.000  N
  N5       1.0000 0.90870  0.24018  0.38300  Biso   1.000  N
  N6       1.0000 0.09130  0.75982  0.88300  Biso   1.000  N
  N7       1.0000 0.59130  0.74018  0.88300  Biso   1.000  N
  N8       1.0000 0.40870  0.25982  0.38300  Biso   1.000  N
  O1       1.0000 0.77311  0.15347  0.27270  Biso   1.000  O
  O2       1.0000 0.22689  0.84653  0.77270  Biso   1.000  O
  O3       1.0000 0.72689  0.65347  0.77270  Biso   1.000  O
  O4       1.0000 0.27311  0.34653  0.27270  Biso   1.000  O
  O5       1.0000 0.82681  0.01104  0.33130  Biso   1.000  O
  O6       1.0000 0.17319  0.98896  0.83130  Biso   1.000  O
  O7       1.0000 0.67319  0.51104  0.83130  Biso   1.000  O
  O8       1.0000 0.32681  0.48896  0.33130  Biso   1.000  O
  O9       1.0000 0.74567  0.89196  0.22740  Biso   1.000  O
  O10      1.0000 0.25433  0.10804  0.72740  Biso   1.000  O
  O11      1.0000 0.75433  0.39196  0.72740  Biso   1.000  O
  O12      1.0000 0.24567  0.60804  0.22740  Biso   1.000  O
  O13      1.0000 0.62477  0.16498  0.17470  Biso   1.000  O
  O14      1.0000 0.37523  0.83502  0.67470  Biso   1.000  O
  O15      1.0000 0.87523  0.66498  0.67470  Biso   1.000  O
  O16      1.0000 0.12477  0.33502  0.17470  Biso   1.000  O
  O17      1.0000 0.43666  0.03261  0.69490  Biso   1.000  O
  O18      1.0000 0.56334  0.96739  0.19490  Biso   1.000  O
  O19      1.0000 0.06334  0.53261  0.19490  Biso   1.000  O
  O20      1.0000 0.93666  0.46739  0.69490  Biso   1.000  O
  O21      1.0000 0.46389  0.95131  0.84680  Biso   1.000  O
  O22      1.0000 0.53611  0.04869  0.34680  Biso   1.000  O
  O23      1.0000 0.03611  0.45131  0.34680  Biso   1.000  O
  O24      1.0000 0.96389  0.54869  0.84680  Biso   1.000  O
  O25      1.0000 0.72398  0.02893  0.08120  Biso   1.000  O
  O26      1.0000 0.27602  0.97107  0.58120  Biso   1.000  O
  O27      1.0000 0.77602  0.52893  0.58120  Biso   1.000  O
  O28      1.0000 0.22398  0.47107  0.08120  Biso   1.000  O
  O29      1.0000 0.82390  0.10484  0.99470  Biso   1.000  O
  O30      1.0000 0.17610  0.89516  0.49470  Biso   1.000  O
  O31      1.0000 0.67610  0.60484  0.49470  Biso   1.000  O
  O32      1.0000 0.32390  0.39516  0.99470  Biso   1.000  O
  O33      1.0000 0.68873  0.09424  0.46550  Biso   1.000  O
  O34      1.0000 0.31127  0.90576  0.96550  Biso   1.000  O
  O35      1.0000 0.81127  0.59424  0.96550  Biso   1.000  O
  O36      1.0000 0.18873  0.40576  0.46550  Biso   1.000  O
  O37      1.0000 0.81132  0.12830  0.55040  Biso   1.000  O
  O38      1.0000 0.18868  0.87170  0.05040  Biso   1.000  O
  O39      1.0000 0.68868  0.62830  0.05040  Biso   1.000  O
  O40      1.0000 0.31132  0.37170  0.55040  Biso   1.000  O
  O41      1.0000 0.65320  0.92750  0.42680  Biso   1.000  O
  O42      1.0000 0.34680  0.07250  0.92680  Biso   1.000  O
  O43      1.0000 0.84680  0.42750  0.92680  Biso   1.000  O
  O44      1.0000 0.15320  0.57250  0.42680  Biso   1.000  O
  C1       1.0000 0.03950  0.11940  0.49840  Biso   1.000  C
  C2       1.0000 0.96050  0.88060  0.99840  Biso   1.000  C
  C3       1.0000 0.46050  0.61940  0.99840  Biso   1.000  C
  C4       1.0000 0.53950  0.38060  0.49840  Biso   1.000  C
  H1       1.0000 0.09400  0.08960  0.50270  Biso   1.000  H
  H2       1.0000 0.90600  0.91040  0.00270  Biso   1.000  H
  H3       1.0000 0.40600  0.58960  0.00270  Biso   1.000  H
  H4       1.0000 0.59400  0.41040  0.50270  Biso   1.000  H
  H5       1.0000 0.01770  0.12520  0.57970  Biso   1.000  H
  H6       1.0000 0.98230  0.87480  0.07970  Biso   1.000  H
  H7       1.0000 0.48230  0.62520  0.07970  Biso   1.000  H
  H8       1.0000 0.51770  0.37480  0.57970  Biso   1.000  H
  C5       1.0000 0.05440  0.20460  0.44730  Biso   1.000  C
  C6       1.0000 0.94560  0.79540  0.94730  Biso   1.000  C
  C7       1.0000 0.44560  0.70460  0.94730  Biso   1.000  C
  C8       1.0000 0.55440  0.29540  0.44730  Biso   1.000  C
  H9       1.0000 0.06770  0.19930  0.36240  Biso   1.000  H
  H10      1.0000 0.93230  0.80070  0.86240  Biso   1.000  H
  H11      1.0000 0.43230  0.69930  0.86240  Biso   1.000  H
  H12      1.0000 0.56770  0.30070  0.36240  Biso   1.000  H
  H13      1.0000 0.10380  0.23000  0.48670  Biso   1.000  H
  H14      1.0000 0.89620  0.77000  0.98670  Biso   1.000  H
  H15      1.0000 0.39620  0.73000  0.98670  Biso   1.000  H
  H16      1.0000 0.60380  0.27000  0.48670  Biso   1.000  H
  C9       1.0000 0.97850  0.26120  0.46190  Biso   1.000  C
  C10      1.0000 0.02150  0.73880  0.96190  Biso   1.000  C
  C11      1.0000 0.52150  0.76120  0.96190  Biso   1.000  C
  C12      1.0000 0.47850  0.23880  0.46190  Biso   1.000  C
  H17      1.0000 0.95860  0.25800  0.54440  Biso   1.000  H
  H18      1.0000 0.04140  0.74200  0.04440  Biso   1.000  H
  H19      1.0000 0.54140  0.75800  0.04440  Biso   1.000  H
  H20      1.0000 0.45860  0.24200  0.54440  Biso   1.000  H
  H21      1.0000 0.99620  0.31900  0.44660  Biso   1.000  H
  H22      1.0000 0.00380  0.68100  0.94660  Biso   1.000  H
  H23      1.0000 0.50380  0.81900  0.94660  Biso   1.000  H
  H24      1.0000 0.49620  0.18100  0.44660  Biso   1.000  H
  C13      1.0000 0.87190  0.30090  0.33150  Biso   1.000  C
  C14      1.0000 0.12810  0.69910  0.83150  Biso   1.000  C
  C15      1.0000 0.62810  0.80090  0.83150  Biso   1.000  C
  C16      1.0000 0.37190  0.19910  0.33150  Biso   1.000  C
  H25      1.0000 0.89730  0.35360  0.34290  Biso   1.000  H
  H26      1.0000 0.10270  0.64640  0.84290  Biso   1.000  H
  H27      1.0000 0.60270  0.85360  0.84290  Biso   1.000  H
  H28      1.0000 0.39730  0.14640  0.34290  Biso   1.000  H
  C17      1.0000 0.79730  0.30020  0.25850  Biso   1.000  C
  C18      1.0000 0.20270  0.69980  0.75850  Biso   1.000  C
  C19      1.0000 0.70270  0.80020  0.75850  Biso   1.000  C
  C20      1.0000 0.29730  0.19980  0.25850  Biso   1.000  C
  C21      1.0000 0.76810  0.37670  0.21400  Biso   1.000  C
  C22      1.0000 0.23190  0.62330  0.71400  Biso   1.000  C
  C23      1.0000 0.73190  0.87670  0.71400  Biso   1.000  C
  C24      1.0000 0.26810  0.12330  0.21400  Biso   1.000  C
  H29      1.0000 0.80010  0.42540  0.22800  Biso   1.000  H
  H30      1.0000 0.19990  0.57460  0.72800  Biso   1.000  H
  H31      1.0000 0.69990  0.92540  0.72800  Biso   1.000  H
  H32      1.0000 0.30010  0.07460  0.22800  Biso   1.000  H
  C25      1.0000 0.69500  0.38190  0.15130  Biso   1.000  C
  C26      1.0000 0.30500  0.61810  0.65130  Biso   1.000  C
  C27      1.0000 0.80500  0.88190  0.65130  Biso   1.000  C
  C28      1.0000 0.19500  0.11810  0.15130  Biso   1.000  C
  H33      1.0000 0.67770  0.43360  0.11980  Biso   1.000  H
  H34      1.0000 0.32230  0.56640  0.61980  Biso   1.000  H
  H35      1.0000 0.82230  0.93360  0.61980  Biso   1.000  H
  H36      1.0000 0.17770  0.06640  0.11980  Biso   1.000  H
  C29      1.0000 0.64520  0.31140  0.13300  Biso   1.000  C
  C30      1.0000 0.35480  0.68860  0.63300  Biso   1.000  C
  C31      1.0000 0.85480  0.81140  0.63300  Biso   1.000  C
  C32      1.0000 0.14520  0.18860  0.13300  Biso   1.000  C
  H37      1.0000 0.59400  0.31480  0.08980  Biso   1.000  H
  H38      1.0000 0.40600  0.68520  0.58980  Biso   1.000  H
  H39      1.0000 0.90600  0.81480  0.58980  Biso   1.000  H
  H40      1.0000 0.09400  0.18520  0.08980  Biso   1.000  H
  C33      1.0000 0.67230  0.23700  0.17940  Biso   1.000  C
  C34      1.0000 0.32770  0.76300  0.67940  Biso   1.000  C
  C35      1.0000 0.82770  0.73700  0.67940  Biso   1.000  C
  C36      1.0000 0.17230  0.26300  0.17940  Biso   1.000  C
  C37      1.0000 0.74910  0.22780  0.23790  Biso   1.000  C
  C38      1.0000 0.25090  0.77220  0.73790  Biso   1.000  C
  C39      1.0000 0.75090  0.72780  0.73790  Biso   1.000  C
  C40      1.0000 0.24910  0.27220  0.23790  Biso   1.000  C
  C41      1.0000 0.86820  0.94090  0.31800  Biso   1.000  C
  C42      1.0000 0.13180  0.05910  0.81800  Biso   1.000  C
  C43      1.0000 0.63180  0.44090  0.81800  Biso   1.000  C
  C44      1.0000 0.36820  0.55910  0.31800  Biso   1.000  C
  C45      1.0000 0.82660  0.87370  0.26310  Biso   1.000  C
  C46      1.0000 0.17340  0.12630  0.76310  Biso   1.000  C
  C47      1.0000 0.67340  0.37370  0.76310  Biso   1.000  C
  C48      1.0000 0.32660  0.62630  0.26310  Biso   1.000  C
  C49      1.0000 0.86530  0.79770  0.25140  Biso   1.000  C
  C50      1.0000 0.13470  0.20230  0.75140  Biso   1.000  C
  C51      1.0000 0.63470  0.29770  0.75140  Biso   1.000  C
  C52      1.0000 0.36530  0.70230  0.25140  Biso   1.000  C
  H41      1.0000 0.83570  0.75290  0.21620  Biso   1.000  H
  H42      1.0000 0.16430  0.24710  0.71620  Biso   1.000  H
  H43      1.0000 0.66430  0.25290  0.71620  Biso   1.000  H
  H44      1.0000 0.33570  0.74710  0.21620  Biso   1.000  H
  C53      1.0000 0.94790  0.78650  0.29100  Biso   1.000  C
  C54      1.0000 0.05210  0.21350  0.79100  Biso   1.000  C
  C55      1.0000 0.55210  0.28650  0.79100  Biso   1.000  C
  C56      1.0000 0.44790  0.71350  0.29100  Biso   1.000  C
  H45      1.0000 0.97440  0.73400  0.28340  Biso   1.000  H
  H46      1.0000 0.02560  0.26600  0.78340  Biso   1.000  H
  H47      1.0000 0.52560  0.23400  0.78340  Biso   1.000  H
  H48      1.0000 0.47440  0.76600  0.28340  Biso   1.000  H
  C57      1.0000 0.99080  0.85150  0.34100  Biso   1.000  C
  C58      1.0000 0.00920  0.14850  0.84100  Biso   1.000  C
  C59      1.0000 0.50920  0.35150  0.84100  Biso   1.000  C
  C60      1.0000 0.49080  0.64850  0.34100  Biso   1.000  C
  H49      1.0000 0.04720  0.84390  0.36710  Biso   1.000  H
  H50      1.0000 0.95280  0.15610  0.86710  Biso   1.000  H
  H51      1.0000 0.45280  0.34390  0.86710  Biso   1.000  H
  H52      1.0000 0.54720  0.65610  0.36710  Biso   1.000  H
  C61      1.0000 0.95190  0.92950  0.35410  Biso   1.000  C
  C62      1.0000 0.04810  0.07050  0.85410  Biso   1.000  C
  C63      1.0000 0.54810  0.42950  0.85410  Biso   1.000  C
  C64      1.0000 0.45190  0.57050  0.35410  Biso   1.000  C
  C65      1.0000 0.00060  0.99400  0.41030  Biso   1.000  C
  C66      1.0000 0.99940  0.00600  0.91030  Biso   1.000  C
  C67      1.0000 0.49940  0.49400  0.91030  Biso   1.000  C
  C68      1.0000 0.50060  0.50600  0.41030  Biso   1.000  C
  H53      1.0000 0.05530  0.97860  0.43680  Biso   1.000  H
  H54      1.0000 0.94470  0.02140  0.93680  Biso   1.000  H
  H55      1.0000 0.44470  0.47860  0.93680  Biso   1.000  H
  H56      1.0000 0.55530  0.52140  0.43680  Biso   1.000  H
  C69      1.0000 0.70590  0.83320  0.14760  Biso   1.000  C
  C70      1.0000 0.29410  0.16680  0.64760  Biso   1.000  C
  C71      1.0000 0.79410  0.33320  0.64760  Biso   1.000  C
  C72      1.0000 0.20590  0.66680  0.14760  Biso   1.000  C
  H57      1.0000 0.74150  0.82580  0.07780  Biso   1.000  H
  H58      1.0000 0.25850  0.17420  0.57780  Biso   1.000  H
  H59      1.0000 0.75850  0.32580  0.57780  Biso   1.000  H
  H60      1.0000 0.24150  0.67420  0.07780  Biso   1.000  H
  H61      1.0000 0.65050  0.85440  0.12350  Biso   1.000  H
  H62      1.0000 0.34950  0.14560  0.62350  Biso   1.000  H
  H63      1.0000 0.84950  0.35440  0.62350  Biso   1.000  H
  H64      1.0000 0.15050  0.64560  0.12350  Biso   1.000  H
  H65      1.0000 0.69880  0.77990  0.18770  Biso   1.000  H
  H66      1.0000 0.30120  0.22010  0.68770  Biso   1.000  H
  H67      1.0000 0.80120  0.27990  0.68770  Biso   1.000  H
  H68      1.0000 0.19880  0.72010  0.18770  Biso   1.000  H
  C73      1.0000 0.54620  0.16870  0.11080  Biso   1.000  C
  C74      1.0000 0.45380  0.83130  0.61080  Biso   1.000  C
  C75      1.0000 0.95380  0.66870  0.61080  Biso   1.000  C
  C76      1.0000 0.04620  0.33130  0.11080  Biso   1.000  C
  H69      1.0000 0.50960  0.21080  0.14630  Biso   1.000  H
  H70      1.0000 0.49040  0.78920  0.64630  Biso   1.000  H
  H71      1.0000 0.99040  0.71080  0.64630  Biso   1.000  H
  H72      1.0000 0.00960  0.28920  0.14630  Biso   1.000  H
  H73      1.0000 0.51830  0.11470  0.11420  Biso   1.000  H
  H74      1.0000 0.48170  0.88530  0.61420  Biso   1.000  H
  H75      1.0000 0.98170  0.61470  0.61420  Biso   1.000  H
  H76      1.0000 0.01830  0.38530  0.11420  Biso   1.000  H
  H77      1.0000 0.55740  0.18330  0.02840  Biso   1.000  H
  H78      1.0000 0.44260  0.81670  0.52840  Biso   1.000  H
  H79      1.0000 0.94260  0.68330  0.52840  Biso   1.000  H
  H80      1.0000 0.05740  0.31670  0.02840  Biso   1.000  H
  C77      1.0000 0.48635  0.00600  0.77310  Biso   1.000  C
  C78      1.0000 0.51365  0.99400  0.27310  Biso   1.000  C
  C79      1.0000 0.01365  0.50600  0.27310  Biso   1.000  C
  C80      1.0000 0.98635  0.49400  0.77310  Biso   1.000  C
  C81      1.0000 0.57425  0.03906  0.77790  Biso   1.000  C
  C82      1.0000 0.42575  0.96094  0.27790  Biso   1.000  C
  C83      1.0000 0.92575  0.53906  0.27790  Biso   1.000  C
  C84      1.0000 0.07425  0.46094  0.77790  Biso   1.000  C
  C85      1.0000 0.75490  0.06700  0.99440  Biso   1.000  C
  C86      1.0000 0.24510  0.93300  0.49440  Biso   1.000  C
  C87      1.0000 0.74510  0.56700  0.49440  Biso   1.000  C
  C88      1.0000 0.25490  0.43300  0.99440  Biso   1.000  C
  C89      1.0000 0.70450  0.06630  0.88120  Biso   1.000  C
  C90      1.0000 0.29550  0.93370  0.38120  Biso   1.000  C
  C91      1.0000 0.79550  0.56630  0.38120  Biso   1.000  C
  C92      1.0000 0.20450  0.43370  0.88120  Biso   1.000  C
  C93      1.0000 0.62130  0.03730  0.88140  Biso   1.000  C
  C94      1.0000 0.37870  0.96270  0.38140  Biso   1.000  C
  C95      1.0000 0.87870  0.53730  0.38140  Biso   1.000  C
  C96      1.0000 0.12130  0.46270  0.88140  Biso   1.000  C
  H81      1.0000 0.59700  0.01650  0.95200  Biso   1.000  H
  H82      1.0000 0.40300  0.98350  0.45200  Biso   1.000  H
  H83      1.0000 0.90300  0.51650  0.45200  Biso   1.000  H
  H84      1.0000 0.09700  0.48350  0.95200  Biso   1.000  H
  C97      1.0000 0.73640  0.10660  0.55390  Biso   1.000  C
  C98      1.0000 0.26360  0.89340  0.05390  Biso   1.000  C
  C99      1.0000 0.76360  0.60660  0.05390  Biso   1.000  C
  C100     1.0000 0.23640  0.39340  0.55390  Biso   1.000  C
  C101     1.0000 0.69500  0.09020  0.67160  Biso   1.000  C
  C102     1.0000 0.30500  0.90980  0.17160  Biso   1.000  C
  C103     1.0000 0.80500  0.59020  0.17160  Biso   1.000  C
  C104     1.0000 0.19500  0.40980  0.67160  Biso   1.000  C
  C105     1.0000 0.74137  0.09122  0.77600  Biso   1.000  C
  C106     1.0000 0.25863  0.90878  0.27600  Biso   1.000  C
  C107     1.0000 0.75863  0.59122  0.27600  Biso   1.000  C
  C108     1.0000 0.24137  0.40878  0.77600  Biso   1.000  C
  H85      1.0000 0.79850  0.10900  0.77520  Biso   1.000  H
  H86      1.0000 0.20150  0.89100  0.27520  Biso   1.000  H
  H87      1.0000 0.70150  0.60900  0.27520  Biso   1.000  H
  H88      1.0000 0.29850  0.39100  0.77520  Biso   1.000  H
  C109     1.0000 0.61060  0.06660  0.67400  Biso   1.000  C
  C110     1.0000 0.38940  0.93340  0.17400  Biso   1.000  C
  C111     1.0000 0.88940  0.56660  0.17400  Biso   1.000  C
  C112     1.0000 0.11060  0.43340  0.67400  Biso   1.000  C
  H89      1.0000 0.57780  0.06930  0.60400  Biso   1.000  H
  H90      1.0000 0.42220  0.93070  0.10400  Biso   1.000  H
  H91      1.0000 0.92220  0.56930  0.10400  Biso   1.000  H
  H92      1.0000 0.07780  0.43070  0.60400  Biso   1.000  H
  O45      1.0000 0.94680  0.11570  0.16380  Biso   1.000  O
  O46      1.0000 0.05320  0.88430  0.66380  Biso   1.000  O
  O47      1.0000 0.55320  0.61570  0.66380  Biso   1.000  O
  O48      1.0000 0.44680  0.38430  0.16380  Biso   1.000  O
  O49      1.0000 0.69720  0.76710  0.43360  Biso   1.000  O
  O50      1.0000 0.30280  0.23290  0.93360  Biso   1.000  O
  O51      1.0000 0.80280  0.26710  0.93360  Biso   1.000  O
  O52      1.0000 0.19720  0.73290  0.43360  Biso   1.000  O
  H93      1.0000 0.63900  0.93900  0.48500  Biso   1.000  H
  H94      1.0000 0.36100  0.06100  0.98500  Biso   1.000  H
  H95      1.0000 0.86100  0.43900  0.98500  Biso   1.000  H
  H96      1.0000 0.13900  0.56100  0.48500  Biso   1.000  H
  H97      1.0000 0.65700  0.86900  0.43100  Biso   1.000  H
  H98      1.0000 0.34300  0.13100  0.93100  Biso   1.000  H
  H99      1.0000 0.84300  0.36900  0.93100  Biso   1.000  H
  H100     1.0000 0.15700  0.63100  0.43100  Biso   1.000  H
  H101     1.0000 0.90100  0.10800  0.12100  Biso   1.000  H
  H102     1.0000 0.09900  0.89200  0.62100  Biso   1.000  H
  H103     1.0000 0.59900  0.60800  0.62100  Biso   1.000  H
  H104     1.0000 0.40100  0.39200  0.12100  Biso   1.000  H
  H105     1.0000 0.97900  0.09100  0.14500  Biso   1.000  H
  H106     1.0000 0.02100  0.90900  0.64500  Biso   1.000  H
  H107     1.0000 0.52100  0.59100  0.64500  Biso   1.000  H
  H108     1.0000 0.47900  0.40900  0.14500  Biso   1.000  H
  H109     1.0000 0.67900  0.71500  0.46000  Biso   1.000  H
  H110     1.0000 0.32100  0.28500  0.96000  Biso   1.000  H
  H111     1.0000 0.82100  0.21500  0.96000  Biso   1.000  H
  H112     1.0000 0.17900  0.78500  0.46000  Biso   1.000  H
  H113     1.0000 0.74200  0.77500  0.44800  Biso   1.000  H
  H114     1.0000 0.25800  0.22500  0.94800  Biso   1.000  H
  H115     1.0000 0.75800  0.27500  0.94800  Biso   1.000  H
  H116     1.0000 0.24200  0.72500  0.44800  Biso   1.000  H
