data_image0
_cell_length_a       12.785
_cell_length_b       12.556
_cell_length_c       6.947
_cell_angle_alpha    90
_cell_angle_beta     99.687
_cell_angle_gamma    90

_symmetry_space_group_name_H-M    "P 1"
_symmetry_int_tables_number       1

loop_
  _symmetry_equiv_pos_as_xyz
  'x, y, z'

loop_
  _atom_site_label
  _atom_site_occupancy
  _atom_site_fract_x
  _atom_site_fract_y
  _atom_site_fract_z
  _atom_site_thermal_displace_type
  _atom_site_B_iso_or_equiv
  _atom_site_type_symbol
  Cu1      1.0000 0.25000  0.75000  0.00000  Biso   1.000  Cu
  Cu2      1.0000 0.75000  0.25000  0.00000  Biso   1.000  Cu
  Cu3      1.0000 0.25000  0.25000  0.50000  Biso   1.000  Cu
  Cu4      1.0000 0.75000  0.75000  0.50000  Biso   1.000  Cu
  O1       1.0000 0.36642  0.85409  0.02130  Biso   1.000  O
  O2       1.0000 0.86642  0.35409  0.02130  Biso   1.000  O
  O3       1.0000 0.36642  0.14591  0.52130  Biso   1.000  O
  O4       1.0000 0.86642  0.64591  0.52130  Biso   1.000  O
  O5       1.0000 0.63358  0.14591  0.97870  Biso   1.000  O
  O6       1.0000 0.13358  0.64591  0.97870  Biso   1.000  O
  O7       1.0000 0.63358  0.85409  0.47870  Biso   1.000  O
  O8       1.0000 0.13358  0.35409  0.47870  Biso   1.000  O
  O9       1.0000 0.26799  0.98862  0.87640  Biso   1.000  O
  O10      1.0000 0.76799  0.48862  0.87640  Biso   1.000  O
  O11      1.0000 0.26799  0.01138  0.37640  Biso   1.000  O
  O12      1.0000 0.76799  0.51138  0.37640  Biso   1.000  O
  O13      1.0000 0.73201  0.01138  0.12360  Biso   1.000  O
  O14      1.0000 0.23201  0.51138  0.12360  Biso   1.000  O
  O15      1.0000 0.73201  0.98862  0.62360  Biso   1.000  O
  O16      1.0000 0.23201  0.48862  0.62360  Biso   1.000  O
  N1       1.0000 0.25125  0.77430  0.29170  Biso   1.000  N
  N2       1.0000 0.75125  0.27430  0.29170  Biso   1.000  N
  N3       1.0000 0.25125  0.22570  0.79170  Biso   1.000  N
  N4       1.0000 0.75125  0.72570  0.79170  Biso   1.000  N
  N5       1.0000 0.74875  0.22570  0.70830  Biso   1.000  N
  N6       1.0000 0.24875  0.72570  0.70830  Biso   1.000  N
  N7       1.0000 0.74875  0.77430  0.20830  Biso   1.000  N
  N8       1.0000 0.24875  0.27430  0.20830  Biso   1.000  N
  H1       1.0000 0.26690  0.84450  0.31260  Biso   1.000  H
  H2       1.0000 0.76690  0.34450  0.31260  Biso   1.000  H
  H3       1.0000 0.26690  0.15550  0.81260  Biso   1.000  H
  H4       1.0000 0.76690  0.65550  0.81260  Biso   1.000  H
  H5       1.0000 0.73310  0.15550  0.68740  Biso   1.000  H
  H6       1.0000 0.23310  0.65550  0.68740  Biso   1.000  H
  H7       1.0000 0.73310  0.84450  0.18740  Biso   1.000  H
  H8       1.0000 0.23310  0.34450  0.18740  Biso   1.000  H
  C1       1.0000 0.15070  0.75660  0.36870  Biso   1.000  C
  C2       1.0000 0.65070  0.25660  0.36870  Biso   1.000  C
  C3       1.0000 0.15070  0.24340  0.86870  Biso   1.000  C
  C4       1.0000 0.65070  0.74340  0.86870  Biso   1.000  C
  C5       1.0000 0.84930  0.24340  0.63130  Biso   1.000  C
  C6       1.0000 0.34930  0.74340  0.63130  Biso   1.000  C
  C7       1.0000 0.84930  0.75660  0.13130  Biso   1.000  C
  C8       1.0000 0.34930  0.25660  0.13130  Biso   1.000  C
  H9       1.0000 0.13030  0.68240  0.35070  Biso   1.000  H
  H10      1.0000 0.63030  0.18240  0.35070  Biso   1.000  H
  H11      1.0000 0.13030  0.31760  0.85070  Biso   1.000  H
  H12      1.0000 0.63030  0.81760  0.85070  Biso   1.000  H
  H13      1.0000 0.86970  0.31760  0.64930  Biso   1.000  H
  H14      1.0000 0.36970  0.81760  0.64930  Biso   1.000  H
  H15      1.0000 0.86970  0.68240  0.14930  Biso   1.000  H
  H16      1.0000 0.36970  0.18240  0.14930  Biso   1.000  H
  H17      1.0000 0.09500  0.79950  0.29440  Biso   1.000  H
  H18      1.0000 0.59500  0.29950  0.29440  Biso   1.000  H
  H19      1.0000 0.09500  0.20050  0.79440  Biso   1.000  H
  H20      1.0000 0.59500  0.70050  0.79440  Biso   1.000  H
  H21      1.0000 0.90500  0.20050  0.70560  Biso   1.000  H
  H22      1.0000 0.40500  0.70050  0.70560  Biso   1.000  H
  H23      1.0000 0.90500  0.79950  0.20560  Biso   1.000  H
  H24      1.0000 0.40500  0.29950  0.20560  Biso   1.000  H
  C9       1.0000 0.45260  0.01410  0.95450  Biso   1.000  C
  C10      1.0000 0.95260  0.51410  0.95450  Biso   1.000  C
  C11      1.0000 0.45260  0.98590  0.45450  Biso   1.000  C
  C12      1.0000 0.95260  0.48590  0.45450  Biso   1.000  C
  C13      1.0000 0.54740  0.98590  0.04550  Biso   1.000  C
  C14      1.0000 0.04740  0.48590  0.04550  Biso   1.000  C
  C15      1.0000 0.54740  0.01410  0.54550  Biso   1.000  C
  C16      1.0000 0.04740  0.51410  0.54550  Biso   1.000  C
  H25      1.0000 0.44600  0.07890  0.88870  Biso   1.000  H
  H26      1.0000 0.94600  0.57890  0.88870  Biso   1.000  H
  H27      1.0000 0.44600  0.92110  0.38870  Biso   1.000  H
  H28      1.0000 0.94600  0.42110  0.38870  Biso   1.000  H
  H29      1.0000 0.55400  0.92110  0.11130  Biso   1.000  H
  H30      1.0000 0.05400  0.42110  0.11130  Biso   1.000  H
  H31      1.0000 0.55400  0.07890  0.61130  Biso   1.000  H
  H32      1.0000 0.05400  0.57890  0.61130  Biso   1.000  H
  C17      1.0000 0.35410  0.94760  0.95110  Biso   1.000  C
  C18      1.0000 0.85410  0.44760  0.95110  Biso   1.000  C
  C19      1.0000 0.35410  0.05240  0.45110  Biso   1.000  C
  C20      1.0000 0.85410  0.55240  0.45110  Biso   1.000  C
  C21      1.0000 0.64590  0.05240  0.04890  Biso   1.000  C
  C22      1.0000 0.14590  0.55240  0.04890  Biso   1.000  C
  C23      1.0000 0.64590  0.94760  0.54890  Biso   1.000  C
  C24      1.0000 0.14590  0.44760  0.54890  Biso   1.000  C
  C25      1.0000 0.33920  0.71500  0.41490  Biso   1.000  C
  C26      1.0000 0.83920  0.21500  0.41490  Biso   1.000  C
  C27      1.0000 0.33920  0.28500  0.91490  Biso   1.000  C
  C28      1.0000 0.83920  0.78500  0.91490  Biso   1.000  C
  C29      1.0000 0.66080  0.28500  0.58510  Biso   1.000  C
  C30      1.0000 0.16080  0.78500  0.58510  Biso   1.000  C
  C31      1.0000 0.66080  0.71500  0.08510  Biso   1.000  C
  C32      1.0000 0.16080  0.21500  0.08510  Biso   1.000  C
  H33      1.0000 0.40550  0.73130  0.37080  Biso   1.000  H
  H34      1.0000 0.90550  0.23130  0.37080  Biso   1.000  H
  H35      1.0000 0.40550  0.26870  0.87080  Biso   1.000  H
  H36      1.0000 0.90550  0.76870  0.87080  Biso   1.000  H
  H37      1.0000 0.59450  0.26870  0.62920  Biso   1.000  H
  H38      1.0000 0.09450  0.76870  0.62920  Biso   1.000  H
  H39      1.0000 0.59450  0.73130  0.12920  Biso   1.000  H
  H40      1.0000 0.09450  0.23130  0.12920  Biso   1.000  H
  H41      1.0000 0.32660  0.63910  0.39860  Biso   1.000  H
  H42      1.0000 0.82660  0.13910  0.39860  Biso   1.000  H
  H43      1.0000 0.32660  0.36090  0.89860  Biso   1.000  H
  H44      1.0000 0.82660  0.86090  0.89860  Biso   1.000  H
  H45      1.0000 0.67340  0.36090  0.60140  Biso   1.000  H
  H46      1.0000 0.17340  0.86090  0.60140  Biso   1.000  H
  H47      1.0000 0.67340  0.63910  0.10140  Biso   1.000  H
  H48      1.0000 0.17340  0.13910  0.10140  Biso   1.000  H
  O17      1.0000 0.42740  0.58390  0.06110  Biso   1.000  O
  O18      1.0000 0.92740  0.08390  0.06110  Biso   1.000  O
  O19      1.0000 0.42740  0.41610  0.56110  Biso   1.000  O
  O20      1.0000 0.92740  0.91610  0.56110  Biso   1.000  O
  O21      1.0000 0.57260  0.41610  0.93890  Biso   1.000  O
  O22      1.0000 0.07260  0.91610  0.93890  Biso   1.000  O
  O23      1.0000 0.57260  0.58390  0.43890  Biso   1.000  O
  O24      1.0000 0.07260  0.08390  0.43890  Biso   1.000  O
  H49      1.0000 0.45600  0.53200  0.16300  Biso   1.000  H
  H50      1.0000 0.95600  0.03200  0.16300  Biso   1.000  H
  H51      1.0000 0.45600  0.46800  0.66300  Biso   1.000  H
  H52      1.0000 0.95600  0.96800  0.66300  Biso   1.000  H
  H53      1.0000 0.54400  0.46800  0.83700  Biso   1.000  H
  H54      1.0000 0.04400  0.96800  0.83700  Biso   1.000  H
  H55      1.0000 0.54400  0.53200  0.33700  Biso   1.000  H
  H56      1.0000 0.04400  0.03200  0.33700  Biso   1.000  H
  H57      1.0000 0.35500  0.56200  0.03000  Biso   1.000  H
  H58      1.0000 0.85500  0.06200  0.03000  Biso   1.000  H
  H59      1.0000 0.35500  0.43800  0.53000  Biso   1.000  H
  H60      1.0000 0.85500  0.93800  0.53000  Biso   1.000  H
  H61      1.0000 0.64500  0.43800  0.97000  Biso   1.000  H
  H62      1.0000 0.14500  0.93800  0.97000  Biso   1.000  H
  H63      1.0000 0.64500  0.56200  0.47000  Biso   1.000  H
  H64      1.0000 0.14500  0.06200  0.47000  Biso   1.000  H
