data_image0
_cell_length_a       13.2745
_cell_length_b       15.1858
_cell_length_c       16.9909
_cell_angle_alpha    90
_cell_angle_beta     90
_cell_angle_gamma    90

_symmetry_space_group_name_H-M    "P 1"
_symmetry_int_tables_number       1

loop_
  _symmetry_equiv_pos_as_xyz
  'x, y, z'

loop_
  _atom_site_label
  _atom_site_occupancy
  _atom_site_fract_x
  _atom_site_fract_y
  _atom_site_fract_z
  _atom_site_thermal_displace_type
  _atom_site_B_iso_or_equiv
  _atom_site_type_symbol
  Gd1      1.0000 0.58593  0.09478  0.40872  Biso   1.000  Gd
  Gd2      1.0000 0.91407  0.90522  0.90872  Biso   1.000  Gd
  Gd3      1.0000 0.08594  0.40522  0.59128  Biso   1.000  Gd
  Gd4      1.0000 0.41407  0.59478  0.09128  Biso   1.000  Gd
  Cu1      1.0000 0.79100  0.95005  0.40324  Biso   1.000  Cu
  Cu2      1.0000 0.70900  0.04995  0.90324  Biso   1.000  Cu
  Cu3      1.0000 0.29100  0.54995  0.59676  Biso   1.000  Cu
  Cu4      1.0000 0.20900  0.45005  0.09676  Biso   1.000  Cu
  Cr1      1.0000 0.16036  0.10286  0.39886  Biso   1.000  Cr
  Cr2      1.0000 0.33964  0.89714  0.89886  Biso   1.000  Cr
  Cr3      1.0000 0.66036  0.39714  0.60114  Biso   1.000  Cr
  Cr4      1.0000 0.83964  0.60286  0.10114  Biso   1.000  Cr
  N1       1.0000 0.86250  0.89090  0.31563  Biso   1.000  N
  N2       1.0000 0.63750  0.10910  0.81563  Biso   1.000  N
  N3       1.0000 0.36250  0.60910  0.68437  Biso   1.000  N
  N4       1.0000 0.13750  0.39090  0.18437  Biso   1.000  N
  N5       1.0000 0.86930  0.89260  0.48753  Biso   1.000  N
  N6       1.0000 0.63070  0.10740  0.98753  Biso   1.000  N
  N7       1.0000 0.36930  0.60740  0.51247  Biso   1.000  N
  N8       1.0000 0.13070  0.39260  0.01247  Biso   1.000  N
  N9       1.0000 0.40080  0.12390  0.41350  Biso   1.000  N
  N10      1.0000 0.09920  0.87610  0.91350  Biso   1.000  N
  N11      1.0000 0.90080  0.37610  0.58650  Biso   1.000  N
  N12      1.0000 0.59920  0.62390  0.08650  Biso   1.000  N
  N13      1.0000 0.17980  0.00950  0.56750  Biso   1.000  N
  N14      1.0000 0.32020  0.99050  0.06750  Biso   1.000  N
  N15      1.0000 0.67980  0.49050  0.43250  Biso   1.000  N
  N16      1.0000 0.82020  0.50950  0.93250  Biso   1.000  N
  N17      1.0000 0.60800  0.21940  0.50600  Biso   1.000  N
  N18      1.0000 0.89200  0.78060  0.00600  Biso   1.000  N
  N19      1.0000 0.10800  0.28060  0.49400  Biso   1.000  N
  N20      1.0000 0.39200  0.71940  0.99400  Biso   1.000  N
  N21      1.0000 0.92040  0.07160  0.39352  Biso   1.000  N
  N22      1.0000 0.57960  0.92840  0.89352  Biso   1.000  N
  N23      1.0000 0.42040  0.42840  0.60648  Biso   1.000  N
  N24      1.0000 0.07960  0.57160  0.10648  Biso   1.000  N
  N25      1.0000 0.16710  0.17820  0.22310  Biso   1.000  N
  N26      1.0000 0.33290  0.82180  0.72310  Biso   1.000  N
  N27      1.0000 0.66710  0.32180  0.77690  Biso   1.000  N
  N28      1.0000 0.83290  0.67820  0.27690  Biso   1.000  N
  N29      1.0000 0.21200  0.92020  0.31130  Biso   1.000  N
  N30      1.0000 0.28800  0.07980  0.81130  Biso   1.000  N
  N31      1.0000 0.71200  0.57980  0.68870  Biso   1.000  N
  N32      1.0000 0.78800  0.42020  0.18870  Biso   1.000  N
  O1       1.0000 0.69300  0.00344  0.33096  Biso   1.000  O
  O2       1.0000 0.80700  0.99656  0.83096  Biso   1.000  O
  O3       1.0000 0.19300  0.49656  0.66904  Biso   1.000  O
  O4       1.0000 0.30700  0.50344  0.16904  Biso   1.000  O
  O5       1.0000 0.69950  0.00544  0.48142  Biso   1.000  O
  O6       1.0000 0.80050  0.99456  0.98142  Biso   1.000  O
  O7       1.0000 0.19950  0.49456  0.51858  Biso   1.000  O
  O8       1.0000 0.30050  0.50544  0.01858  Biso   1.000  O
  O9       1.0000 0.52830  0.06616  0.26678  Biso   1.000  O
  O10      1.0000 0.97170  0.93384  0.76678  Biso   1.000  O
  O11      1.0000 0.02830  0.43384  0.73322  Biso   1.000  O
  O12      1.0000 0.47170  0.56616  0.23322  Biso   1.000  O
  O13      1.0000 0.53010  0.05420  0.54821  Biso   1.000  O
  O14      1.0000 0.96990  0.94580  0.04821  Biso   1.000  O
  O15      1.0000 0.03010  0.44580  0.45179  Biso   1.000  O
  O16      1.0000 0.46990  0.55420  0.95179  Biso   1.000  O
  C1       1.0000 0.96710  0.85950  0.32440  Biso   1.000  C
  C2       1.0000 0.53290  0.14050  0.82440  Biso   1.000  C
  C3       1.0000 0.46710  0.64050  0.67560  Biso   1.000  C
  C4       1.0000 0.03290  0.35950  0.17560  Biso   1.000  C
  H1       1.0000 0.01330  0.91070  0.32320  Biso   1.000  H
  H2       1.0000 0.48670  0.08930  0.82320  Biso   1.000  H
  H3       1.0000 0.51330  0.58930  0.67680  Biso   1.000  H
  H4       1.0000 0.98670  0.41070  0.17680  Biso   1.000  H
  H5       1.0000 0.98410  0.82110  0.27920  Biso   1.000  H
  H6       1.0000 0.51590  0.17890  0.77920  Biso   1.000  H
  H7       1.0000 0.48410  0.67890  0.72080  Biso   1.000  H
  H8       1.0000 0.01590  0.32110  0.22080  Biso   1.000  H
  C5       1.0000 0.98360  0.80850  0.40040  Biso   1.000  C
  C6       1.0000 0.51640  0.19150  0.90040  Biso   1.000  C
  C7       1.0000 0.48360  0.69150  0.59960  Biso   1.000  C
  C8       1.0000 0.01640  0.30850  0.09960  Biso   1.000  C
  H9       1.0000 0.93400  0.76000  0.40300  Biso   1.000  H
  H10      1.0000 0.56600  0.24000  0.90300  Biso   1.000  H
  H11      1.0000 0.43400  0.74000  0.59700  Biso   1.000  H
  H12      1.0000 0.06600  0.26000  0.09700  Biso   1.000  H
  H13      1.0000 0.05160  0.78170  0.39900  Biso   1.000  H
  H14      1.0000 0.44840  0.21830  0.89900  Biso   1.000  H
  H15      1.0000 0.55160  0.71830  0.60100  Biso   1.000  H
  H16      1.0000 0.94840  0.28170  0.10100  Biso   1.000  H
  C9       1.0000 0.97460  0.86270  0.47360  Biso   1.000  C
  C10      1.0000 0.52540  0.13730  0.97360  Biso   1.000  C
  C11      1.0000 0.47460  0.63730  0.52640  Biso   1.000  C
  C12      1.0000 0.02540  0.36270  0.02640  Biso   1.000  C
  H17      1.0000 0.99750  0.82750  0.51920  Biso   1.000  H
  H18      1.0000 0.50250  0.17250  0.01920  Biso   1.000  H
  H19      1.0000 0.49750  0.67250  0.48080  Biso   1.000  H
  H20      1.0000 0.00250  0.32750  0.98080  Biso   1.000  H
  H21      1.0000 0.01910  0.91480  0.46920  Biso   1.000  H
  H22      1.0000 0.48090  0.08520  0.96920  Biso   1.000  H
  H23      1.0000 0.51910  0.58520  0.53080  Biso   1.000  H
  H24      1.0000 0.98090  0.41480  0.03080  Biso   1.000  H
  C13      1.0000 0.83160  0.87560  0.55530  Biso   1.000  C
  C14      1.0000 0.66840  0.12440  0.05530  Biso   1.000  C
  C15      1.0000 0.33160  0.62440  0.44470  Biso   1.000  C
  C16      1.0000 0.16840  0.37560  0.94470  Biso   1.000  C
  H25      1.0000 0.87260  0.84200  0.58990  Biso   1.000  H
  H26      1.0000 0.62740  0.15800  0.08990  Biso   1.000  H
  H27      1.0000 0.37260  0.65800  0.41010  Biso   1.000  H
  H28      1.0000 0.12740  0.34200  0.91010  Biso   1.000  H
  C17      1.0000 0.73440  0.90150  0.58520  Biso   1.000  C
  C18      1.0000 0.76560  0.09850  0.08520  Biso   1.000  C
  C19      1.0000 0.23440  0.59850  0.41480  Biso   1.000  C
  C20      1.0000 0.26560  0.40150  0.91480  Biso   1.000  C
  C21      1.0000 0.70280  0.86200  0.65630  Biso   1.000  C
  C22      1.0000 0.79720  0.13800  0.15630  Biso   1.000  C
  C23      1.0000 0.20280  0.63800  0.34370  Biso   1.000  C
  C24      1.0000 0.29720  0.36200  0.84370  Biso   1.000  C
  H29      1.0000 0.74470  0.81970  0.68130  Biso   1.000  H
  H30      1.0000 0.75530  0.18030  0.18130  Biso   1.000  H
  H31      1.0000 0.24470  0.68030  0.31870  Biso   1.000  H
  H32      1.0000 0.25530  0.31970  0.81870  Biso   1.000  H
  C25      1.0000 0.61210  0.88420  0.68960  Biso   1.000  C
  C26      1.0000 0.88790  0.11580  0.18960  Biso   1.000  C
  C27      1.0000 0.11210  0.61580  0.31040  Biso   1.000  C
  C28      1.0000 0.38790  0.38420  0.81040  Biso   1.000  C
  H33      1.0000 0.59060  0.85610  0.73660  Biso   1.000  H
  H34      1.0000 0.90940  0.14390  0.23660  Biso   1.000  H
  H35      1.0000 0.09060  0.64390  0.26340  Biso   1.000  H
  H36      1.0000 0.40940  0.35610  0.76340  Biso   1.000  H
  C29      1.0000 0.55210  0.94750  0.65470  Biso   1.000  C
  C30      1.0000 0.94790  0.05250  0.15470  Biso   1.000  C
  C31      1.0000 0.05210  0.55250  0.34530  Biso   1.000  C
  C32      1.0000 0.44790  0.44750  0.84530  Biso   1.000  C
  H37      1.0000 0.48950  0.96310  0.67780  Biso   1.000  H
  H38      1.0000 0.01050  0.03690  0.17780  Biso   1.000  H
  H39      1.0000 0.98950  0.53690  0.32220  Biso   1.000  H
  H40      1.0000 0.51050  0.46310  0.82220  Biso   1.000  H
  C33      1.0000 0.58380  0.98830  0.58530  Biso   1.000  C
  C34      1.0000 0.91620  0.01170  0.08530  Biso   1.000  C
  C35      1.0000 0.08380  0.51170  0.41470  Biso   1.000  C
  C36      1.0000 0.41620  0.48830  0.91470  Biso   1.000  C
  C37      1.0000 0.67450  0.96560  0.54870  Biso   1.000  C
  C38      1.0000 0.82550  0.03440  0.04870  Biso   1.000  C
  C39      1.0000 0.17450  0.53440  0.45130  Biso   1.000  C
  C40      1.0000 0.32550  0.46560  0.95130  Biso   1.000  C
  C41      1.0000 0.66690  0.97100  0.26080  Biso   1.000  C
  C42      1.0000 0.83310  0.02900  0.76080  Biso   1.000  C
  C43      1.0000 0.16690  0.52900  0.73920  Biso   1.000  C
  C44      1.0000 0.33310  0.47100  0.23920  Biso   1.000  C
  C45      1.0000 0.57840  0.00060  0.22530  Biso   1.000  C
  C46      1.0000 0.92160  0.99940  0.72530  Biso   1.000  C
  C47      1.0000 0.07840  0.49940  0.77470  Biso   1.000  C
  C48      1.0000 0.42160  0.50060  0.27470  Biso   1.000  C
  C49      1.0000 0.54550  0.96760  0.15420  Biso   1.000  C
  C50      1.0000 0.95450  0.03240  0.65420  Biso   1.000  C
  C51      1.0000 0.04550  0.53240  0.84580  Biso   1.000  C
  C52      1.0000 0.45450  0.46760  0.34580  Biso   1.000  C
  H41      1.0000 0.48360  0.98740  0.13250  Biso   1.000  H
  H42      1.0000 0.01640  0.01260  0.63250  Biso   1.000  H
  H43      1.0000 0.98360  0.51260  0.86750  Biso   1.000  H
  H44      1.0000 0.51640  0.48740  0.36750  Biso   1.000  H
  C53      1.0000 0.60330  0.90490  0.11400  Biso   1.000  C
  C54      1.0000 0.89670  0.09510  0.61400  Biso   1.000  C
  C55      1.0000 0.10330  0.59510  0.88600  Biso   1.000  C
  C56      1.0000 0.39670  0.40490  0.38600  Biso   1.000  C
  H45      1.0000 0.58080  0.88190  0.06500  Biso   1.000  H
  H46      1.0000 0.91920  0.11810  0.56500  Biso   1.000  H
  H47      1.0000 0.08080  0.61810  0.93500  Biso   1.000  H
  H48      1.0000 0.41920  0.38190  0.43500  Biso   1.000  H
  C57      1.0000 0.69310  0.87680  0.14610  Biso   1.000  C
  C58      1.0000 0.80690  0.12320  0.64610  Biso   1.000  C
  C59      1.0000 0.19310  0.62320  0.85390  Biso   1.000  C
  C60      1.0000 0.30690  0.37680  0.35390  Biso   1.000  C
  H49      1.0000 0.73350  0.83570  0.11830  Biso   1.000  H
  H50      1.0000 0.76650  0.16430  0.61830  Biso   1.000  H
  H51      1.0000 0.23350  0.66430  0.88170  Biso   1.000  H
  H52      1.0000 0.26650  0.33570  0.38170  Biso   1.000  H
  C61      1.0000 0.72560  0.90840  0.21990  Biso   1.000  C
  C62      1.0000 0.77440  0.09160  0.71990  Biso   1.000  C
  C63      1.0000 0.22560  0.59160  0.78010  Biso   1.000  C
  C64      1.0000 0.27440  0.40840  0.28010  Biso   1.000  C
  C65      1.0000 0.82400  0.87910  0.24720  Biso   1.000  C
  C66      1.0000 0.67600  0.12090  0.74720  Biso   1.000  C
  C67      1.0000 0.32400  0.62090  0.75280  Biso   1.000  C
  C68      1.0000 0.17600  0.37910  0.25280  Biso   1.000  C
  H53      1.0000 0.86400  0.84780  0.21030  Biso   1.000  H
  H54      1.0000 0.63600  0.15220  0.71030  Biso   1.000  H
  H55      1.0000 0.36400  0.65220  0.78970  Biso   1.000  H
  H56      1.0000 0.13600  0.34780  0.28970  Biso   1.000  H
  C69      1.0000 0.44580  0.09140  0.58990  Biso   1.000  C
  C70      1.0000 0.05420  0.90860  0.08990  Biso   1.000  C
  C71      1.0000 0.94580  0.40860  0.41010  Biso   1.000  C
  C72      1.0000 0.55420  0.59140  0.91010  Biso   1.000  C
  H57      1.0000 0.39110  0.04820  0.59230  Biso   1.000  H
  H58      1.0000 0.10890  0.95180  0.09230  Biso   1.000  H
  H59      1.0000 0.89110  0.45180  0.40770  Biso   1.000  H
  H60      1.0000 0.60890  0.54820  0.90770  Biso   1.000  H
  H61      1.0000 0.42230  0.14430  0.56240  Biso   1.000  H
  H62      1.0000 0.07770  0.85570  0.06240  Biso   1.000  H
  H63      1.0000 0.92230  0.35570  0.43760  Biso   1.000  H
  H64      1.0000 0.57770  0.64430  0.93760  Biso   1.000  H
  H65      1.0000 0.46660  0.10710  0.64350  Biso   1.000  H
  H66      1.0000 0.03340  0.89290  0.14350  Biso   1.000  H
  H67      1.0000 0.96660  0.39290  0.35650  Biso   1.000  H
  H68      1.0000 0.53340  0.60710  0.85650  Biso   1.000  H
  C73      1.0000 0.43760  0.09960  0.23020  Biso   1.000  C
  C74      1.0000 0.06240  0.90040  0.73020  Biso   1.000  C
  C75      1.0000 0.93760  0.40040  0.76980  Biso   1.000  C
  C76      1.0000 0.56240  0.59960  0.26980  Biso   1.000  C
  H69      1.0000 0.45290  0.11870  0.17640  Biso   1.000  H
  H70      1.0000 0.04710  0.88130  0.67640  Biso   1.000  H
  H71      1.0000 0.95290  0.38130  0.82360  Biso   1.000  H
  H72      1.0000 0.54710  0.61870  0.32360  Biso   1.000  H
  H73      1.0000 0.41210  0.14960  0.26070  Biso   1.000  H
  H74      1.0000 0.08790  0.85040  0.76070  Biso   1.000  H
  H75      1.0000 0.91210  0.35040  0.73930  Biso   1.000  H
  H76      1.0000 0.58790  0.64960  0.23930  Biso   1.000  H
  H77      1.0000 0.38660  0.05300  0.22870  Biso   1.000  H
  H78      1.0000 0.11340  0.94700  0.72870  Biso   1.000  H
  H79      1.0000 0.88660  0.44700  0.77130  Biso   1.000  H
  H80      1.0000 0.61340  0.55300  0.27130  Biso   1.000  H
  C77      1.0000 0.31560  0.12200  0.40860  Biso   1.000  C
  C78      1.0000 0.18440  0.87800  0.90860  Biso   1.000  C
  C79      1.0000 0.81560  0.37800  0.59140  Biso   1.000  C
  C80      1.0000 0.68440  0.62200  0.09140  Biso   1.000  C
  C81      1.0000 0.16960  0.04170  0.50690  Biso   1.000  C
  C82      1.0000 0.33040  0.95830  0.00690  Biso   1.000  C
  C83      1.0000 0.66960  0.45830  0.49310  Biso   1.000  C
  C84      1.0000 0.83040  0.54170  0.99310  Biso   1.000  C
  C85      1.0000 0.62800  0.28030  0.54290  Biso   1.000  C
  C86      1.0000 0.87200  0.71970  0.04290  Biso   1.000  C
  C87      1.0000 0.12800  0.21970  0.45710  Biso   1.000  C
  C88      1.0000 0.37200  0.78030  0.95710  Biso   1.000  C
  C89      1.0000 0.00590  0.08320  0.39480  Biso   1.000  C
  C90      1.0000 0.49410  0.91680  0.89480  Biso   1.000  C
  C91      1.0000 0.50590  0.41680  0.60520  Biso   1.000  C
  C92      1.0000 0.99410  0.58320  0.10520  Biso   1.000  C
  C93      1.0000 0.16190  0.15610  0.28750  Biso   1.000  C
  C94      1.0000 0.33810  0.84390  0.78750  Biso   1.000  C
  C95      1.0000 0.66190  0.34390  0.71250  Biso   1.000  C
  C96      1.0000 0.83810  0.65610  0.21250  Biso   1.000  C
  C97      1.0000 0.19160  0.98410  0.34320  Biso   1.000  C
  C98      1.0000 0.30840  0.01590  0.84320  Biso   1.000  C
  C99      1.0000 0.69160  0.51590  0.65680  Biso   1.000  C
  C100     1.0000 0.80840  0.48410  0.15680  Biso   1.000  C
  O17      1.0000 0.54940  0.23650  0.33853  Biso   1.000  O
  O18      1.0000 0.95060  0.76350  0.83853  Biso   1.000  O
  O19      1.0000 0.04940  0.26350  0.66147  Biso   1.000  O
  O20      1.0000 0.45060  0.73650  0.16147  Biso   1.000  O
  O21      1.0000 0.51270  0.94913  0.40626  Biso   1.000  O
  O22      1.0000 0.98730  0.05087  0.90626  Biso   1.000  O
  O23      1.0000 0.01270  0.55087  0.59374  Biso   1.000  O
  O24      1.0000 0.48730  0.44913  0.09374  Biso   1.000  O
  O25      1.0000 0.74090  0.17020  0.37750  Biso   1.000  O
  O26      1.0000 0.75910  0.82980  0.87750  Biso   1.000  O
  O27      1.0000 0.24090  0.32980  0.62250  Biso   1.000  O
  O28      1.0000 0.25910  0.67020  0.12250  Biso   1.000  O
  O29      1.0000 0.25380  0.83420  0.57360  Biso   1.000  O
  O30      1.0000 0.24620  0.16580  0.07360  Biso   1.000  O
  O31      1.0000 0.75380  0.66580  0.42640  Biso   1.000  O
  O32      1.0000 0.74620  0.33420  0.92640  Biso   1.000  O
  O33      1.0000 0.21860  0.15950  0.67182  Biso   1.000  O
  O34      1.0000 0.28140  0.84050  0.17182  Biso   1.000  O
  O35      1.0000 0.71860  0.34050  0.32818  Biso   1.000  O
  O36      1.0000 0.78140  0.65950  0.82818  Biso   1.000  O
  O37      1.0000 0.35210  0.84290  0.42920  Biso   1.000  O
  O38      1.0000 0.14790  0.15710  0.92920  Biso   1.000  O
  O39      1.0000 0.85210  0.65710  0.57080  Biso   1.000  O
  O40      1.0000 0.64790  0.34290  0.07080  Biso   1.000  O
  O41      1.0000 0.14930  0.68750  0.61210  Biso   1.000  O
  O42      1.0000 0.35070  0.31250  0.11210  Biso   1.000  O
  O43      1.0000 0.64930  0.81250  0.38790  Biso   1.000  O
  O44      1.0000 0.85070  0.18750  0.88790  Biso   1.000  O
