data_image0
_cell_length_a       12.4856
_cell_length_b       7.5314
_cell_length_c       12.7061
_cell_angle_alpha    90
_cell_angle_beta     98.516
_cell_angle_gamma    90

_symmetry_space_group_name_H-M    "P 1"
_symmetry_int_tables_number       1

loop_
  _symmetry_equiv_pos_as_xyz
  'x, y, z'

loop_
  _atom_site_label
  _atom_site_occupancy
  _atom_site_fract_x
  _atom_site_fract_y
  _atom_site_fract_z
  _atom_site_thermal_displace_type
  _atom_site_B_iso_or_equiv
  _atom_site_type_symbol
  Cu1      1.0000 0.78146  0.81599  0.56743  Biso   1.000  Cu
  Cu2      1.0000 0.71854  0.31599  0.93257  Biso   1.000  Cu
  Cu3      1.0000 0.21854  0.18401  0.43257  Biso   1.000  Cu
  Cu4      1.0000 0.28146  0.68401  0.06743  Biso   1.000  Cu
  O1       1.0000 0.88579  0.00949  0.60136  Biso   1.000  O
  O2       1.0000 0.61421  0.50949  0.89864  Biso   1.000  O
  O3       1.0000 0.11421  0.99051  0.39864  Biso   1.000  O
  O4       1.0000 0.38579  0.49051  0.10136  Biso   1.000  O
  N1       1.0000 0.68662  0.63993  0.47671  Biso   1.000  N
  N2       1.0000 0.81338  0.13993  0.02329  Biso   1.000  N
  N3       1.0000 0.31338  0.36007  0.52329  Biso   1.000  N
  N4       1.0000 0.18662  0.86007  0.97671  Biso   1.000  N
  N5       1.0000 0.75983  0.94305  0.43495  Biso   1.000  N
  N6       1.0000 0.74017  0.44305  0.06505  Biso   1.000  N
  N7       1.0000 0.24017  0.05695  0.56505  Biso   1.000  N
  N8       1.0000 0.25983  0.55695  0.93495  Biso   1.000  N
  N9       1.0000 0.81448  0.10129  0.43149  Biso   1.000  N
  N10      1.0000 0.68552  0.60129  0.06851  Biso   1.000  N
  N11      1.0000 0.18552  0.89871  0.56851  Biso   1.000  N
  N12      1.0000 0.31448  0.39871  0.93149  Biso   1.000  N
  C1       1.0000 0.65739  0.47740  0.50213  Biso   1.000  C
  C2       1.0000 0.84261  0.97740  0.99787  Biso   1.000  C
  C3       1.0000 0.34261  0.52260  0.49787  Biso   1.000  C
  C4       1.0000 0.15739  0.02260  0.00213  Biso   1.000  C
  H1       1.0000 0.68540  0.43040  0.57000  Biso   1.000  H
  H2       1.0000 0.81460  0.93040  0.93000  Biso   1.000  H
  H3       1.0000 0.31460  0.56960  0.43000  Biso   1.000  H
  H4       1.0000 0.18540  0.06960  0.07000  Biso   1.000  H
  C5       1.0000 0.58733  0.37470  0.43258  Biso   1.000  C
  C6       1.0000 0.91267  0.87470  0.06742  Biso   1.000  C
  C7       1.0000 0.41267  0.62530  0.56742  Biso   1.000  C
  C8       1.0000 0.08733  0.12530  0.93258  Biso   1.000  C
  H5       1.0000 0.56900  0.25780  0.45170  Biso   1.000  H
  H6       1.0000 0.93100  0.75780  0.04830  Biso   1.000  H
  H7       1.0000 0.43100  0.74220  0.54830  Biso   1.000  H
  H8       1.0000 0.06900  0.24220  0.95170  Biso   1.000  H
  C9       1.0000 0.54474  0.44430  0.33555  Biso   1.000  C
  C10      1.0000 0.95526  0.94430  0.16445  Biso   1.000  C
  C11      1.0000 0.45526  0.55570  0.66445  Biso   1.000  C
  C12      1.0000 0.04474  0.05570  0.83555  Biso   1.000  C
  H9       1.0000 0.49460  0.37730  0.28770  Biso   1.000  H
  H10      1.0000 0.00540  0.87730  0.21230  Biso   1.000  H
  H11      1.0000 0.50540  0.62270  0.71230  Biso   1.000  H
  H12      1.0000 0.99460  0.12270  0.78770  Biso   1.000  H
  C13      1.0000 0.57520  0.61260  0.30773  Biso   1.000  C
  C14      1.0000 0.92480  0.11260  0.19227  Biso   1.000  C
  C15      1.0000 0.42480  0.38740  0.69227  Biso   1.000  C
  C16      1.0000 0.07520  0.88740  0.80773  Biso   1.000  C
  H13      1.0000 0.54700  0.66210  0.24050  Biso   1.000  H
  H14      1.0000 0.95300  0.16210  0.25950  Biso   1.000  H
  H15      1.0000 0.45300  0.33790  0.75950  Biso   1.000  H
  H16      1.0000 0.04700  0.83790  0.74050  Biso   1.000  H
  C17      1.0000 0.64757  0.70769  0.37956  Biso   1.000  C
  C18      1.0000 0.85243  0.20769  0.12044  Biso   1.000  C
  C19      1.0000 0.35243  0.29231  0.62044  Biso   1.000  C
  C20      1.0000 0.14757  0.79231  0.87956  Biso   1.000  C
  C21      1.0000 0.69129  0.88350  0.35707  Biso   1.000  C
  C22      1.0000 0.80871  0.38350  0.14293  Biso   1.000  C
  C23      1.0000 0.30871  0.11650  0.64293  Biso   1.000  C
  C24      1.0000 0.19129  0.61650  0.85707  Biso   1.000  C
  C25      1.0000 0.65987  0.97510  0.25384  Biso   1.000  C
  C26      1.0000 0.84013  0.47510  0.24616  Biso   1.000  C
  C27      1.0000 0.34013  0.02490  0.74616  Biso   1.000  C
  C28      1.0000 0.15987  0.52490  0.75384  Biso   1.000  C
  H17      1.0000 0.69010  0.09540  0.25790  Biso   1.000  H
  H18      1.0000 0.80990  0.59540  0.24210  Biso   1.000  H
  H19      1.0000 0.30990  0.90460  0.74210  Biso   1.000  H
  H20      1.0000 0.19010  0.40460  0.75790  Biso   1.000  H
  H21      1.0000 0.58070  0.98160  0.23780  Biso   1.000  H
  H22      1.0000 0.91930  0.48160  0.26220  Biso   1.000  H
  H23      1.0000 0.41930  0.01840  0.76220  Biso   1.000  H
  H24      1.0000 0.08070  0.51840  0.73780  Biso   1.000  H
  H25      1.0000 0.68800  0.90870  0.19750  Biso   1.000  H
  H26      1.0000 0.81200  0.40870  0.30250  Biso   1.000  H
  H27      1.0000 0.31200  0.09130  0.80250  Biso   1.000  H
  H28      1.0000 0.18800  0.59130  0.69750  Biso   1.000  H
  C29      1.0000 0.87851  0.11940  0.52380  Biso   1.000  C
  C30      1.0000 0.62149  0.61940  0.97620  Biso   1.000  C
  C31      1.0000 0.12149  0.88060  0.47620  Biso   1.000  C
  C32      1.0000 0.37851  0.38060  0.02380  Biso   1.000  C
  C33      1.0000 0.94757  0.28286  0.53894  Biso   1.000  C
  C34      1.0000 0.55243  0.78286  0.96106  Biso   1.000  C
  C35      1.0000 0.05243  0.71714  0.46106  Biso   1.000  C
  C36      1.0000 0.44757  0.21714  0.03894  Biso   1.000  C
  H29      1.0000 0.91960  0.36260  0.58950  Biso   1.000  H
  H30      1.0000 0.58040  0.86260  0.91050  Biso   1.000  H
  H31      1.0000 0.08040  0.63740  0.41050  Biso   1.000  H
  H32      1.0000 0.41960  0.13740  0.08950  Biso   1.000  H
  H33      1.0000 0.94600  0.34350  0.47050  Biso   1.000  H
  H34      1.0000 0.55400  0.84350  0.02950  Biso   1.000  H
  H35      1.0000 0.05400  0.65650  0.52950  Biso   1.000  H
  H36      1.0000 0.44600  0.15650  0.97050  Biso   1.000  H
  H37      1.0000 0.02220  0.24930  0.56680  Biso   1.000  H
  H38      1.0000 0.47780  0.74930  0.93320  Biso   1.000  H
  H39      1.0000 0.97780  0.75070  0.43320  Biso   1.000  H
  H40      1.0000 0.52220  0.25070  0.06680  Biso   1.000  H
  N13      1.0000 0.82413  0.67106  0.69039  Biso   1.000  N
  N14      1.0000 0.67587  0.17106  0.80961  Biso   1.000  N
  N15      1.0000 0.17587  0.32894  0.30961  Biso   1.000  N
  N16      1.0000 0.32413  0.82894  0.19039  Biso   1.000  N
  C37      1.0000 0.85188  0.59201  0.76682  Biso   1.000  C
  C38      1.0000 0.64812  0.09201  0.73318  Biso   1.000  C
  C39      1.0000 0.14812  0.40799  0.23318  Biso   1.000  C
  C40      1.0000 0.35188  0.90799  0.26682  Biso   1.000  C
  S1       1.0000 0.89627  0.48304  0.87460  Biso   1.000  S
  S2       1.0000 0.60373  0.98304  0.62540  Biso   1.000  S
  S3       1.0000 0.10373  0.51696  0.12540  Biso   1.000  S
  S4       1.0000 0.39627  0.01696  0.37460  Biso   1.000  S
