data_image0
_cell_length_a       13.721
_cell_length_b       20.601
_cell_length_c       7.034
_cell_angle_alpha    90
_cell_angle_beta     90
_cell_angle_gamma    90

_symmetry_space_group_name_H-M    "P 1"
_symmetry_int_tables_number       1

loop_
  _symmetry_equiv_pos_as_xyz
  'x, y, z'

loop_
  _atom_site_label
  _atom_site_occupancy
  _atom_site_fract_x
  _atom_site_fract_y
  _atom_site_fract_z
  _atom_site_thermal_displace_type
  _atom_site_B_iso_or_equiv
  _atom_site_type_symbol
  Cu1      1.0000 0.17603  0.17731  0.44337  Biso   1.000  Cu
  Cu2      1.0000 0.32397  0.82269  0.94337  Biso   1.000  Cu
  Cu3      1.0000 0.67603  0.32269  0.05663  Biso   1.000  Cu
  Cu4      1.0000 0.82397  0.67731  0.55663  Biso   1.000  Cu
  Cu5      1.0000 0.82397  0.82269  0.55663  Biso   1.000  Cu
  Cu6      1.0000 0.67603  0.17731  0.05663  Biso   1.000  Cu
  Cu7      1.0000 0.32397  0.67731  0.94337  Biso   1.000  Cu
  Cu8      1.0000 0.17603  0.32269  0.44337  Biso   1.000  Cu
  Cu9      1.0000 0.39254  0.25000  0.49056  Biso   1.000  Cu
  Cu10     1.0000 0.10746  0.75000  0.99056  Biso   1.000  Cu
  Cu11     1.0000 0.89254  0.25000  0.00944  Biso   1.000  Cu
  Cu12     1.0000 0.60746  0.75000  0.50944  Biso   1.000  Cu
  S1       1.0000 0.29861  0.25000  0.07380  Biso   1.000  S
  S2       1.0000 0.20139  0.75000  0.57380  Biso   1.000  S
  S3       1.0000 0.79861  0.25000  0.42620  Biso   1.000  S
  S4       1.0000 0.70139  0.75000  0.92620  Biso   1.000  S
  O1       1.0000 0.25330  0.25000  0.53380  Biso   1.000  O
  O2       1.0000 0.24670  0.75000  0.03380  Biso   1.000  O
  O3       1.0000 0.75330  0.25000  0.96620  Biso   1.000  O
  O4       1.0000 0.74670  0.75000  0.46620  Biso   1.000  O
  H1       1.0000 0.25000  0.25000  0.64460  Biso   1.000  H
  H2       1.0000 0.25000  0.75000  0.14460  Biso   1.000  H
  H3       1.0000 0.75000  0.25000  0.85540  Biso   1.000  H
  H4       1.0000 0.75000  0.75000  0.35540  Biso   1.000  H
  O5       1.0000 0.08820  0.25000  0.37880  Biso   1.000  O
  O6       1.0000 0.41180  0.75000  0.87880  Biso   1.000  O
  O7       1.0000 0.58820  0.25000  0.12120  Biso   1.000  O
  O8       1.0000 0.91180  0.75000  0.62120  Biso   1.000  O
  H5       1.0000 0.03590  0.25000  0.42130  Biso   1.000  H
  H6       1.0000 0.46410  0.75000  0.92130  Biso   1.000  H
  H7       1.0000 0.53590  0.25000  0.07870  Biso   1.000  H
  H8       1.0000 0.96410  0.75000  0.57870  Biso   1.000  H
  O9       1.0000 0.53360  0.25000  0.48240  Biso   1.000  O
  O10      1.0000 0.96640  0.75000  0.98240  Biso   1.000  O
  O11      1.0000 0.03360  0.25000  0.01760  Biso   1.000  O
  O12      1.0000 0.46640  0.75000  0.51760  Biso   1.000  O
  H9       1.0000 0.54860  0.25000  0.36380  Biso   1.000  H
  H10      1.0000 0.95140  0.75000  0.86380  Biso   1.000  H
  H11      1.0000 0.04860  0.25000  0.13620  Biso   1.000  H
  H12      1.0000 0.45140  0.75000  0.63620  Biso   1.000  H
  H13      1.0000 0.55200  0.25000  0.57350  Biso   1.000  H
  H14      1.0000 0.94800  0.75000  0.07350  Biso   1.000  H
  H15      1.0000 0.05200  0.25000  0.92650  Biso   1.000  H
  H16      1.0000 0.44800  0.75000  0.42650  Biso   1.000  H
  O13      1.0000 0.39030  0.25000  0.18770  Biso   1.000  O
  O14      1.0000 0.10970  0.75000  0.68770  Biso   1.000  O
  O15      1.0000 0.89030  0.25000  0.31230  Biso   1.000  O
  O16      1.0000 0.60970  0.75000  0.81230  Biso   1.000  O
  O17      1.0000 0.24190  0.19072  0.12130  Biso   1.000  O
  O18      1.0000 0.25810  0.80928  0.62130  Biso   1.000  O
  O19      1.0000 0.74190  0.30928  0.37870  Biso   1.000  O
  O20      1.0000 0.75810  0.69072  0.87870  Biso   1.000  O
  O21      1.0000 0.75810  0.80928  0.87870  Biso   1.000  O
  O22      1.0000 0.74190  0.19072  0.37870  Biso   1.000  O
  O23      1.0000 0.25810  0.69072  0.62130  Biso   1.000  O
  O24      1.0000 0.24190  0.30928  0.12130  Biso   1.000  O
  O25      1.0000 0.32490  0.25000  0.87340  Biso   1.000  O
  O26      1.0000 0.17510  0.75000  0.37340  Biso   1.000  O
  O27      1.0000 0.82490  0.25000  0.62660  Biso   1.000  O
  O28      1.0000 0.67510  0.75000  0.12660  Biso   1.000  O
  O29      1.0000 0.13550  0.15710  0.78230  Biso   1.000  O
  O30      1.0000 0.36450  0.84290  0.28230  Biso   1.000  O
  O31      1.0000 0.63550  0.34290  0.71770  Biso   1.000  O
  O32      1.0000 0.86450  0.65710  0.21770  Biso   1.000  O
  O33      1.0000 0.86450  0.84290  0.21770  Biso   1.000  O
  O34      1.0000 0.63550  0.15710  0.71770  Biso   1.000  O
  O35      1.0000 0.36450  0.65710  0.28230  Biso   1.000  O
  O36      1.0000 0.13550  0.34290  0.78230  Biso   1.000  O
  H17      1.0000 0.17430  0.15310  0.89820  Biso   1.000  H
  H18      1.0000 0.32570  0.84690  0.39820  Biso   1.000  H
  H19      1.0000 0.67430  0.34690  0.60180  Biso   1.000  H
  H20      1.0000 0.82570  0.65310  0.10180  Biso   1.000  H
  H21      1.0000 0.82570  0.84690  0.10180  Biso   1.000  H
  H22      1.0000 0.67430  0.15310  0.60180  Biso   1.000  H
  H23      1.0000 0.32570  0.65310  0.39820  Biso   1.000  H
  H24      1.0000 0.17430  0.34690  0.89820  Biso   1.000  H
  H25      1.0000 0.08520  0.14430  0.80960  Biso   1.000  H
  H26      1.0000 0.41480  0.85570  0.30960  Biso   1.000  H
  H27      1.0000 0.58520  0.35570  0.69040  Biso   1.000  H
  H28      1.0000 0.91480  0.64430  0.19040  Biso   1.000  H
  H29      1.0000 0.91480  0.85570  0.19040  Biso   1.000  H
  H30      1.0000 0.58520  0.14430  0.69040  Biso   1.000  H
  H31      1.0000 0.41480  0.64430  0.30960  Biso   1.000  H
  H32      1.0000 0.08520  0.35570  0.80960  Biso   1.000  H
  N1       1.0000 0.41250  0.89360  0.86180  Biso   1.000  N
  N2       1.0000 0.08750  0.10640  0.36180  Biso   1.000  N
  N3       1.0000 0.91250  0.60640  0.63820  Biso   1.000  N
  N4       1.0000 0.58750  0.39360  0.13820  Biso   1.000  N
  N5       1.0000 0.58750  0.10640  0.13820  Biso   1.000  N
  N6       1.0000 0.91250  0.89360  0.63820  Biso   1.000  N
  N7       1.0000 0.08750  0.39360  0.36180  Biso   1.000  N
  N8       1.0000 0.41250  0.60640  0.86180  Biso   1.000  N
  N9       1.0000 0.29590  0.12210  0.51400  Biso   1.000  N
  N10      1.0000 0.20410  0.87790  0.01400  Biso   1.000  N
  N11      1.0000 0.79590  0.37790  0.98600  Biso   1.000  N
  N12      1.0000 0.70410  0.62210  0.48600  Biso   1.000  N
  N13      1.0000 0.70410  0.87790  0.48600  Biso   1.000  N
  N14      1.0000 0.79590  0.12210  0.98600  Biso   1.000  N
  N15      1.0000 0.20410  0.62210  0.01400  Biso   1.000  N
  N16      1.0000 0.29590  0.37790  0.51400  Biso   1.000  N
  N17      1.0000 0.38060  0.15240  0.53450  Biso   1.000  N
  N18      1.0000 0.11940  0.84760  0.03450  Biso   1.000  N
  N19      1.0000 0.88060  0.34760  0.96550  Biso   1.000  N
  N20      1.0000 0.61940  0.65240  0.46550  Biso   1.000  N
  N21      1.0000 0.61940  0.84760  0.46550  Biso   1.000  N
  N22      1.0000 0.88060  0.15240  0.96550  Biso   1.000  N
  N23      1.0000 0.11940  0.65240  0.03450  Biso   1.000  N
  N24      1.0000 0.38060  0.34760  0.53450  Biso   1.000  N
  N25      1.0000 0.44530  0.11220  0.61170  Biso   1.000  N
  N26      1.0000 0.05470  0.88780  0.11170  Biso   1.000  N
  N27      1.0000 0.94530  0.38780  0.88830  Biso   1.000  N
  N28      1.0000 0.55470  0.61220  0.38830  Biso   1.000  N
  N29      1.0000 0.55470  0.88780  0.38830  Biso   1.000  N
  N30      1.0000 0.94530  0.11220  0.88830  Biso   1.000  N
  N31      1.0000 0.05470  0.61220  0.11170  Biso   1.000  N
  N32      1.0000 0.44530  0.38780  0.61170  Biso   1.000  N
  N33      1.0000 0.30270  0.06140  0.57740  Biso   1.000  N
  N34      1.0000 0.19730  0.93860  0.07740  Biso   1.000  N
  N35      1.0000 0.80270  0.43860  0.92260  Biso   1.000  N
  N36      1.0000 0.69730  0.56140  0.42260  Biso   1.000  N
  N37      1.0000 0.69730  0.93860  0.42260  Biso   1.000  N
  N38      1.0000 0.80270  0.06140  0.92260  Biso   1.000  N
  N39      1.0000 0.19730  0.56140  0.07740  Biso   1.000  N
  N40      1.0000 0.30270  0.43860  0.57740  Biso   1.000  N
  C1       1.0000 0.50870  0.89000  0.90080  Biso   1.000  C
  C2       1.0000 0.99130  0.11000  0.40080  Biso   1.000  C
  C3       1.0000 0.00870  0.61000  0.59920  Biso   1.000  C
  C4       1.0000 0.49130  0.39000  0.09920  Biso   1.000  C
  C5       1.0000 0.49130  0.11000  0.09920  Biso   1.000  C
  C6       1.0000 0.00870  0.89000  0.59920  Biso   1.000  C
  C7       1.0000 0.99130  0.39000  0.40080  Biso   1.000  C
  C8       1.0000 0.50870  0.61000  0.90080  Biso   1.000  C
  H33      1.0000 0.53250  0.85340  0.96260  Biso   1.000  H
  H34      1.0000 0.96750  0.14660  0.46260  Biso   1.000  H
  H35      1.0000 0.03250  0.64660  0.53740  Biso   1.000  H
  H36      1.0000 0.46750  0.35340  0.03740  Biso   1.000  H
  H37      1.0000 0.46750  0.14660  0.03740  Biso   1.000  H
  H38      1.0000 0.03250  0.85340  0.53740  Biso   1.000  H
  H39      1.0000 0.96750  0.35340  0.46260  Biso   1.000  H
  H40      1.0000 0.53250  0.64660  0.96260  Biso   1.000  H
  C9       1.0000 0.57300  0.93890  0.85200  Biso   1.000  C
  C10      1.0000 0.92700  0.06110  0.35200  Biso   1.000  C
  C11      1.0000 0.07300  0.56110  0.64800  Biso   1.000  C
  C12      1.0000 0.42700  0.43890  0.14800  Biso   1.000  C
  C13      1.0000 0.42700  0.06110  0.14800  Biso   1.000  C
  C14      1.0000 0.07300  0.93890  0.64800  Biso   1.000  C
  C15      1.0000 0.92700  0.43890  0.35200  Biso   1.000  C
  C16      1.0000 0.57300  0.56110  0.85200  Biso   1.000  C
  H41      1.0000 0.63910  0.93460  0.87830  Biso   1.000  H
  H42      1.0000 0.86090  0.06540  0.37830  Biso   1.000  H
  H43      1.0000 0.13910  0.56540  0.62170  Biso   1.000  H
  H44      1.0000 0.36090  0.43460  0.12170  Biso   1.000  H
  H45      1.0000 0.36090  0.06540  0.12170  Biso   1.000  H
  H46      1.0000 0.13910  0.93460  0.62170  Biso   1.000  H
  H47      1.0000 0.86090  0.43460  0.37830  Biso   1.000  H
  H48      1.0000 0.63910  0.56540  0.87830  Biso   1.000  H
  C17      1.0000 0.53810  0.99440  0.76340  Biso   1.000  C
  C18      1.0000 0.96190  0.00560  0.26340  Biso   1.000  C
  C19      1.0000 0.03810  0.50560  0.73660  Biso   1.000  C
  C20      1.0000 0.46190  0.49440  0.23660  Biso   1.000  C
  C21      1.0000 0.46190  0.00560  0.23660  Biso   1.000  C
  C22      1.0000 0.03810  0.99440  0.73660  Biso   1.000  C
  C23      1.0000 0.96190  0.49440  0.26340  Biso   1.000  C
  C24      1.0000 0.53810  0.50560  0.76340  Biso   1.000  C
  H49      1.0000 0.57990  0.02820  0.73160  Biso   1.000  H
  H50      1.0000 0.92010  0.97180  0.23160  Biso   1.000  H
  H51      1.0000 0.07990  0.47180  0.76840  Biso   1.000  H
  H52      1.0000 0.42010  0.52820  0.26840  Biso   1.000  H
  H53      1.0000 0.42010  0.97180  0.26840  Biso   1.000  H
  H54      1.0000 0.07990  0.02820  0.76840  Biso   1.000  H
  H55      1.0000 0.92010  0.52820  0.23160  Biso   1.000  H
  H56      1.0000 0.57990  0.47180  0.73160  Biso   1.000  H
  C25      1.0000 0.37860  0.94650  0.77470  Biso   1.000  C
  C26      1.0000 0.12140  0.05350  0.27470  Biso   1.000  C
  C27      1.0000 0.87860  0.55350  0.72530  Biso   1.000  C
  C28      1.0000 0.62140  0.44650  0.22530  Biso   1.000  C
  C29      1.0000 0.62140  0.05350  0.22530  Biso   1.000  C
  C30      1.0000 0.87860  0.94650  0.72530  Biso   1.000  C
  C31      1.0000 0.12140  0.44650  0.27470  Biso   1.000  C
  C32      1.0000 0.37860  0.55350  0.77470  Biso   1.000  C
  H57      1.0000 0.31240  0.94880  0.74740  Biso   1.000  H
  H58      1.0000 0.18760  0.05120  0.24740  Biso   1.000  H
  H59      1.0000 0.81240  0.55120  0.75260  Biso   1.000  H
  H60      1.0000 0.68760  0.44880  0.25260  Biso   1.000  H
  H61      1.0000 0.68760  0.05120  0.25260  Biso   1.000  H
  H62      1.0000 0.81240  0.94880  0.75260  Biso   1.000  H
  H63      1.0000 0.18760  0.44880  0.24740  Biso   1.000  H
  H64      1.0000 0.31240  0.55120  0.74740  Biso   1.000  H
  C33      1.0000 0.43780  0.99830  0.72310  Biso   1.000  C
  C34      1.0000 0.06220  0.00170  0.22310  Biso   1.000  C
  C35      1.0000 0.93780  0.50170  0.77690  Biso   1.000  C
  C36      1.0000 0.56220  0.49830  0.27690  Biso   1.000  C
  C37      1.0000 0.56220  0.00170  0.27690  Biso   1.000  C
  C38      1.0000 0.93780  0.99830  0.77690  Biso   1.000  C
  C39      1.0000 0.06220  0.49830  0.22310  Biso   1.000  C
  C40      1.0000 0.43780  0.50170  0.72310  Biso   1.000  C
  C41      1.0000 0.39540  0.05670  0.63690  Biso   1.000  C
  C42      1.0000 0.10460  0.94330  0.13690  Biso   1.000  C
  C43      1.0000 0.89540  0.44330  0.86310  Biso   1.000  C
  C44      1.0000 0.60460  0.55670  0.36310  Biso   1.000  C
  C45      1.0000 0.60460  0.94330  0.36310  Biso   1.000  C
  C46      1.0000 0.89540  0.05670  0.86310  Biso   1.000  C
  C47      1.0000 0.10460  0.55670  0.13690  Biso   1.000  C
  C48      1.0000 0.39540  0.44330  0.63690  Biso   1.000  C
