data_image0
_cell_length_a       11.3959
_cell_length_b       10.4591
_cell_length_c       12.0996
_cell_angle_alpha    90
_cell_angle_beta     117.506
_cell_angle_gamma    90

_symmetry_space_group_name_H-M    "P 1"
_symmetry_int_tables_number       1

loop_
  _symmetry_equiv_pos_as_xyz
  'x, y, z'

loop_
  _atom_site_label
  _atom_site_occupancy
  _atom_site_fract_x
  _atom_site_fract_y
  _atom_site_fract_z
  _atom_site_thermal_displace_type
  _atom_site_B_iso_or_equiv
  _atom_site_type_symbol
  Cu1      1.0000 0.12293  0.39665  0.15303  Biso   1.000  Cu
  Cu2      1.0000 0.37707  0.89665  0.34697  Biso   1.000  Cu
  Cu3      1.0000 0.87707  0.60335  0.84697  Biso   1.000  Cu
  Cu4      1.0000 0.62293  0.10335  0.65303  Biso   1.000  Cu
  S1       1.0000 0.22777  0.14116  0.14886  Biso   1.000  S
  S2       1.0000 0.27223  0.64116  0.35114  Biso   1.000  S
  S3       1.0000 0.77223  0.85884  0.85114  Biso   1.000  S
  S4       1.0000 0.72777  0.35884  0.64886  Biso   1.000  S
  O1       1.0000 0.26591  0.27106  0.20930  Biso   1.000  O
  O2       1.0000 0.23409  0.77106  0.29070  Biso   1.000  O
  O3       1.0000 0.73409  0.72894  0.79070  Biso   1.000  O
  O4       1.0000 0.76591  0.22894  0.70930  Biso   1.000  O
  O5       1.0000 0.08820  0.14980  0.05248  Biso   1.000  O
  O6       1.0000 0.41180  0.64980  0.44752  Biso   1.000  O
  O7       1.0000 0.91180  0.85020  0.94752  Biso   1.000  O
  O8       1.0000 0.58820  0.35020  0.55248  Biso   1.000  O
  O9       1.0000 0.23650  0.04970  0.24661  Biso   1.000  O
  O10      1.0000 0.26350  0.54970  0.25339  Biso   1.000  O
  O11      1.0000 0.76350  0.95030  0.75339  Biso   1.000  O
  O12      1.0000 0.73650  0.45030  0.74661  Biso   1.000  O
  O13      1.0000 0.31630  0.10490  0.09840  Biso   1.000  O
  O14      1.0000 0.18370  0.60490  0.40160  Biso   1.000  O
  O15      1.0000 0.68370  0.89510  0.90160  Biso   1.000  O
  O16      1.0000 0.81630  0.39510  0.59840  Biso   1.000  O
  C1       1.0000 0.14780  0.26670  0.38740  Biso   1.000  C
  C2       1.0000 0.35220  0.76670  0.11260  Biso   1.000  C
  C3       1.0000 0.85220  0.73330  0.61260  Biso   1.000  C
  C4       1.0000 0.64780  0.23330  0.88740  Biso   1.000  C
  H1       1.0000 0.22600  0.22790  0.39360  Biso   1.000  H
  H2       1.0000 0.27400  0.72790  0.10640  Biso   1.000  H
  H3       1.0000 0.77400  0.77210  0.60640  Biso   1.000  H
  H4       1.0000 0.72600  0.27210  0.89360  Biso   1.000  H
  C5       1.0000 0.10930  0.24210  0.47880  Biso   1.000  C
  C6       1.0000 0.39070  0.74210  0.02120  Biso   1.000  C
  C7       1.0000 0.89070  0.75790  0.52120  Biso   1.000  C
  C8       1.0000 0.60930  0.25790  0.97880  Biso   1.000  C
  H5       1.0000 0.15950  0.18540  0.54550  Biso   1.000  H
  H6       1.0000 0.34050  0.68540  0.95450  Biso   1.000  H
  H7       1.0000 0.84050  0.81460  0.45450  Biso   1.000  H
  H8       1.0000 0.65950  0.31460  0.04550  Biso   1.000  H
  C9       1.0000 0.99700  0.30110  0.47210  Biso   1.000  C
  C10      1.0000 0.50300  0.80110  0.02790  Biso   1.000  C
  C11      1.0000 0.00300  0.69890  0.52790  Biso   1.000  C
  C12      1.0000 0.49700  0.19890  0.97210  Biso   1.000  C
  H9       1.0000 0.97000  0.28620  0.53450  Biso   1.000  H
  H10      1.0000 0.53000  0.78620  0.96550  Biso   1.000  H
  H11      1.0000 0.03000  0.71380  0.46550  Biso   1.000  H
  H12      1.0000 0.47000  0.21380  0.03450  Biso   1.000  H
  C13      1.0000 0.92530  0.38140  0.37360  Biso   1.000  C
  C14      1.0000 0.57470  0.88140  0.12640  Biso   1.000  C
  C15      1.0000 0.07470  0.61860  0.62640  Biso   1.000  C
  C16      1.0000 0.42530  0.11860  0.87360  Biso   1.000  C
  H13      1.0000 0.84850  0.42350  0.36710  Biso   1.000  H
  H14      1.0000 0.65150  0.92350  0.13290  Biso   1.000  H
  H15      1.0000 0.15150  0.57650  0.63290  Biso   1.000  H
  H16      1.0000 0.34850  0.07650  0.86710  Biso   1.000  H
  C17      1.0000 0.96730  0.39950  0.28440  Biso   1.000  C
  C18      1.0000 0.53270  0.89950  0.21560  Biso   1.000  C
  C19      1.0000 0.03270  0.60050  0.71560  Biso   1.000  C
  C20      1.0000 0.46730  0.10050  0.78440  Biso   1.000  C
  C21      1.0000 0.89770  0.47780  0.17280  Biso   1.000  C
  C22      1.0000 0.60230  0.97780  0.32720  Biso   1.000  C
  C23      1.0000 0.10230  0.52220  0.82720  Biso   1.000  C
  C24      1.0000 0.39770  0.02220  0.67280  Biso   1.000  C
  C25      1.0000 0.10920  0.93440  0.84580  Biso   1.000  C
  C26      1.0000 0.39080  0.43440  0.65420  Biso   1.000  C
  C27      1.0000 0.89080  0.06560  0.15420  Biso   1.000  C
  C28      1.0000 0.60920  0.56560  0.34580  Biso   1.000  C
  H17      1.0000 0.10270  0.90510  0.76620  Biso   1.000  H
  H18      1.0000 0.39730  0.40510  0.73380  Biso   1.000  H
  H19      1.0000 0.89730  0.09490  0.23380  Biso   1.000  H
  H20      1.0000 0.60270  0.59490  0.26620  Biso   1.000  H
  H21      1.0000 0.08020  0.86590  0.88290  Biso   1.000  H
  H22      1.0000 0.41980  0.36590  0.61710  Biso   1.000  H
  H23      1.0000 0.91980  0.13410  0.11710  Biso   1.000  H
  H24      1.0000 0.58020  0.63410  0.38290  Biso   1.000  H
  H25      1.0000 0.20120  0.95680  0.90250  Biso   1.000  H
  H26      1.0000 0.29880  0.45680  0.59750  Biso   1.000  H
  H27      1.0000 0.79880  0.04320  0.09750  Biso   1.000  H
  H28      1.0000 0.70120  0.54320  0.40250  Biso   1.000  H
  C29      1.0000 0.05300  0.15110  0.75780  Biso   1.000  C
  C30      1.0000 0.44700  0.65110  0.74220  Biso   1.000  C
  C31      1.0000 0.94700  0.84890  0.24220  Biso   1.000  C
  C32      1.0000 0.55300  0.34890  0.25780  Biso   1.000  C
  H29      1.0000 0.14320  0.18260  0.80930  Biso   1.000  H
  H30      1.0000 0.35680  0.68260  0.69070  Biso   1.000  H
  H31      1.0000 0.85680  0.81740  0.19070  Biso   1.000  H
  H32      1.0000 0.64320  0.31740  0.30930  Biso   1.000  H
  H33      1.0000 0.99000  0.22140  0.74070  Biso   1.000  H
  H34      1.0000 0.51000  0.72140  0.75930  Biso   1.000  H
  H35      1.0000 0.01000  0.77860  0.25930  Biso   1.000  H
  H36      1.0000 0.49000  0.27860  0.24070  Biso   1.000  H
  H37      1.0000 0.04540  0.11790  0.67900  Biso   1.000  H
  H38      1.0000 0.45460  0.61790  0.82100  Biso   1.000  H
  H39      1.0000 0.95460  0.88210  0.32100  Biso   1.000  H
  H40      1.0000 0.54540  0.38210  0.17900  Biso   1.000  H
  N1       1.0000 0.07730  0.34360  0.29070  Biso   1.000  N
  N2       1.0000 0.42270  0.84360  0.20930  Biso   1.000  N
  N3       1.0000 0.92270  0.65640  0.70930  Biso   1.000  N
  N4       1.0000 0.57730  0.15640  0.79070  Biso   1.000  N
  N5       1.0000 0.94940  0.48870  0.09480  Biso   1.000  N
  N6       1.0000 0.55060  0.98870  0.40520  Biso   1.000  N
  N7       1.0000 0.05060  0.51130  0.90520  Biso   1.000  N
  N8       1.0000 0.44940  0.01130  0.59480  Biso   1.000  N
  N9       1.0000 0.78250  0.53790  0.13190  Biso   1.000  N
  N10      1.0000 0.71750  0.03790  0.36810  Biso   1.000  N
  N11      1.0000 0.21750  0.46210  0.86810  Biso   1.000  N
  N12      1.0000 0.28250  0.96210  0.63190  Biso   1.000  N
  N13      1.0000 0.86130  0.56010  0.00010  Biso   1.000  N
  N14      1.0000 0.63870  0.06010  0.49990  Biso   1.000  N
  N15      1.0000 0.13870  0.43990  0.99990  Biso   1.000  N
  N16      1.0000 0.36130  0.93990  0.50010  Biso   1.000  N
  N17      1.0000 0.76160  0.58910  0.02230  Biso   1.000  N
  N18      1.0000 0.73840  0.08910  0.47770  Biso   1.000  N
  N19      1.0000 0.23840  0.41090  0.97770  Biso   1.000  N
  N20      1.0000 0.26160  0.91090  0.52230  Biso   1.000  N
  N21      1.0000 0.02370  0.04840  0.82450  Biso   1.000  N
  N22      1.0000 0.47630  0.54840  0.67550  Biso   1.000  N
  N23      1.0000 0.97630  0.95160  0.17550  Biso   1.000  N
  N24      1.0000 0.52370  0.45160  0.32450  Biso   1.000  N
  H41      1.0000 0.95100  0.02900  0.79200  Biso   1.000  H
  H42      1.0000 0.54900  0.52900  0.70800  Biso   1.000  H
  H43      1.0000 0.04900  0.97100  0.20800  Biso   1.000  H
  H44      1.0000 0.45100  0.47100  0.29200  Biso   1.000  H
  H45      1.0000 0.03100  0.08300  0.89300  Biso   1.000  H
  H46      1.0000 0.46900  0.58300  0.60700  Biso   1.000  H
  H47      1.0000 0.96900  0.91700  0.10700  Biso   1.000  H
  H48      1.0000 0.53100  0.41700  0.39300  Biso   1.000  H
