data_image0
_cell_length_a       12.599
_cell_length_b       11.533
_cell_length_c       29.814
_cell_angle_alpha    90
_cell_angle_beta     100.667
_cell_angle_gamma    90

_symmetry_space_group_name_H-M    "P 1"
_symmetry_int_tables_number       1

loop_
  _symmetry_equiv_pos_as_xyz
  'x, y, z'

loop_
  _atom_site_label
  _atom_site_occupancy
  _atom_site_fract_x
  _atom_site_fract_y
  _atom_site_fract_z
  _atom_site_thermal_displace_type
  _atom_site_B_iso_or_equiv
  _atom_site_type_symbol
  Cu1      1.0000 0.12041  0.24114  0.17697  Biso   1.000  Cu
  Cu2      1.0000 0.87959  0.24114  0.32303  Biso   1.000  Cu
  Cu3      1.0000 0.62041  0.74114  0.17697  Biso   1.000  Cu
  Cu4      1.0000 0.37959  0.74114  0.32303  Biso   1.000  Cu
  Cu5      1.0000 0.87959  0.75886  0.82303  Biso   1.000  Cu
  Cu6      1.0000 0.12041  0.75886  0.67697  Biso   1.000  Cu
  Cu7      1.0000 0.37959  0.25886  0.82303  Biso   1.000  Cu
  Cu8      1.0000 0.62041  0.25886  0.67697  Biso   1.000  Cu
  Cu9      1.0000 0.03277  0.99255  0.07223  Biso   1.000  Cu
  Cu10     1.0000 0.96723  0.99255  0.42777  Biso   1.000  Cu
  Cu11     1.0000 0.53277  0.49255  0.07223  Biso   1.000  Cu
  Cu12     1.0000 0.46723  0.49255  0.42777  Biso   1.000  Cu
  Cu13     1.0000 0.96723  0.00745  0.92777  Biso   1.000  Cu
  Cu14     1.0000 0.03277  0.00745  0.57223  Biso   1.000  Cu
  Cu15     1.0000 0.46723  0.50745  0.92777  Biso   1.000  Cu
  Cu16     1.0000 0.53277  0.50745  0.57223  Biso   1.000  Cu
  S1       1.0000 0.00000  0.11954  0.25000  Biso   1.000  S
  S2       1.0000 0.50000  0.61954  0.25000  Biso   1.000  S
  S3       1.0000 0.00000  0.88046  0.75000  Biso   1.000  S
  S4       1.0000 0.50000  0.38046  0.75000  Biso   1.000  S
  O1       1.0000 0.99620  0.19510  0.20885  Biso   1.000  O
  O2       1.0000 0.00380  0.19510  0.29115  Biso   1.000  O
  O3       1.0000 0.49620  0.69510  0.20885  Biso   1.000  O
  O4       1.0000 0.50380  0.69510  0.29115  Biso   1.000  O
  O5       1.0000 0.00380  0.80490  0.79115  Biso   1.000  O
  O6       1.0000 0.99620  0.80490  0.70885  Biso   1.000  O
  O7       1.0000 0.50380  0.30490  0.79115  Biso   1.000  O
  O8       1.0000 0.49620  0.30490  0.70885  Biso   1.000  O
  O9       1.0000 0.90010  0.04870  0.24344  Biso   1.000  O
  O10      1.0000 0.09990  0.04870  0.25656  Biso   1.000  O
  O11      1.0000 0.40010  0.54870  0.24344  Biso   1.000  O
  O12      1.0000 0.59990  0.54870  0.25656  Biso   1.000  O
  O13      1.0000 0.09990  0.95130  0.75656  Biso   1.000  O
  O14      1.0000 0.90010  0.95130  0.74344  Biso   1.000  O
  O15      1.0000 0.59990  0.45130  0.75656  Biso   1.000  O
  O16      1.0000 0.40010  0.45130  0.74344  Biso   1.000  O
  O17      1.0000 0.22390  0.24390  0.24366  Biso   1.000  O
  O18      1.0000 0.77610  0.24390  0.25634  Biso   1.000  O
  O19      1.0000 0.72390  0.74390  0.24366  Biso   1.000  O
  O20      1.0000 0.27610  0.74390  0.25634  Biso   1.000  O
  O21      1.0000 0.77610  0.75610  0.75634  Biso   1.000  O
  O22      1.0000 0.22390  0.75610  0.74366  Biso   1.000  O
  O23      1.0000 0.27610  0.25610  0.75634  Biso   1.000  O
  O24      1.0000 0.72390  0.25610  0.74366  Biso   1.000  O
  H1       1.0000 0.20900  0.28200  0.25900  Biso   1.000  H
  H2       1.0000 0.79100  0.28200  0.24100  Biso   1.000  H
  H3       1.0000 0.70900  0.78200  0.25900  Biso   1.000  H
  H4       1.0000 0.29100  0.78200  0.24100  Biso   1.000  H
  H5       1.0000 0.79100  0.71800  0.74100  Biso   1.000  H
  H6       1.0000 0.20900  0.71800  0.75900  Biso   1.000  H
  H7       1.0000 0.29100  0.21800  0.74100  Biso   1.000  H
  H8       1.0000 0.70900  0.21800  0.75900  Biso   1.000  H
  H9       1.0000 0.20700  0.19400  0.25000  Biso   1.000  H
  H10      1.0000 0.79300  0.19400  0.25000  Biso   1.000  H
  H11      1.0000 0.70700  0.69400  0.25000  Biso   1.000  H
  H12      1.0000 0.29300  0.69400  0.25000  Biso   1.000  H
  H13      1.0000 0.79300  0.80600  0.75000  Biso   1.000  H
  H14      1.0000 0.20700  0.80600  0.75000  Biso   1.000  H
  H15      1.0000 0.29300  0.30600  0.75000  Biso   1.000  H
  H16      1.0000 0.70700  0.30600  0.75000  Biso   1.000  H
  N1       1.0000 0.10300  0.81600  0.07866  Biso   1.000  N
  N2       1.0000 0.89700  0.81600  0.42134  Biso   1.000  N
  N3       1.0000 0.60300  0.31600  0.07866  Biso   1.000  N
  N4       1.0000 0.39700  0.31600  0.42134  Biso   1.000  N
  N5       1.0000 0.89700  0.18400  0.92134  Biso   1.000  N
  N6       1.0000 0.10300  0.18400  0.57866  Biso   1.000  N
  N7       1.0000 0.39700  0.68400  0.92134  Biso   1.000  N
  N8       1.0000 0.60300  0.68400  0.57866  Biso   1.000  N
  N9       1.0000 0.20740  0.60120  0.09800  Biso   1.000  N
  N10      1.0000 0.79260  0.60120  0.40200  Biso   1.000  N
  N11      1.0000 0.70740  0.10120  0.09800  Biso   1.000  N
  N12      1.0000 0.29260  0.10120  0.40200  Biso   1.000  N
  N13      1.0000 0.79260  0.39880  0.90200  Biso   1.000  N
  N14      1.0000 0.20740  0.39880  0.59800  Biso   1.000  N
  N15      1.0000 0.29260  0.89880  0.90200  Biso   1.000  N
  N16      1.0000 0.70740  0.89880  0.59800  Biso   1.000  N
  N17      1.0000 0.15260  0.00280  0.13301  Biso   1.000  N
  N18      1.0000 0.84740  0.00280  0.36699  Biso   1.000  N
  N19      1.0000 0.65260  0.50280  0.13301  Biso   1.000  N
  N20      1.0000 0.34740  0.50280  0.36699  Biso   1.000  N
  N21      1.0000 0.84740  0.99720  0.86699  Biso   1.000  N
  N22      1.0000 0.15260  0.99720  0.63301  Biso   1.000  N
  N23      1.0000 0.34740  0.49720  0.86699  Biso   1.000  N
  N24      1.0000 0.65260  0.49720  0.63301  Biso   1.000  N
  N25      1.0000 0.18920  0.07640  0.16751  Biso   1.000  N
  N26      1.0000 0.81080  0.07640  0.33249  Biso   1.000  N
  N27      1.0000 0.68920  0.57640  0.16751  Biso   1.000  N
  N28      1.0000 0.31080  0.57640  0.33249  Biso   1.000  N
  N29      1.0000 0.81080  0.92360  0.83249  Biso   1.000  N
  N30      1.0000 0.18920  0.92360  0.66751  Biso   1.000  N
  N31      1.0000 0.31080  0.42360  0.83249  Biso   1.000  N
  N32      1.0000 0.68920  0.42360  0.66751  Biso   1.000  N
  N33      1.0000 0.26360  0.02280  0.19834  Biso   1.000  N
  N34      1.0000 0.73640  0.02280  0.30166  Biso   1.000  N
  N35      1.0000 0.76360  0.52280  0.19834  Biso   1.000  N
  N36      1.0000 0.23640  0.52280  0.30166  Biso   1.000  N
  N37      1.0000 0.73640  0.97720  0.80166  Biso   1.000  N
  N38      1.0000 0.26360  0.97720  0.69834  Biso   1.000  N
  N39      1.0000 0.23640  0.47720  0.80166  Biso   1.000  N
  N40      1.0000 0.76360  0.47720  0.69834  Biso   1.000  N
  N41      1.0000 0.27570  0.91310  0.18508  Biso   1.000  N
  N42      1.0000 0.72430  0.91310  0.31492  Biso   1.000  N
  N43      1.0000 0.77570  0.41310  0.18508  Biso   1.000  N
  N44      1.0000 0.22430  0.41310  0.31492  Biso   1.000  N
  N45      1.0000 0.72430  0.08690  0.81492  Biso   1.000  N
  N46      1.0000 0.27570  0.08690  0.68508  Biso   1.000  N
  N47      1.0000 0.22430  0.58690  0.81492  Biso   1.000  N
  N48      1.0000 0.77570  0.58690  0.68508  Biso   1.000  N
  N49      1.0000 0.41460  0.42300  0.11038  Biso   1.000  N
  N50      1.0000 0.58540  0.42300  0.38962  Biso   1.000  N
  N51      1.0000 0.91460  0.92300  0.11038  Biso   1.000  N
  N52      1.0000 0.08540  0.92300  0.38962  Biso   1.000  N
  N53      1.0000 0.58540  0.57700  0.88962  Biso   1.000  N
  N54      1.0000 0.41460  0.57700  0.61038  Biso   1.000  N
  N55      1.0000 0.08540  0.07700  0.88962  Biso   1.000  N
  N56      1.0000 0.91460  0.07700  0.61038  Biso   1.000  N
  N57      1.0000 0.25030  0.31810  0.14789  Biso   1.000  N
  N58      1.0000 0.74970  0.31810  0.35211  Biso   1.000  N
  N59      1.0000 0.75030  0.81810  0.14789  Biso   1.000  N
  N60      1.0000 0.24970  0.81810  0.35211  Biso   1.000  N
  N61      1.0000 0.74970  0.68190  0.85211  Biso   1.000  N
  N62      1.0000 0.25030  0.68190  0.64789  Biso   1.000  N
  N63      1.0000 0.24970  0.18190  0.85211  Biso   1.000  N
  N64      1.0000 0.75030  0.18190  0.64789  Biso   1.000  N
  N65      1.0000 0.40230  0.44360  0.01926  Biso   1.000  N
  N66      1.0000 0.59770  0.44360  0.48074  Biso   1.000  N
  N67      1.0000 0.90230  0.94360  0.01926  Biso   1.000  N
  N68      1.0000 0.09770  0.94360  0.48074  Biso   1.000  N
  N69      1.0000 0.59770  0.55640  0.98074  Biso   1.000  N
  N70      1.0000 0.40230  0.55640  0.51926  Biso   1.000  N
  N71      1.0000 0.09770  0.05640  0.98074  Biso   1.000  N
  N72      1.0000 0.90230  0.05640  0.51926  Biso   1.000  N
  N73      1.0000 0.23180  0.38240  0.00052  Biso   1.000  N
  N74      1.0000 0.76820  0.38240  0.49948  Biso   1.000  N
  N75      1.0000 0.73180  0.88240  0.00052  Biso   1.000  N
  N76      1.0000 0.26820  0.88240  0.49948  Biso   1.000  N
  N77      1.0000 0.76820  0.61760  0.99948  Biso   1.000  N
  N78      1.0000 0.23180  0.61760  0.50052  Biso   1.000  N
  N79      1.0000 0.26820  0.11760  0.99948  Biso   1.000  N
  N80      1.0000 0.73180  0.11760  0.50052  Biso   1.000  N
  N81      1.0000 0.26720  0.41620  0.96258  Biso   1.000  N
  N82      1.0000 0.73280  0.41620  0.53742  Biso   1.000  N
  N83      1.0000 0.76720  0.91620  0.96258  Biso   1.000  N
  N84      1.0000 0.23280  0.91620  0.53742  Biso   1.000  N
  N85      1.0000 0.73280  0.58380  0.03742  Biso   1.000  N
  N86      1.0000 0.26720  0.58380  0.46258  Biso   1.000  N
  N87      1.0000 0.23280  0.08380  0.03742  Biso   1.000  N
  N88      1.0000 0.76720  0.08380  0.46258  Biso   1.000  N
  N89      1.0000 0.01290  0.23630  0.11358  Biso   1.000  N
  N90      1.0000 0.98710  0.23630  0.38642  Biso   1.000  N
  N91      1.0000 0.51290  0.73630  0.11358  Biso   1.000  N
  N92      1.0000 0.48710  0.73630  0.38642  Biso   1.000  N
  N93      1.0000 0.98710  0.76370  0.88642  Biso   1.000  N
  N94      1.0000 0.01290  0.76370  0.61358  Biso   1.000  N
  N95      1.0000 0.48710  0.26370  0.88642  Biso   1.000  N
  N96      1.0000 0.51290  0.26370  0.61358  Biso   1.000  N
  N97      1.0000 0.97470  0.16320  0.07865  Biso   1.000  N
  N98      1.0000 0.02530  0.16320  0.42135  Biso   1.000  N
  N99      1.0000 0.47470  0.66320  0.07865  Biso   1.000  N
  N100     1.0000 0.52530  0.66320  0.42135  Biso   1.000  N
  N101     1.0000 0.02530  0.83680  0.92135  Biso   1.000  N
  N102     1.0000 0.97470  0.83680  0.57865  Biso   1.000  N
  N103     1.0000 0.52530  0.33680  0.92135  Biso   1.000  N
  N104     1.0000 0.47470  0.33680  0.57865  Biso   1.000  N
  N105     1.0000 0.90170  0.21750  0.04816  Biso   1.000  N
  N106     1.0000 0.09830  0.21750  0.45184  Biso   1.000  N
  N107     1.0000 0.40170  0.71750  0.04816  Biso   1.000  N
  N108     1.0000 0.59830  0.71750  0.45184  Biso   1.000  N
  N109     1.0000 0.09830  0.78250  0.95184  Biso   1.000  N
  N110     1.0000 0.90170  0.78250  0.54816  Biso   1.000  N
  N111     1.0000 0.59830  0.28250  0.95184  Biso   1.000  N
  N112     1.0000 0.40170  0.28250  0.54816  Biso   1.000  N
  N113     1.0000 0.89100  0.32800  0.06169  Biso   1.000  N
  N114     1.0000 0.10900  0.32800  0.43831  Biso   1.000  N
  N115     1.0000 0.39100  0.82800  0.06169  Biso   1.000  N
  N116     1.0000 0.60900  0.82800  0.43831  Biso   1.000  N
  N117     1.0000 0.10900  0.67200  0.93831  Biso   1.000  N
  N118     1.0000 0.89100  0.67200  0.56169  Biso   1.000  N
  N119     1.0000 0.60900  0.17200  0.93831  Biso   1.000  N
  N120     1.0000 0.39100  0.17200  0.56169  Biso   1.000  N
  N121     1.0000 0.05500  0.41760  0.17130  Biso   1.000  N
  N122     1.0000 0.94500  0.41760  0.32870  Biso   1.000  N
  N123     1.0000 0.55500  0.91760  0.17130  Biso   1.000  N
  N124     1.0000 0.44500  0.91760  0.32870  Biso   1.000  N
  N125     1.0000 0.94500  0.58240  0.82870  Biso   1.000  N
  N126     1.0000 0.05500  0.58240  0.67130  Biso   1.000  N
  N127     1.0000 0.44500  0.08240  0.82870  Biso   1.000  N
  N128     1.0000 0.55500  0.08240  0.67130  Biso   1.000  N
  N129     1.0000 0.96480  0.63870  0.14922  Biso   1.000  N
  N130     1.0000 0.03520  0.63870  0.35078  Biso   1.000  N
  N131     1.0000 0.46480  0.13870  0.14922  Biso   1.000  N
  N132     1.0000 0.53520  0.13870  0.35078  Biso   1.000  N
  N133     1.0000 0.03520  0.36130  0.85078  Biso   1.000  N
  N134     1.0000 0.96480  0.36130  0.64922  Biso   1.000  N
  N135     1.0000 0.53520  0.86130  0.85078  Biso   1.000  N
  N136     1.0000 0.46480  0.86130  0.64922  Biso   1.000  N
  N137     1.0000 0.36900  0.45240  0.97363  Biso   1.000  N
  N138     1.0000 0.63100  0.45240  0.52637  Biso   1.000  N
  N139     1.0000 0.86900  0.95240  0.97363  Biso   1.000  N
  N140     1.0000 0.13100  0.95240  0.52637  Biso   1.000  N
  N141     1.0000 0.63100  0.54760  0.02637  Biso   1.000  N
  N142     1.0000 0.36900  0.54760  0.47363  Biso   1.000  N
  N143     1.0000 0.13100  0.04760  0.02637  Biso   1.000  N
  N144     1.0000 0.86900  0.04760  0.47363  Biso   1.000  N
  C1       1.0000 0.07680  0.72390  0.05157  Biso   1.000  C
  C2       1.0000 0.92320  0.72390  0.44843  Biso   1.000  C
  C3       1.0000 0.57680  0.22390  0.05157  Biso   1.000  C
  C4       1.0000 0.42320  0.22390  0.44843  Biso   1.000  C
  C5       1.0000 0.92320  0.27610  0.94843  Biso   1.000  C
  C6       1.0000 0.07680  0.27610  0.55157  Biso   1.000  C
  C7       1.0000 0.42320  0.77610  0.94843  Biso   1.000  C
  C8       1.0000 0.57680  0.77610  0.55157  Biso   1.000  C
  H17      1.0000 0.02220  0.73060  0.02600  Biso   1.000  H
  H18      1.0000 0.97780  0.73060  0.47400  Biso   1.000  H
  H19      1.0000 0.52220  0.23060  0.02600  Biso   1.000  H
  H20      1.0000 0.47780  0.23060  0.47400  Biso   1.000  H
  H21      1.0000 0.97780  0.26940  0.97400  Biso   1.000  H
  H22      1.0000 0.02220  0.26940  0.52600  Biso   1.000  H
  H23      1.0000 0.47780  0.76940  0.97400  Biso   1.000  H
  H24      1.0000 0.52220  0.76940  0.52600  Biso   1.000  H
  C9       1.0000 0.12980  0.61820  0.06095  Biso   1.000  C
  C10      1.0000 0.87020  0.61820  0.43905  Biso   1.000  C
  C11      1.0000 0.62980  0.11820  0.06095  Biso   1.000  C
  C12      1.0000 0.37020  0.11820  0.43905  Biso   1.000  C
  C13      1.0000 0.87020  0.38180  0.93905  Biso   1.000  C
  C14      1.0000 0.12980  0.38180  0.56095  Biso   1.000  C
  C15      1.0000 0.37020  0.88180  0.93905  Biso   1.000  C
  C16      1.0000 0.62980  0.88180  0.56095  Biso   1.000  C
  H25      1.0000 0.11090  0.55690  0.04080  Biso   1.000  H
  H26      1.0000 0.88910  0.55690  0.45920  Biso   1.000  H
  H27      1.0000 0.61090  0.05690  0.04080  Biso   1.000  H
  H28      1.0000 0.38910  0.05690  0.45920  Biso   1.000  H
  H29      1.0000 0.88910  0.44310  0.95920  Biso   1.000  H
  H30      1.0000 0.11090  0.44310  0.54080  Biso   1.000  H
  H31      1.0000 0.38910  0.94310  0.95920  Biso   1.000  H
  H32      1.0000 0.61090  0.94310  0.54080  Biso   1.000  H
  C17      1.0000 0.23450  0.69420  0.12524  Biso   1.000  C
  C18      1.0000 0.76550  0.69420  0.37476  Biso   1.000  C
  C19      1.0000 0.73450  0.19420  0.12524  Biso   1.000  C
  C20      1.0000 0.26550  0.19420  0.37476  Biso   1.000  C
  C21      1.0000 0.76550  0.30580  0.87476  Biso   1.000  C
  C22      1.0000 0.23450  0.30580  0.62524  Biso   1.000  C
  C23      1.0000 0.26550  0.80580  0.87476  Biso   1.000  C
  C24      1.0000 0.73450  0.80580  0.62524  Biso   1.000  C
  H33      1.0000 0.28900  0.68710  0.15080  Biso   1.000  H
  H34      1.0000 0.71100  0.68710  0.34920  Biso   1.000  H
  H35      1.0000 0.78900  0.18710  0.15080  Biso   1.000  H
  H36      1.0000 0.21100  0.18710  0.34920  Biso   1.000  H
  H37      1.0000 0.71100  0.31290  0.84920  Biso   1.000  H
  H38      1.0000 0.28900  0.31290  0.65080  Biso   1.000  H
  H39      1.0000 0.21100  0.81290  0.84920  Biso   1.000  H
  H40      1.0000 0.78900  0.81290  0.65080  Biso   1.000  H
  C25      1.0000 0.18270  0.80040  0.11586  Biso   1.000  C
  C26      1.0000 0.81730  0.80040  0.38414  Biso   1.000  C
  C27      1.0000 0.68270  0.30040  0.11586  Biso   1.000  C
  C28      1.0000 0.31730  0.30040  0.38414  Biso   1.000  C
  C29      1.0000 0.81730  0.19960  0.88414  Biso   1.000  C
  C30      1.0000 0.18270  0.19960  0.61586  Biso   1.000  C
  C31      1.0000 0.31730  0.69960  0.88414  Biso   1.000  C
  C32      1.0000 0.68270  0.69960  0.61586  Biso   1.000  C
  C33      1.0000 0.20610  0.90340  0.14462  Biso   1.000  C
  C34      1.0000 0.79390  0.90340  0.35538  Biso   1.000  C
  C35      1.0000 0.70610  0.40340  0.14462  Biso   1.000  C
  C36      1.0000 0.29390  0.40340  0.35538  Biso   1.000  C
  C37      1.0000 0.79390  0.09660  0.85538  Biso   1.000  C
  C38      1.0000 0.20610  0.09660  0.64462  Biso   1.000  C
  C39      1.0000 0.29390  0.59660  0.85538  Biso   1.000  C
  C40      1.0000 0.70610  0.59660  0.64462  Biso   1.000  C
  C41      1.0000 0.31740  0.39860  0.03424  Biso   1.000  C
  C42      1.0000 0.68260  0.39860  0.46576  Biso   1.000  C
  C43      1.0000 0.81740  0.89860  0.03424  Biso   1.000  C
  C44      1.0000 0.18260  0.89860  0.46576  Biso   1.000  C
  C45      1.0000 0.68260  0.60140  0.96576  Biso   1.000  C
  C46      1.0000 0.31740  0.60140  0.53424  Biso   1.000  C
  C47      1.0000 0.18260  0.10140  0.96576  Biso   1.000  C
  C48      1.0000 0.81740  0.10140  0.53424  Biso   1.000  C
  C49      1.0000 0.32420  0.37940  0.08369  Biso   1.000  C
  C50      1.0000 0.67580  0.37940  0.41631  Biso   1.000  C
  C51      1.0000 0.82420  0.87940  0.08369  Biso   1.000  C
  C52      1.0000 0.17580  0.87940  0.41631  Biso   1.000  C
  C53      1.0000 0.67580  0.62060  0.91631  Biso   1.000  C
  C54      1.0000 0.32420  0.62060  0.58369  Biso   1.000  C
  C55      1.0000 0.17580  0.12060  0.91631  Biso   1.000  C
  C56      1.0000 0.82420  0.12060  0.58369  Biso   1.000  C
  C57      1.0000 0.24420  0.32420  0.10214  Biso   1.000  C
  C58      1.0000 0.75580  0.32420  0.39786  Biso   1.000  C
  C59      1.0000 0.74420  0.82420  0.10214  Biso   1.000  C
  C60      1.0000 0.25580  0.82420  0.39786  Biso   1.000  C
  C61      1.0000 0.75580  0.67580  0.89786  Biso   1.000  C
  C62      1.0000 0.24420  0.67580  0.60214  Biso   1.000  C
  C63      1.0000 0.25580  0.17580  0.89786  Biso   1.000  C
  C64      1.0000 0.74420  0.17580  0.60214  Biso   1.000  C
  H41      1.0000 0.18580  0.29090  0.08280  Biso   1.000  H
  H42      1.0000 0.81420  0.29090  0.41720  Biso   1.000  H
  H43      1.0000 0.68580  0.79090  0.08280  Biso   1.000  H
  H44      1.0000 0.31420  0.79090  0.41720  Biso   1.000  H
  H45      1.0000 0.81420  0.70910  0.91720  Biso   1.000  H
  H46      1.0000 0.18580  0.70910  0.58280  Biso   1.000  H
  H47      1.0000 0.31420  0.20910  0.91720  Biso   1.000  H
  H48      1.0000 0.68580  0.20910  0.58280  Biso   1.000  H
  C65      1.0000 0.42040  0.41590  0.15531  Biso   1.000  C
  C66      1.0000 0.57960  0.41590  0.34469  Biso   1.000  C
  C67      1.0000 0.92040  0.91590  0.15531  Biso   1.000  C
  C68      1.0000 0.07960  0.91590  0.34469  Biso   1.000  C
  C69      1.0000 0.57960  0.58410  0.84469  Biso   1.000  C
  C70      1.0000 0.42040  0.58410  0.65531  Biso   1.000  C
  C71      1.0000 0.07960  0.08410  0.84469  Biso   1.000  C
  C72      1.0000 0.92040  0.08410  0.65531  Biso   1.000  C
  H49      1.0000 0.48080  0.44560  0.17460  Biso   1.000  H
  H50      1.0000 0.51920  0.44560  0.32540  Biso   1.000  H
  H51      1.0000 0.98080  0.94560  0.17460  Biso   1.000  H
  H52      1.0000 0.01920  0.94560  0.32540  Biso   1.000  H
  H53      1.0000 0.51920  0.55440  0.82540  Biso   1.000  H
  H54      1.0000 0.48080  0.55440  0.67460  Biso   1.000  H
  H55      1.0000 0.01920  0.05440  0.82540  Biso   1.000  H
  H56      1.0000 0.98080  0.05440  0.67460  Biso   1.000  H
  C73      1.0000 0.33800  0.36490  0.17431  Biso   1.000  C
  C74      1.0000 0.66200  0.36490  0.32569  Biso   1.000  C
  C75      1.0000 0.83800  0.86490  0.17431  Biso   1.000  C
  C76      1.0000 0.16200  0.86490  0.32569  Biso   1.000  C
  C77      1.0000 0.66200  0.63510  0.82569  Biso   1.000  C
  C78      1.0000 0.33800  0.63510  0.67431  Biso   1.000  C
  C79      1.0000 0.16200  0.13510  0.82569  Biso   1.000  C
  C80      1.0000 0.83800  0.13510  0.67431  Biso   1.000  C
  H57      1.0000 0.34400  0.36340  0.20590  Biso   1.000  H
  H58      1.0000 0.65600  0.36340  0.29410  Biso   1.000  H
  H59      1.0000 0.84400  0.86340  0.20590  Biso   1.000  H
  H60      1.0000 0.15600  0.86340  0.29410  Biso   1.000  H
  H61      1.0000 0.65600  0.63660  0.79410  Biso   1.000  H
  H62      1.0000 0.34400  0.63660  0.70590  Biso   1.000  H
  H63      1.0000 0.15600  0.13660  0.79410  Biso   1.000  H
  H64      1.0000 0.84400  0.13660  0.70590  Biso   1.000  H
  C81      1.0000 0.96070  0.33710  0.10182  Biso   1.000  C
  C82      1.0000 0.03930  0.33710  0.39818  Biso   1.000  C
  C83      1.0000 0.46070  0.83710  0.10182  Biso   1.000  C
  C84      1.0000 0.53930  0.83710  0.39818  Biso   1.000  C
  C85      1.0000 0.03930  0.66290  0.89818  Biso   1.000  C
  C86      1.0000 0.96070  0.66290  0.60182  Biso   1.000  C
  C87      1.0000 0.53930  0.16290  0.89818  Biso   1.000  C
  C88      1.0000 0.46070  0.16290  0.60182  Biso   1.000  C
  C89      1.0000 0.98350  0.43740  0.13211  Biso   1.000  C
  C90      1.0000 0.01650  0.43740  0.36789  Biso   1.000  C
  C91      1.0000 0.48350  0.93740  0.13211  Biso   1.000  C
  C92      1.0000 0.51650  0.93740  0.36789  Biso   1.000  C
  C93      1.0000 0.01650  0.56260  0.86789  Biso   1.000  C
  C94      1.0000 0.98350  0.56260  0.63211  Biso   1.000  C
  C95      1.0000 0.51650  0.06260  0.86789  Biso   1.000  C
  C96      1.0000 0.48350  0.06260  0.63211  Biso   1.000  C
  C97      1.0000 0.93870  0.54750  0.12118  Biso   1.000  C
  C98      1.0000 0.06130  0.54750  0.37882  Biso   1.000  C
  C99      1.0000 0.43870  0.04750  0.12118  Biso   1.000  C
  C100     1.0000 0.56130  0.04750  0.37882  Biso   1.000  C
  C101     1.0000 0.06130  0.45250  0.87882  Biso   1.000  C
  C102     1.0000 0.93870  0.45250  0.62118  Biso   1.000  C
  C103     1.0000 0.56130  0.95250  0.87882  Biso   1.000  C
  C104     1.0000 0.43870  0.95250  0.62118  Biso   1.000  C
  H65      1.0000 0.89000  0.55760  0.09400  Biso   1.000  H
  H66      1.0000 0.11000  0.55760  0.40600  Biso   1.000  H
  H67      1.0000 0.39000  0.05760  0.09400  Biso   1.000  H
  H68      1.0000 0.61000  0.05760  0.40600  Biso   1.000  H
  H69      1.0000 0.11000  0.44240  0.90600  Biso   1.000  H
  H70      1.0000 0.89000  0.44240  0.59400  Biso   1.000  H
  H71      1.0000 0.61000  0.94240  0.90600  Biso   1.000  H
  H72      1.0000 0.39000  0.94240  0.59400  Biso   1.000  H
  C105     1.0000 0.03450  0.61730  0.18845  Biso   1.000  C
  C106     1.0000 0.96550  0.61730  0.31155  Biso   1.000  C
  C107     1.0000 0.53450  0.11730  0.18845  Biso   1.000  C
  C108     1.0000 0.46550  0.11730  0.31155  Biso   1.000  C
  C109     1.0000 0.96550  0.38270  0.81155  Biso   1.000  C
  C110     1.0000 0.03450  0.38270  0.68845  Biso   1.000  C
  C111     1.0000 0.46550  0.88270  0.81155  Biso   1.000  C
  C112     1.0000 0.53450  0.88270  0.68845  Biso   1.000  C
  H73      1.0000 0.05320  0.67780  0.20900  Biso   1.000  H
  H74      1.0000 0.94680  0.67780  0.29100  Biso   1.000  H
  H75      1.0000 0.55320  0.17780  0.20900  Biso   1.000  H
  H76      1.0000 0.44680  0.17780  0.29100  Biso   1.000  H
  H77      1.0000 0.94680  0.32220  0.79100  Biso   1.000  H
  H78      1.0000 0.05320  0.32220  0.70900  Biso   1.000  H
  H79      1.0000 0.44680  0.82220  0.79100  Biso   1.000  H
  H80      1.0000 0.55320  0.82220  0.70900  Biso   1.000  H
  C113     1.0000 0.07970  0.50880  0.19943  Biso   1.000  C
  C114     1.0000 0.92030  0.50880  0.30057  Biso   1.000  C
  C115     1.0000 0.57970  0.00880  0.19943  Biso   1.000  C
  C116     1.0000 0.42030  0.00880  0.30057  Biso   1.000  C
  C117     1.0000 0.92030  0.49120  0.80057  Biso   1.000  C
  C118     1.0000 0.07970  0.49120  0.69943  Biso   1.000  C
  C119     1.0000 0.42030  0.99120  0.80057  Biso   1.000  C
  C120     1.0000 0.57970  0.99120  0.69943  Biso   1.000  C
  H81      1.0000 0.12800  0.49900  0.22680  Biso   1.000  H
  H82      1.0000 0.87200  0.49900  0.27320  Biso   1.000  H
  H83      1.0000 0.62800  0.99900  0.22680  Biso   1.000  H
  H84      1.0000 0.37200  0.99900  0.27320  Biso   1.000  H
  H85      1.0000 0.87200  0.50100  0.77320  Biso   1.000  H
  H86      1.0000 0.12800  0.50100  0.72680  Biso   1.000  H
  H87      1.0000 0.37200  0.00100  0.77320  Biso   1.000  H
  H88      1.0000 0.62800  0.00100  0.72680  Biso   1.000  H
