data_image0
_cell_length_a       12.2128
_cell_length_b       15.4193
_cell_length_c       22.0274
_cell_angle_alpha    90
_cell_angle_beta     90
_cell_angle_gamma    90

_symmetry_space_group_name_H-M    "P 1"
_symmetry_int_tables_number       1

loop_
  _symmetry_equiv_pos_as_xyz
  'x, y, z'

loop_
  _atom_site_label
  _atom_site_occupancy
  _atom_site_fract_x
  _atom_site_fract_y
  _atom_site_fract_z
  _atom_site_thermal_displace_type
  _atom_site_B_iso_or_equiv
  _atom_site_type_symbol
  Cu1      1.0000 0.08526  0.11385  0.50907  Biso   1.000  Cu
  Cu2      1.0000 0.41474  0.88615  0.00907  Biso   1.000  Cu
  Cu3      1.0000 0.91474  0.61385  0.99093  Biso   1.000  Cu
  Cu4      1.0000 0.58526  0.38615  0.49093  Biso   1.000  Cu
  Cu5      1.0000 0.91474  0.88615  0.49093  Biso   1.000  Cu
  Cu6      1.0000 0.58526  0.11385  0.99093  Biso   1.000  Cu
  Cu7      1.0000 0.08526  0.38615  0.00907  Biso   1.000  Cu
  Cu8      1.0000 0.41474  0.61385  0.50907  Biso   1.000  Cu
  Cu9      1.0000 0.95315  0.27242  0.49133  Biso   1.000  Cu
  Cu10     1.0000 0.54685  0.72758  0.99133  Biso   1.000  Cu
  Cu11     1.0000 0.04685  0.77242  0.00867  Biso   1.000  Cu
  Cu12     1.0000 0.45315  0.22758  0.50867  Biso   1.000  Cu
  Cu13     1.0000 0.04685  0.72758  0.50867  Biso   1.000  Cu
  Cu14     1.0000 0.45315  0.27242  0.00867  Biso   1.000  Cu
  Cu15     1.0000 0.95315  0.22758  0.99133  Biso   1.000  Cu
  Cu16     1.0000 0.54685  0.77242  0.49133  Biso   1.000  Cu
  Br1      1.0000 0.24913  0.23988  0.53964  Biso   1.000  Br
  Br2      1.0000 0.25087  0.76012  0.03964  Biso   1.000  Br
  Br3      1.0000 0.75087  0.73988  0.96036  Biso   1.000  Br
  Br4      1.0000 0.74913  0.26012  0.46036  Biso   1.000  Br
  Br5      1.0000 0.75087  0.76012  0.46036  Biso   1.000  Br
  Br6      1.0000 0.74913  0.23988  0.96036  Biso   1.000  Br
  Br7      1.0000 0.24913  0.26012  0.03964  Biso   1.000  Br
  Br8      1.0000 0.25087  0.73988  0.53964  Biso   1.000  Br
  N1       1.0000 0.18080  0.04342  0.46204  Biso   1.000  N
  N2       1.0000 0.31920  0.95658  0.96204  Biso   1.000  N
  N3       1.0000 0.81920  0.54342  0.03796  Biso   1.000  N
  N4       1.0000 0.68080  0.45658  0.53796  Biso   1.000  N
  N5       1.0000 0.81920  0.95658  0.53796  Biso   1.000  N
  N6       1.0000 0.68080  0.04342  0.03796  Biso   1.000  N
  N7       1.0000 0.18080  0.45658  0.96204  Biso   1.000  N
  N8       1.0000 0.31920  0.54342  0.46204  Biso   1.000  N
  N9       1.0000 0.11850  0.03860  0.57517  Biso   1.000  N
  N10      1.0000 0.38150  0.96140  0.07517  Biso   1.000  N
  N11      1.0000 0.88150  0.53860  0.92483  Biso   1.000  N
  N12      1.0000 0.61850  0.46140  0.42483  Biso   1.000  N
  N13      1.0000 0.88150  0.96140  0.42483  Biso   1.000  N
  N14      1.0000 0.61850  0.03860  0.92483  Biso   1.000  N
  N15      1.0000 0.11850  0.46140  0.07517  Biso   1.000  N
  N16      1.0000 0.38150  0.53860  0.57517  Biso   1.000  N
  N17      1.0000 0.99640  0.36384  0.43351  Biso   1.000  N
  N18      1.0000 0.50360  0.63616  0.93351  Biso   1.000  N
  N19      1.0000 0.00360  0.86384  0.06649  Biso   1.000  N
  N20      1.0000 0.49640  0.13616  0.56649  Biso   1.000  N
  N21      1.0000 0.00360  0.63616  0.56649  Biso   1.000  N
  N22      1.0000 0.49640  0.36384  0.06649  Biso   1.000  N
  N23      1.0000 0.99640  0.13616  0.93351  Biso   1.000  N
  N24      1.0000 0.50360  0.86384  0.43351  Biso   1.000  N
  N25      1.0000 0.02310  0.50469  0.38556  Biso   1.000  N
  N26      1.0000 0.47690  0.49531  0.88556  Biso   1.000  N
  N27      1.0000 0.97690  0.00469  0.11444  Biso   1.000  N
  N28      1.0000 0.52310  0.99531  0.61444  Biso   1.000  N
  N29      1.0000 0.97690  0.49531  0.61444  Biso   1.000  N
  N30      1.0000 0.52310  0.50469  0.11444  Biso   1.000  N
  N31      1.0000 0.02310  0.99531  0.88556  Biso   1.000  N
  N32      1.0000 0.47690  0.00469  0.38556  Biso   1.000  N
  N33      1.0000 0.04500  0.63926  0.44291  Biso   1.000  N
  N34      1.0000 0.45500  0.36074  0.94291  Biso   1.000  N
  N35      1.0000 0.95500  0.13926  0.05709  Biso   1.000  N
  N36      1.0000 0.54500  0.86074  0.55709  Biso   1.000  N
  N37      1.0000 0.95500  0.36074  0.55709  Biso   1.000  N
  N38      1.0000 0.54500  0.63926  0.05709  Biso   1.000  N
  N39      1.0000 0.04500  0.86074  0.94291  Biso   1.000  N
  N40      1.0000 0.45500  0.13926  0.44291  Biso   1.000  N
  O1       1.0000 0.02395  0.17533  0.44202  Biso   1.000  O
  O2       1.0000 0.47605  0.82467  0.94202  Biso   1.000  O
  O3       1.0000 0.97605  0.67533  0.05798  Biso   1.000  O
  O4       1.0000 0.52395  0.32467  0.55798  Biso   1.000  O
  O5       1.0000 0.97605  0.82467  0.55798  Biso   1.000  O
  O6       1.0000 0.52395  0.17533  0.05798  Biso   1.000  O
  O7       1.0000 0.02395  0.32467  0.94202  Biso   1.000  O
  O8       1.0000 0.47605  0.67533  0.44202  Biso   1.000  O
  O9       1.0000 0.97043  0.17430  0.54957  Biso   1.000  O
  O10      1.0000 0.52957  0.82570  0.04957  Biso   1.000  O
  O11      1.0000 0.02957  0.67430  0.95043  Biso   1.000  O
  O12      1.0000 0.47043  0.32570  0.45043  Biso   1.000  O
  O13      1.0000 0.02957  0.82570  0.45043  Biso   1.000  O
  O14      1.0000 0.47043  0.17430  0.95043  Biso   1.000  O
  O15      1.0000 0.97043  0.32570  0.04957  Biso   1.000  O
  O16      1.0000 0.52957  0.67430  0.54957  Biso   1.000  O
  C1       1.0000 0.14090  0.11214  0.36587  Biso   1.000  C
  C2       1.0000 0.35910  0.88786  0.86587  Biso   1.000  C
  C3       1.0000 0.85910  0.61214  0.13413  Biso   1.000  C
  C4       1.0000 0.64090  0.38786  0.63413  Biso   1.000  C
  C5       1.0000 0.85910  0.88786  0.63413  Biso   1.000  C
  C6       1.0000 0.64090  0.11214  0.13413  Biso   1.000  C
  C7       1.0000 0.14090  0.38786  0.86587  Biso   1.000  C
  C8       1.0000 0.35910  0.61214  0.36587  Biso   1.000  C
  C9       1.0000 0.05410  0.16658  0.38404  Biso   1.000  C
  C10      1.0000 0.44590  0.83342  0.88404  Biso   1.000  C
  C11      1.0000 0.94590  0.66658  0.11596  Biso   1.000  C
  C12      1.0000 0.55410  0.33342  0.61596  Biso   1.000  C
  C13      1.0000 0.94590  0.83342  0.61596  Biso   1.000  C
  C14      1.0000 0.55410  0.16658  0.11596  Biso   1.000  C
  C15      1.0000 0.05410  0.33342  0.88404  Biso   1.000  C
  C16      1.0000 0.44590  0.66658  0.38404  Biso   1.000  C
  C17      1.0000 0.99520  0.21010  0.33887  Biso   1.000  C
  C18      1.0000 0.50480  0.78990  0.83887  Biso   1.000  C
  C19      1.0000 0.00480  0.71010  0.16113  Biso   1.000  C
  C20      1.0000 0.49520  0.28990  0.66113  Biso   1.000  C
  C21      1.0000 0.00480  0.78990  0.66113  Biso   1.000  C
  C22      1.0000 0.49520  0.21010  0.16113  Biso   1.000  C
  C23      1.0000 0.99520  0.28990  0.83887  Biso   1.000  C
  C24      1.0000 0.50480  0.71010  0.33887  Biso   1.000  C
  H1       1.0000 0.93450  0.24320  0.34940  Biso   1.000  H
  H2       1.0000 0.56550  0.75680  0.84940  Biso   1.000  H
  H3       1.0000 0.06550  0.74320  0.15060  Biso   1.000  H
  H4       1.0000 0.43450  0.25680  0.65060  Biso   1.000  H
  H5       1.0000 0.06550  0.75680  0.65060  Biso   1.000  H
  H6       1.0000 0.43450  0.24320  0.15060  Biso   1.000  H
  H7       1.0000 0.93450  0.25680  0.84940  Biso   1.000  H
  H8       1.0000 0.56550  0.74320  0.34940  Biso   1.000  H
  C25      1.0000 0.02630  0.20430  0.27891  Biso   1.000  C
  C26      1.0000 0.47370  0.79570  0.77891  Biso   1.000  C
  C27      1.0000 0.97370  0.70430  0.22109  Biso   1.000  C
  C28      1.0000 0.52630  0.29570  0.72109  Biso   1.000  C
  C29      1.0000 0.97370  0.79570  0.72109  Biso   1.000  C
  C30      1.0000 0.52630  0.20430  0.22109  Biso   1.000  C
  C31      1.0000 0.02630  0.29570  0.77891  Biso   1.000  C
  C32      1.0000 0.47370  0.70430  0.27891  Biso   1.000  C
  H9       1.0000 0.98510  0.23330  0.24980  Biso   1.000  H
  H10      1.0000 0.51490  0.76670  0.74980  Biso   1.000  H
  H11      1.0000 0.01490  0.73330  0.25020  Biso   1.000  H
  H12      1.0000 0.48510  0.26670  0.75020  Biso   1.000  H
  H13      1.0000 0.01490  0.76670  0.75020  Biso   1.000  H
  H14      1.0000 0.48510  0.23330  0.25020  Biso   1.000  H
  H15      1.0000 0.98510  0.26670  0.74980  Biso   1.000  H
  H16      1.0000 0.51490  0.73330  0.24980  Biso   1.000  H
  C33      1.0000 0.11630  0.15680  0.26028  Biso   1.000  C
  C34      1.0000 0.38370  0.84320  0.76028  Biso   1.000  C
  C35      1.0000 0.88370  0.65680  0.23972  Biso   1.000  C
  C36      1.0000 0.61630  0.34320  0.73972  Biso   1.000  C
  C37      1.0000 0.88370  0.84320  0.73972  Biso   1.000  C
  C38      1.0000 0.61630  0.15680  0.23972  Biso   1.000  C
  C39      1.0000 0.11630  0.34320  0.76028  Biso   1.000  C
  C40      1.0000 0.38370  0.65680  0.26028  Biso   1.000  C
  C41      1.0000 0.17050  0.11080  0.30434  Biso   1.000  C
  C42      1.0000 0.32950  0.88920  0.80434  Biso   1.000  C
  C43      1.0000 0.82950  0.61080  0.19566  Biso   1.000  C
  C44      1.0000 0.67050  0.38920  0.69566  Biso   1.000  C
  C45      1.0000 0.82950  0.88920  0.69566  Biso   1.000  C
  C46      1.0000 0.67050  0.11080  0.19566  Biso   1.000  C
  C47      1.0000 0.17050  0.38920  0.80434  Biso   1.000  C
  C48      1.0000 0.32950  0.61080  0.30434  Biso   1.000  C
  H17      1.0000 0.23010  0.07700  0.29280  Biso   1.000  H
  H18      1.0000 0.26990  0.92300  0.79280  Biso   1.000  H
  H19      1.0000 0.76990  0.57700  0.20720  Biso   1.000  H
  H20      1.0000 0.73010  0.42300  0.70720  Biso   1.000  H
  H21      1.0000 0.76990  0.92300  0.70720  Biso   1.000  H
  H22      1.0000 0.73010  0.07700  0.20720  Biso   1.000  H
  H23      1.0000 0.23010  0.42300  0.79280  Biso   1.000  H
  H24      1.0000 0.26990  0.57700  0.29280  Biso   1.000  H
  C49      1.0000 0.15350  0.15630  0.19500  Biso   1.000  C
  C50      1.0000 0.34650  0.84370  0.69500  Biso   1.000  C
  C51      1.0000 0.84650  0.65630  0.30500  Biso   1.000  C
  C52      1.0000 0.65350  0.34370  0.80500  Biso   1.000  C
  C53      1.0000 0.84650  0.84370  0.80500  Biso   1.000  C
  C54      1.0000 0.65350  0.15630  0.30500  Biso   1.000  C
  C55      1.0000 0.15350  0.34370  0.69500  Biso   1.000  C
  C56      1.0000 0.34650  0.65630  0.19500  Biso   1.000  C
  H25      1.0000 0.23130  0.16520  0.19340  Biso   1.000  H
  H26      1.0000 0.26870  0.83480  0.69340  Biso   1.000  H
  H27      1.0000 0.76870  0.66520  0.30660  Biso   1.000  H
  H28      1.0000 0.73130  0.33480  0.80660  Biso   1.000  H
  H29      1.0000 0.76870  0.83480  0.80660  Biso   1.000  H
  H30      1.0000 0.73130  0.16520  0.30660  Biso   1.000  H
  H31      1.0000 0.23130  0.33480  0.69340  Biso   1.000  H
  H32      1.0000 0.26870  0.66520  0.19340  Biso   1.000  H
  H33      1.0000 0.11720  0.20180  0.17320  Biso   1.000  H
  H34      1.0000 0.38280  0.79820  0.67320  Biso   1.000  H
  H35      1.0000 0.88280  0.70180  0.32680  Biso   1.000  H
  H36      1.0000 0.61720  0.29820  0.82680  Biso   1.000  H
  H37      1.0000 0.88280  0.79820  0.82680  Biso   1.000  H
  H38      1.0000 0.61720  0.20180  0.32680  Biso   1.000  H
  H39      1.0000 0.11720  0.29820  0.67320  Biso   1.000  H
  H40      1.0000 0.38280  0.70180  0.17320  Biso   1.000  H
  H41      1.0000 0.13590  0.10140  0.17690  Biso   1.000  H
  H42      1.0000 0.36410  0.89860  0.67690  Biso   1.000  H
  H43      1.0000 0.86410  0.60140  0.32310  Biso   1.000  H
  H44      1.0000 0.63590  0.39860  0.82310  Biso   1.000  H
  H45      1.0000 0.86410  0.89860  0.82310  Biso   1.000  H
  H46      1.0000 0.63590  0.10140  0.32310  Biso   1.000  H
  H47      1.0000 0.13590  0.39860  0.67690  Biso   1.000  H
  H48      1.0000 0.36410  0.60140  0.17690  Biso   1.000  H
  C57      1.0000 0.19820  0.05250  0.40540  Biso   1.000  C
  C58      1.0000 0.30180  0.94750  0.90540  Biso   1.000  C
  C59      1.0000 0.80180  0.55250  0.09460  Biso   1.000  C
  C60      1.0000 0.69820  0.44750  0.59460  Biso   1.000  C
  C61      1.0000 0.80180  0.94750  0.59460  Biso   1.000  C
  C62      1.0000 0.69820  0.05250  0.09460  Biso   1.000  C
  C63      1.0000 0.19820  0.44750  0.90540  Biso   1.000  C
  C64      1.0000 0.30180  0.55250  0.40540  Biso   1.000  C
  H49      1.0000 0.25210  0.01800  0.38800  Biso   1.000  H
  H50      1.0000 0.24790  0.98200  0.88800  Biso   1.000  H
  H51      1.0000 0.74790  0.51800  0.11200  Biso   1.000  H
  H52      1.0000 0.75210  0.48200  0.61200  Biso   1.000  H
  H53      1.0000 0.74790  0.98200  0.61200  Biso   1.000  H
  H54      1.0000 0.75210  0.01800  0.11200  Biso   1.000  H
  H55      1.0000 0.25210  0.48200  0.88800  Biso   1.000  H
  H56      1.0000 0.24790  0.51800  0.38800  Biso   1.000  H
  C65      1.0000 0.23880  0.97910  0.49909  Biso   1.000  C
  C66      1.0000 0.26120  0.02090  0.99909  Biso   1.000  C
  C67      1.0000 0.76120  0.47910  0.00091  Biso   1.000  C
  C68      1.0000 0.73880  0.52090  0.50091  Biso   1.000  C
  C69      1.0000 0.76120  0.02090  0.50091  Biso   1.000  C
  C70      1.0000 0.73880  0.97910  0.00091  Biso   1.000  C
  C71      1.0000 0.23880  0.52090  0.99909  Biso   1.000  C
  C72      1.0000 0.26120  0.47910  0.49909  Biso   1.000  C
  H57      1.0000 0.22600  0.92190  0.48210  Biso   1.000  H
  H58      1.0000 0.27400  0.07810  0.98210  Biso   1.000  H
  H59      1.0000 0.77400  0.42190  0.01790  Biso   1.000  H
  H60      1.0000 0.72600  0.57810  0.51790  Biso   1.000  H
  H61      1.0000 0.77400  0.07810  0.51790  Biso   1.000  H
  H62      1.0000 0.72600  0.92190  0.01790  Biso   1.000  H
  H63      1.0000 0.22600  0.57810  0.98210  Biso   1.000  H
  H64      1.0000 0.27400  0.42190  0.48210  Biso   1.000  H
  H65      1.0000 0.31680  0.99050  0.49670  Biso   1.000  H
  H66      1.0000 0.18320  0.00950  0.99670  Biso   1.000  H
  H67      1.0000 0.68320  0.49050  0.00330  Biso   1.000  H
  H68      1.0000 0.81680  0.50950  0.50330  Biso   1.000  H
  H69      1.0000 0.68320  0.00950  0.50330  Biso   1.000  H
  H70      1.0000 0.81680  0.99050  0.00330  Biso   1.000  H
  H71      1.0000 0.31680  0.50950  0.99670  Biso   1.000  H
  H72      1.0000 0.18320  0.49050  0.49670  Biso   1.000  H
  C73      1.0000 0.20710  0.97850  0.56083  Biso   1.000  C
  C74      1.0000 0.29290  0.02150  0.06083  Biso   1.000  C
  C75      1.0000 0.79290  0.47850  0.93917  Biso   1.000  C
  C76      1.0000 0.70710  0.52150  0.43917  Biso   1.000  C
  C77      1.0000 0.79290  0.02150  0.43917  Biso   1.000  C
  C78      1.0000 0.70710  0.97850  0.93917  Biso   1.000  C
  C79      1.0000 0.20710  0.52150  0.06083  Biso   1.000  C
  C80      1.0000 0.29290  0.47850  0.56083  Biso   1.000  C
  H73      1.0000 0.27020  0.99300  0.58560  Biso   1.000  H
  H74      1.0000 0.22980  0.00700  0.08560  Biso   1.000  H
  H75      1.0000 0.72980  0.49300  0.91440  Biso   1.000  H
  H76      1.0000 0.77020  0.50700  0.41440  Biso   1.000  H
  H77      1.0000 0.72980  0.00700  0.41440  Biso   1.000  H
  H78      1.0000 0.77020  0.99300  0.91440  Biso   1.000  H
  H79      1.0000 0.27020  0.50700  0.08560  Biso   1.000  H
  H80      1.0000 0.22980  0.49300  0.58560  Biso   1.000  H
  H81      1.0000 0.18430  0.92030  0.57170  Biso   1.000  H
  H82      1.0000 0.31570  0.07970  0.07170  Biso   1.000  H
  H83      1.0000 0.81570  0.42030  0.92830  Biso   1.000  H
  H84      1.0000 0.68430  0.57970  0.42830  Biso   1.000  H
  H85      1.0000 0.81570  0.07970  0.42830  Biso   1.000  H
  H86      1.0000 0.68430  0.92030  0.92830  Biso   1.000  H
  H87      1.0000 0.18430  0.57970  0.07170  Biso   1.000  H
  H88      1.0000 0.31570  0.42030  0.57170  Biso   1.000  H
  C81      1.0000 0.07190  0.03956  0.62688  Biso   1.000  C
  C82      1.0000 0.42810  0.96044  0.12688  Biso   1.000  C
  C83      1.0000 0.92810  0.53956  0.87312  Biso   1.000  C
  C84      1.0000 0.57190  0.46044  0.37312  Biso   1.000  C
  C85      1.0000 0.92810  0.96044  0.37312  Biso   1.000  C
  C86      1.0000 0.57190  0.03956  0.87312  Biso   1.000  C
  C87      1.0000 0.07190  0.46044  0.12688  Biso   1.000  C
  C88      1.0000 0.42810  0.53956  0.62688  Biso   1.000  C
  H89      1.0000 0.09790  0.00130  0.65620  Biso   1.000  H
  H90      1.0000 0.40210  0.99870  0.15620  Biso   1.000  H
  H91      1.0000 0.90210  0.50130  0.84380  Biso   1.000  H
  H92      1.0000 0.59790  0.49870  0.34380  Biso   1.000  H
  H93      1.0000 0.90210  0.99870  0.34380  Biso   1.000  H
  H94      1.0000 0.59790  0.00130  0.84380  Biso   1.000  H
  H95      1.0000 0.09790  0.49870  0.15620  Biso   1.000  H
  H96      1.0000 0.40210  0.50130  0.65620  Biso   1.000  H
  C89      1.0000 0.98150  0.09569  0.64378  Biso   1.000  C
  C90      1.0000 0.51850  0.90431  0.14378  Biso   1.000  C
  C91      1.0000 0.01850  0.59569  0.85622  Biso   1.000  C
  C92      1.0000 0.48150  0.40431  0.35622  Biso   1.000  C
  C93      1.0000 0.01850  0.90431  0.35622  Biso   1.000  C
  C94      1.0000 0.48150  0.09569  0.85622  Biso   1.000  C
  C95      1.0000 0.98150  0.40431  0.14378  Biso   1.000  C
  C96      1.0000 0.51850  0.59569  0.64378  Biso   1.000  C
  C97      1.0000 0.93180  0.15678  0.60508  Biso   1.000  C
  C98      1.0000 0.56820  0.84322  0.10508  Biso   1.000  C
  C99      1.0000 0.06820  0.65678  0.89492  Biso   1.000  C
  C100     1.0000 0.43180  0.34322  0.39492  Biso   1.000  C
  C101     1.0000 0.06820  0.84322  0.39492  Biso   1.000  C
  C102     1.0000 0.43180  0.15678  0.89492  Biso   1.000  C
  C103     1.0000 0.93180  0.34322  0.10508  Biso   1.000  C
  C104     1.0000 0.56820  0.65678  0.60508  Biso   1.000  C
  C105     1.0000 0.83590  0.19660  0.62467  Biso   1.000  C
  C106     1.0000 0.66410  0.80340  0.12467  Biso   1.000  C
  C107     1.0000 0.16410  0.69660  0.87533  Biso   1.000  C
  C108     1.0000 0.33590  0.30340  0.37533  Biso   1.000  C
  C109     1.0000 0.16410  0.80340  0.37533  Biso   1.000  C
  C110     1.0000 0.33590  0.19660  0.87533  Biso   1.000  C
  C111     1.0000 0.83590  0.30340  0.12467  Biso   1.000  C
  C112     1.0000 0.66410  0.69660  0.62467  Biso   1.000  C
  H97      1.0000 0.80070  0.23590  0.59930  Biso   1.000  H
  H98      1.0000 0.69930  0.76410  0.09930  Biso   1.000  H
  H99      1.0000 0.19930  0.73590  0.90070  Biso   1.000  H
  H100     1.0000 0.30070  0.26410  0.40070  Biso   1.000  H
  H101     1.0000 0.19930  0.76410  0.40070  Biso   1.000  H
  H102     1.0000 0.30070  0.23590  0.90070  Biso   1.000  H
  H103     1.0000 0.80070  0.26410  0.09930  Biso   1.000  H
  H104     1.0000 0.69930  0.73590  0.59930  Biso   1.000  H
  C113     1.0000 0.79230  0.17890  0.68101  Biso   1.000  C
  C114     1.0000 0.70770  0.82110  0.18101  Biso   1.000  C
  C115     1.0000 0.20770  0.67890  0.81899  Biso   1.000  C
  C116     1.0000 0.29230  0.32110  0.31899  Biso   1.000  C
  C117     1.0000 0.20770  0.82110  0.31899  Biso   1.000  C
  C118     1.0000 0.29230  0.17890  0.81899  Biso   1.000  C
  C119     1.0000 0.79230  0.32110  0.18101  Biso   1.000  C
  C120     1.0000 0.70770  0.67890  0.68101  Biso   1.000  C
  H105     1.0000 0.72730  0.20570  0.69250  Biso   1.000  H
  H106     1.0000 0.77270  0.79430  0.19250  Biso   1.000  H
  H107     1.0000 0.27270  0.70570  0.80750  Biso   1.000  H
  H108     1.0000 0.22730  0.29430  0.30750  Biso   1.000  H
  H109     1.0000 0.27270  0.79430  0.30750  Biso   1.000  H
  H110     1.0000 0.22730  0.20570  0.80750  Biso   1.000  H
  H111     1.0000 0.72730  0.29430  0.19250  Biso   1.000  H
  H112     1.0000 0.77270  0.70570  0.69250  Biso   1.000  H
  C121     1.0000 0.84270  0.12210  0.72117  Biso   1.000  C
  C122     1.0000 0.65730  0.87790  0.22117  Biso   1.000  C
  C123     1.0000 0.15730  0.62210  0.77883  Biso   1.000  C
  C124     1.0000 0.34270  0.37790  0.27883  Biso   1.000  C
  C125     1.0000 0.15730  0.87790  0.27883  Biso   1.000  C
  C126     1.0000 0.34270  0.12210  0.77883  Biso   1.000  C
  C127     1.0000 0.84270  0.37790  0.22117  Biso   1.000  C
  C128     1.0000 0.65730  0.62210  0.72117  Biso   1.000  C
  C129     1.0000 0.93670  0.08172  0.70195  Biso   1.000  C
  C130     1.0000 0.56330  0.91828  0.20195  Biso   1.000  C
  C131     1.0000 0.06330  0.58172  0.79805  Biso   1.000  C
  C132     1.0000 0.43670  0.41828  0.29805  Biso   1.000  C
  C133     1.0000 0.06330  0.91828  0.29805  Biso   1.000  C
  C134     1.0000 0.43670  0.08172  0.79805  Biso   1.000  C
  C135     1.0000 0.93670  0.41828  0.20195  Biso   1.000  C
  C136     1.0000 0.56330  0.58172  0.70195  Biso   1.000  C
  H113     1.0000 0.97220  0.04380  0.72830  Biso   1.000  H
  H114     1.0000 0.52780  0.95620  0.22830  Biso   1.000  H
  H115     1.0000 0.02780  0.54380  0.77170  Biso   1.000  H
  H116     1.0000 0.47220  0.45620  0.27170  Biso   1.000  H
  H117     1.0000 0.02780  0.95620  0.27170  Biso   1.000  H
  H118     1.0000 0.47220  0.04380  0.77170  Biso   1.000  H
  H119     1.0000 0.97220  0.45620  0.22830  Biso   1.000  H
  H120     1.0000 0.52780  0.54380  0.72830  Biso   1.000  H
  C137     1.0000 0.79410  0.10430  0.78293  Biso   1.000  C
  C138     1.0000 0.70590  0.89570  0.28293  Biso   1.000  C
  C139     1.0000 0.20590  0.60430  0.71707  Biso   1.000  C
  C140     1.0000 0.29410  0.39570  0.21707  Biso   1.000  C
  C141     1.0000 0.20590  0.89570  0.21707  Biso   1.000  C
  C142     1.0000 0.29410  0.10430  0.71707  Biso   1.000  C
  C143     1.0000 0.79410  0.39570  0.28293  Biso   1.000  C
  C144     1.0000 0.70590  0.60430  0.78293  Biso   1.000  C
  H121     1.0000 0.72180  0.08080  0.77830  Biso   1.000  H
  H122     1.0000 0.77820  0.91920  0.27830  Biso   1.000  H
  H123     1.0000 0.27820  0.58080  0.72170  Biso   1.000  H
  H124     1.0000 0.22180  0.41920  0.22170  Biso   1.000  H
  H125     1.0000 0.27820  0.91920  0.22170  Biso   1.000  H
  H126     1.0000 0.22180  0.08080  0.72170  Biso   1.000  H
  H127     1.0000 0.72180  0.41920  0.27830  Biso   1.000  H
  H128     1.0000 0.77820  0.58080  0.77830  Biso   1.000  H
  H129     1.0000 0.79040  0.15740  0.80560  Biso   1.000  H
  H130     1.0000 0.70960  0.84260  0.30560  Biso   1.000  H
  H131     1.0000 0.20960  0.65740  0.69440  Biso   1.000  H
  H132     1.0000 0.29040  0.34260  0.19440  Biso   1.000  H
  H133     1.0000 0.20960  0.84260  0.19440  Biso   1.000  H
  H134     1.0000 0.29040  0.15740  0.69440  Biso   1.000  H
  H135     1.0000 0.79040  0.34260  0.30560  Biso   1.000  H
  H136     1.0000 0.70960  0.65740  0.80560  Biso   1.000  H
  H137     1.0000 0.83930  0.06340  0.80420  Biso   1.000  H
  H138     1.0000 0.66070  0.93660  0.30420  Biso   1.000  H
  H139     1.0000 0.16070  0.56340  0.69580  Biso   1.000  H
  H140     1.0000 0.33930  0.43660  0.19580  Biso   1.000  H
  H141     1.0000 0.16070  0.93660  0.19580  Biso   1.000  H
  H142     1.0000 0.33930  0.06340  0.69580  Biso   1.000  H
  H143     1.0000 0.83930  0.43660  0.30420  Biso   1.000  H
  H144     1.0000 0.66070  0.56340  0.80420  Biso   1.000  H
  C145     1.0000 0.00890  0.43124  0.41304  Biso   1.000  C
  C146     1.0000 0.49110  0.56876  0.91304  Biso   1.000  C
  C147     1.0000 0.99110  0.93124  0.08696  Biso   1.000  C
  C148     1.0000 0.50890  0.06876  0.58696  Biso   1.000  C
  C149     1.0000 0.99110  0.56876  0.58696  Biso   1.000  C
  C150     1.0000 0.50890  0.43124  0.08696  Biso   1.000  C
  C151     1.0000 0.00890  0.06876  0.91304  Biso   1.000  C
  C152     1.0000 0.49110  0.93124  0.41304  Biso   1.000  C
  C153     1.0000 0.03330  0.57474  0.41810  Biso   1.000  C
  C154     1.0000 0.46670  0.42526  0.91810  Biso   1.000  C
  C155     1.0000 0.96670  0.07474  0.08190  Biso   1.000  C
  C156     1.0000 0.53330  0.92526  0.58190  Biso   1.000  C
  C157     1.0000 0.96670  0.42526  0.58190  Biso   1.000  C
  C158     1.0000 0.53330  0.57474  0.08190  Biso   1.000  C
  C159     1.0000 0.03330  0.92526  0.91810  Biso   1.000  C
  C160     1.0000 0.46670  0.07474  0.41810  Biso   1.000  C
