data_image0
_cell_length_a       7.6594
_cell_length_b       7.7717
_cell_length_c       8.7972
_cell_angle_alpha    113.248
_cell_angle_beta     108.653
_cell_angle_gamma    97.495

_symmetry_space_group_name_H-M    "P 1"
_symmetry_int_tables_number       1

loop_
  _symmetry_equiv_pos_as_xyz
  'x, y, z'

loop_
  _atom_site_label
  _atom_site_occupancy
  _atom_site_fract_x
  _atom_site_fract_y
  _atom_site_fract_z
  _atom_site_thermal_displace_type
  _atom_site_B_iso_or_equiv
  _atom_site_type_symbol
  Cu1      1.0000 0.88612  0.03853  0.08489  Biso   1.000  Cu
  Cu2      1.0000 0.11388  0.96147  0.91511  Biso   1.000  Cu
  Cu3      1.0000 0.00000  0.50000  0.50000  Biso   1.000  Cu
  O1       1.0000 0.09130  0.28590  0.25940  Biso   1.000  O
  O2       1.0000 0.90870  0.71410  0.74060  Biso   1.000  O
  O3       1.0000 0.28580  0.22250  0.11510  Biso   1.000  O
  O4       1.0000 0.71420  0.77750  0.88490  Biso   1.000  O
  O5       1.0000 0.78730  0.16210  0.93200  Biso   1.000  O
  O6       1.0000 0.21270  0.83790  0.06800  Biso   1.000  O
  O7       1.0000 0.98120  0.09290  0.78540  Biso   1.000  O
  O8       1.0000 0.01880  0.90710  0.21460  Biso   1.000  O
  O9       1.0000 0.78520  0.51030  0.31680  Biso   1.000  O
  O10      1.0000 0.21480  0.48970  0.68320  Biso   1.000  O
  O11      1.0000 0.58320  0.65770  0.21670  Biso   1.000  O
  O12      1.0000 0.41680  0.34230  0.78330  Biso   1.000  O
  O13      1.0000 0.81860  0.28090  0.48570  Biso   1.000  O
  O14      1.0000 0.18140  0.71910  0.51430  Biso   1.000  O
  O15      1.0000 0.67320  0.06760  0.18860  Biso   1.000  O
  O16      1.0000 0.32680  0.93240  0.81140  Biso   1.000  O
  C1       1.0000 0.24330  0.32880  0.23890  Biso   1.000  C
  C2       1.0000 0.75670  0.67120  0.76110  Biso   1.000  C
  C3       1.0000 0.85500  0.16690  0.81720  Biso   1.000  C
  C4       1.0000 0.14500  0.83310  0.18280  Biso   1.000  C
  C5       1.0000 0.73730  0.66290  0.32410  Biso   1.000  C
  C6       1.0000 0.26270  0.33710  0.67590  Biso   1.000  C
  C7       1.0000 0.69060  0.13440  0.34990  Biso   1.000  C
  C8       1.0000 0.30940  0.86560  0.65010  Biso   1.000  C
  H1       1.0000 0.34600  0.45300  0.32300  Biso   1.000  H
  H2       1.0000 0.65400  0.54700  0.67700  Biso   1.000  H
  H3       1.0000 0.80700  0.24800  0.76300  Biso   1.000  H
  H4       1.0000 0.19300  0.75200  0.23700  Biso   1.000  H
  H5       1.0000 0.87600  0.77400  0.41000  Biso   1.000  H
  H6       1.0000 0.12400  0.22600  0.59000  Biso   1.000  H
  H7       1.0000 0.57100  0.08900  0.37800  Biso   1.000  H
  H8       1.0000 0.42900  0.91100  0.62200  Biso   1.000  H
  Na1      1.0000 0.54250  0.27440  0.02340  Biso   1.000  Na
  Na2      1.0000 0.45750  0.72560  0.97660  Biso   1.000  Na
