data_image0
_cell_length_a       13.3017
_cell_length_b       13.9226
_cell_length_c       12.1243
_cell_angle_alpha    90
_cell_angle_beta     90
_cell_angle_gamma    90

_symmetry_space_group_name_H-M    "P 1"
_symmetry_int_tables_number       1

loop_
  _symmetry_equiv_pos_as_xyz
  'x, y, z'

loop_
  _atom_site_label
  _atom_site_occupancy
  _atom_site_fract_x
  _atom_site_fract_y
  _atom_site_fract_z
  _atom_site_thermal_displace_type
  _atom_site_B_iso_or_equiv
  _atom_site_type_symbol
  Cu1      1.0000 0.19664  0.35083  0.76617  Biso   1.000  Cu
  Cu2      1.0000 0.30336  0.14917  0.26617  Biso   1.000  Cu
  Cu3      1.0000 0.80336  0.35083  0.73383  Biso   1.000  Cu
  Cu4      1.0000 0.69664  0.14917  0.23383  Biso   1.000  Cu
  Cu5      1.0000 0.80336  0.64917  0.23383  Biso   1.000  Cu
  Cu6      1.0000 0.69664  0.85083  0.73383  Biso   1.000  Cu
  Cu7      1.0000 0.19664  0.64917  0.26617  Biso   1.000  Cu
  Cu8      1.0000 0.30336  0.85083  0.76617  Biso   1.000  Cu
  O1       1.0000 0.23784  0.18684  0.77801  Biso   1.000  O
  O2       1.0000 0.26216  0.31316  0.27801  Biso   1.000  O
  O3       1.0000 0.76216  0.18684  0.72199  Biso   1.000  O
  O4       1.0000 0.73784  0.31316  0.22199  Biso   1.000  O
  O5       1.0000 0.76216  0.81316  0.22199  Biso   1.000  O
  O6       1.0000 0.73784  0.68684  0.72199  Biso   1.000  O
  O7       1.0000 0.23784  0.81316  0.27801  Biso   1.000  O
  O8       1.0000 0.26216  0.68684  0.77801  Biso   1.000  O
  H1       1.0000 0.21140  0.12920  0.76660  Biso   1.000  H
  H2       1.0000 0.28860  0.37080  0.26660  Biso   1.000  H
  H3       1.0000 0.78860  0.12920  0.73340  Biso   1.000  H
  H4       1.0000 0.71140  0.37080  0.23340  Biso   1.000  H
  H5       1.0000 0.78860  0.87080  0.23340  Biso   1.000  H
  H6       1.0000 0.71140  0.62920  0.73340  Biso   1.000  H
  H7       1.0000 0.21140  0.87080  0.26660  Biso   1.000  H
  H8       1.0000 0.28860  0.62920  0.76660  Biso   1.000  H
  O9       1.0000 0.90616  0.35353  0.85196  Biso   1.000  O
  O10      1.0000 0.59384  0.14647  0.35196  Biso   1.000  O
  O11      1.0000 0.09384  0.35353  0.64804  Biso   1.000  O
  O12      1.0000 0.40616  0.14647  0.14804  Biso   1.000  O
  O13      1.0000 0.09384  0.64647  0.14804  Biso   1.000  O
  O14      1.0000 0.40616  0.85353  0.64804  Biso   1.000  O
  O15      1.0000 0.90616  0.64647  0.35196  Biso   1.000  O
  O16      1.0000 0.59384  0.85353  0.85196  Biso   1.000  O
  O17      1.0000 0.30210  0.37454  0.65372  Biso   1.000  O
  O18      1.0000 0.19790  0.12546  0.15372  Biso   1.000  O
  O19      1.0000 0.69790  0.37454  0.84628  Biso   1.000  O
  O20      1.0000 0.80210  0.12546  0.34628  Biso   1.000  O
  O21      1.0000 0.69790  0.62546  0.34628  Biso   1.000  O
  O22      1.0000 0.80210  0.87454  0.84628  Biso   1.000  O
  O23      1.0000 0.30210  0.62546  0.15372  Biso   1.000  O
  O24      1.0000 0.19790  0.87454  0.65372  Biso   1.000  O
  O25      1.0000 0.33177  0.51099  0.73975  Biso   1.000  O
  O26      1.0000 0.16823  0.98901  0.23975  Biso   1.000  O
  O27      1.0000 0.66823  0.51099  0.76025  Biso   1.000  O
  O28      1.0000 0.83177  0.98901  0.26025  Biso   1.000  O
  O29      1.0000 0.66823  0.48901  0.26025  Biso   1.000  O
  O30      1.0000 0.83177  0.01099  0.76025  Biso   1.000  O
  O31      1.0000 0.33177  0.48901  0.23975  Biso   1.000  O
  O32      1.0000 0.16823  0.01099  0.73975  Biso   1.000  O
  N1       1.0000 0.29853  0.34401  0.88928  Biso   1.000  N
  N2       1.0000 0.20147  0.15599  0.38928  Biso   1.000  N
  N3       1.0000 0.70147  0.34401  0.61072  Biso   1.000  N
  N4       1.0000 0.79853  0.15599  0.11072  Biso   1.000  N
  N5       1.0000 0.70147  0.65599  0.11072  Biso   1.000  N
  N6       1.0000 0.79853  0.84401  0.61072  Biso   1.000  N
  N7       1.0000 0.29853  0.65599  0.38928  Biso   1.000  N
  N8       1.0000 0.20147  0.84401  0.88928  Biso   1.000  N
  H9       1.0000 0.33350  0.40010  0.88630  Biso   1.000  H
  H10      1.0000 0.16650  0.09990  0.38630  Biso   1.000  H
  H11      1.0000 0.66650  0.40010  0.61370  Biso   1.000  H
  H12      1.0000 0.83350  0.09990  0.11370  Biso   1.000  H
  H13      1.0000 0.66650  0.59990  0.11370  Biso   1.000  H
  H14      1.0000 0.83350  0.90010  0.61370  Biso   1.000  H
  H15      1.0000 0.33350  0.59990  0.38630  Biso   1.000  H
  H16      1.0000 0.16650  0.90010  0.88630  Biso   1.000  H
  N9       1.0000 0.07912  0.36075  0.86405  Biso   1.000  N
  N10      1.0000 0.42088  0.13925  0.36405  Biso   1.000  N
  N11      1.0000 0.92088  0.36075  0.63595  Biso   1.000  N
  N12      1.0000 0.57912  0.13925  0.13595  Biso   1.000  N
  N13      1.0000 0.92088  0.63925  0.13595  Biso   1.000  N
  N14      1.0000 0.57912  0.86075  0.63595  Biso   1.000  N
  N15      1.0000 0.07912  0.63925  0.36405  Biso   1.000  N
  N16      1.0000 0.42088  0.86075  0.86405  Biso   1.000  N
  C1       1.0000 0.32010  0.17190  0.85100  Biso   1.000  C
  C2       1.0000 0.17990  0.32810  0.35100  Biso   1.000  C
  C3       1.0000 0.67990  0.17190  0.64900  Biso   1.000  C
  C4       1.0000 0.82010  0.32810  0.14900  Biso   1.000  C
  C5       1.0000 0.67990  0.82810  0.14900  Biso   1.000  C
  C6       1.0000 0.82010  0.67190  0.64900  Biso   1.000  C
  C7       1.0000 0.32010  0.82810  0.35100  Biso   1.000  C
  C8       1.0000 0.17990  0.67190  0.85100  Biso   1.000  C
  H17      1.0000 0.36620  0.12510  0.82030  Biso   1.000  H
  H18      1.0000 0.13380  0.37490  0.32030  Biso   1.000  H
  H19      1.0000 0.63380  0.12510  0.67970  Biso   1.000  H
  H20      1.0000 0.86620  0.37490  0.17970  Biso   1.000  H
  H21      1.0000 0.63380  0.87490  0.17970  Biso   1.000  H
  H22      1.0000 0.86620  0.62510  0.67970  Biso   1.000  H
  H23      1.0000 0.36620  0.87490  0.32030  Biso   1.000  H
  H24      1.0000 0.13380  0.62510  0.82030  Biso   1.000  H
  H25      1.0000 0.29620  0.14850  0.92160  Biso   1.000  H
  H26      1.0000 0.20380  0.35150  0.42160  Biso   1.000  H
  H27      1.0000 0.70380  0.14850  0.57840  Biso   1.000  H
  H28      1.0000 0.79620  0.35150  0.07840  Biso   1.000  H
  H29      1.0000 0.70380  0.85150  0.07840  Biso   1.000  H
  H30      1.0000 0.79620  0.64850  0.57840  Biso   1.000  H
  H31      1.0000 0.29620  0.85150  0.42160  Biso   1.000  H
  H32      1.0000 0.20380  0.64850  0.92160  Biso   1.000  H
  C9       1.0000 0.37190  0.26760  0.86490  Biso   1.000  C
  C10      1.0000 0.12810  0.23240  0.36490  Biso   1.000  C
  C11      1.0000 0.62810  0.26760  0.63510  Biso   1.000  C
  C12      1.0000 0.87190  0.23240  0.13510  Biso   1.000  C
  C13      1.0000 0.62810  0.73240  0.13510  Biso   1.000  C
  C14      1.0000 0.87190  0.76760  0.63510  Biso   1.000  C
  C15      1.0000 0.37190  0.73240  0.36490  Biso   1.000  C
  C16      1.0000 0.12810  0.76760  0.86490  Biso   1.000  C
  H33      1.0000 0.42020  0.26340  0.92460  Biso   1.000  H
  H34      1.0000 0.07980  0.23660  0.42460  Biso   1.000  H
  H35      1.0000 0.57980  0.26340  0.57540  Biso   1.000  H
  H36      1.0000 0.92020  0.23660  0.07540  Biso   1.000  H
  H37      1.0000 0.57980  0.73660  0.07540  Biso   1.000  H
  H38      1.0000 0.92020  0.76340  0.57540  Biso   1.000  H
  H39      1.0000 0.42020  0.73660  0.42460  Biso   1.000  H
  H40      1.0000 0.07980  0.76340  0.92460  Biso   1.000  H
  H41      1.0000 0.40810  0.28350  0.79790  Biso   1.000  H
  H42      1.0000 0.09190  0.21650  0.29790  Biso   1.000  H
  H43      1.0000 0.59190  0.28350  0.70210  Biso   1.000  H
  H44      1.0000 0.90810  0.21650  0.20210  Biso   1.000  H
  H45      1.0000 0.59190  0.71650  0.20210  Biso   1.000  H
  H46      1.0000 0.90810  0.78350  0.70210  Biso   1.000  H
  H47      1.0000 0.40810  0.71650  0.29790  Biso   1.000  H
  H48      1.0000 0.09190  0.78350  0.79790  Biso   1.000  H
  C17      1.0000 0.25990  0.33660  0.00430  Biso   1.000  C
  C18      1.0000 0.24010  0.16340  0.50430  Biso   1.000  C
  C19      1.0000 0.74010  0.33660  0.49570  Biso   1.000  C
  C20      1.0000 0.75990  0.16340  0.99570  Biso   1.000  C
  C21      1.0000 0.74010  0.66340  0.99570  Biso   1.000  C
  C22      1.0000 0.75990  0.83660  0.49570  Biso   1.000  C
  C23      1.0000 0.25990  0.66340  0.50430  Biso   1.000  C
  C24      1.0000 0.24010  0.83660  0.00430  Biso   1.000  C
  H49      1.0000 0.31460  0.34820  0.05540  Biso   1.000  H
  H50      1.0000 0.18540  0.15180  0.55540  Biso   1.000  H
  H51      1.0000 0.68540  0.34820  0.44460  Biso   1.000  H
  H52      1.0000 0.81460  0.15180  0.94460  Biso   1.000  H
  H53      1.0000 0.68540  0.65180  0.94460  Biso   1.000  H
  H54      1.0000 0.81460  0.84820  0.44460  Biso   1.000  H
  H55      1.0000 0.31460  0.65180  0.55540  Biso   1.000  H
  H56      1.0000 0.18540  0.84820  0.05540  Biso   1.000  H
  H57      1.0000 0.23540  0.27190  0.01680  Biso   1.000  H
  H58      1.0000 0.26460  0.22810  0.51680  Biso   1.000  H
  H59      1.0000 0.76460  0.27190  0.48320  Biso   1.000  H
  H60      1.0000 0.73540  0.22810  0.98320  Biso   1.000  H
  H61      1.0000 0.76460  0.72810  0.98320  Biso   1.000  H
  H62      1.0000 0.73540  0.77190  0.48320  Biso   1.000  H
  H63      1.0000 0.23540  0.72810  0.51680  Biso   1.000  H
  H64      1.0000 0.26460  0.77190  0.01680  Biso   1.000  H
  C25      1.0000 0.17638  0.40690  0.02710  Biso   1.000  C
  C26      1.0000 0.32362  0.09310  0.52710  Biso   1.000  C
  C27      1.0000 0.82362  0.40690  0.47290  Biso   1.000  C
  C28      1.0000 0.67638  0.09310  0.97290  Biso   1.000  C
  C29      1.0000 0.82362  0.59310  0.97290  Biso   1.000  C
  C30      1.0000 0.67638  0.90690  0.47290  Biso   1.000  C
  C31      1.0000 0.17638  0.59310  0.52710  Biso   1.000  C
  C32      1.0000 0.32362  0.90690  0.02710  Biso   1.000  C
  H65      1.0000 0.17140  0.41750  0.10600  Biso   1.000  H
  H66      1.0000 0.32860  0.08250  0.60600  Biso   1.000  H
  H67      1.0000 0.82860  0.41750  0.39400  Biso   1.000  H
  H68      1.0000 0.67140  0.08250  0.89400  Biso   1.000  H
  H69      1.0000 0.82860  0.58250  0.89400  Biso   1.000  H
  H70      1.0000 0.67140  0.91750  0.39400  Biso   1.000  H
  H71      1.0000 0.17140  0.58250  0.60600  Biso   1.000  H
  H72      1.0000 0.32860  0.91750  0.10600  Biso   1.000  H
  H73      1.0000 0.19230  0.46790  0.99260  Biso   1.000  H
  H74      1.0000 0.30770  0.03210  0.49260  Biso   1.000  H
  H75      1.0000 0.80770  0.46790  0.50740  Biso   1.000  H
  H76      1.0000 0.69230  0.03210  0.00740  Biso   1.000  H
  H77      1.0000 0.80770  0.53210  0.00740  Biso   1.000  H
  H78      1.0000 0.69230  0.96790  0.50740  Biso   1.000  H
  H79      1.0000 0.19230  0.53210  0.49260  Biso   1.000  H
  H80      1.0000 0.30770  0.96790  0.99260  Biso   1.000  H
  C33      1.0000 0.07692  0.37150  0.98430  Biso   1.000  C
  C34      1.0000 0.42308  0.12850  0.48430  Biso   1.000  C
  C35      1.0000 0.92308  0.37150  0.51570  Biso   1.000  C
  C36      1.0000 0.57692  0.12850  0.01570  Biso   1.000  C
  C37      1.0000 0.92308  0.62850  0.01570  Biso   1.000  C
  C38      1.0000 0.57692  0.87150  0.51570  Biso   1.000  C
  C39      1.0000 0.07692  0.62850  0.48430  Biso   1.000  C
  C40      1.0000 0.42308  0.87150  0.98430  Biso   1.000  C
  H81      1.0000 0.06130  0.31010  0.01800  Biso   1.000  H
  H82      1.0000 0.43870  0.18990  0.51800  Biso   1.000  H
  H83      1.0000 0.93870  0.31010  0.48200  Biso   1.000  H
  H84      1.0000 0.56130  0.18990  0.98200  Biso   1.000  H
  H85      1.0000 0.93870  0.68990  0.98200  Biso   1.000  H
  H86      1.0000 0.56130  0.81010  0.48200  Biso   1.000  H
  H87      1.0000 0.06130  0.68990  0.51800  Biso   1.000  H
  H88      1.0000 0.43870  0.81010  0.01800  Biso   1.000  H
  H89      1.0000 0.02450  0.41660  0.00460  Biso   1.000  H
  H90      1.0000 0.47550  0.08340  0.50460  Biso   1.000  H
  H91      1.0000 0.97550  0.41660  0.49540  Biso   1.000  H
  H92      1.0000 0.52450  0.08340  0.99540  Biso   1.000  H
  H93      1.0000 0.97550  0.58340  0.99540  Biso   1.000  H
  H94      1.0000 0.52450  0.91660  0.49540  Biso   1.000  H
  H95      1.0000 0.02450  0.58340  0.50460  Biso   1.000  H
  H96      1.0000 0.47550  0.91660  0.00460  Biso   1.000  H
  C41      1.0000 0.99464  0.35532  0.81250  Biso   1.000  C
  C42      1.0000 0.50536  0.14468  0.31250  Biso   1.000  C
  C43      1.0000 0.00536  0.35532  0.68750  Biso   1.000  C
  C44      1.0000 0.49464  0.14468  0.18750  Biso   1.000  C
  C45      1.0000 0.00536  0.64468  0.18750  Biso   1.000  C
  C46      1.0000 0.49464  0.85532  0.68750  Biso   1.000  C
  C47      1.0000 0.99464  0.64468  0.31250  Biso   1.000  C
  C48      1.0000 0.50536  0.85532  0.81250  Biso   1.000  C
  C49      1.0000 0.34767  0.45350  0.66380  Biso   1.000  C
  C50      1.0000 0.15233  0.04650  0.16380  Biso   1.000  C
  C51      1.0000 0.65233  0.45350  0.83620  Biso   1.000  C
  C52      1.0000 0.84767  0.04650  0.33620  Biso   1.000  C
  C53      1.0000 0.65233  0.54650  0.33620  Biso   1.000  C
  C54      1.0000 0.84767  0.95350  0.83620  Biso   1.000  C
  C55      1.0000 0.34767  0.54650  0.16380  Biso   1.000  C
  C56      1.0000 0.15233  0.95350  0.66380  Biso   1.000  C
  C57      1.0000 0.42675  0.47713  0.57830  Biso   1.000  C
  C58      1.0000 0.07325  0.02287  0.07830  Biso   1.000  C
  C59      1.0000 0.57325  0.47713  0.92170  Biso   1.000  C
  C60      1.0000 0.92675  0.02287  0.42170  Biso   1.000  C
  C61      1.0000 0.57325  0.52287  0.42170  Biso   1.000  C
  C62      1.0000 0.92675  0.97713  0.92170  Biso   1.000  C
  C63      1.0000 0.42675  0.52287  0.07830  Biso   1.000  C
  C64      1.0000 0.07325  0.97713  0.57830  Biso   1.000  C
  C65      1.0000 0.48814  0.55710  0.59150  Biso   1.000  C
  C66      1.0000 0.01186  0.94290  0.09150  Biso   1.000  C
  C67      1.0000 0.51186  0.55710  0.90850  Biso   1.000  C
  C68      1.0000 0.98814  0.94290  0.40850  Biso   1.000  C
  C69      1.0000 0.51186  0.44290  0.40850  Biso   1.000  C
  C70      1.0000 0.98814  0.05710  0.90850  Biso   1.000  C
  C71      1.0000 0.48814  0.44290  0.09150  Biso   1.000  C
  C72      1.0000 0.01186  0.05710  0.59150  Biso   1.000  C
  H97      1.0000 0.48030  0.59610  0.65310  Biso   1.000  H
  H98      1.0000 0.01970  0.90390  0.15310  Biso   1.000  H
  H99      1.0000 0.51970  0.59610  0.84690  Biso   1.000  H
  H100     1.0000 0.98030  0.90390  0.34690  Biso   1.000  H
  H101     1.0000 0.51970  0.40390  0.34690  Biso   1.000  H
  H102     1.0000 0.98030  0.09610  0.84690  Biso   1.000  H
  H103     1.0000 0.48030  0.40390  0.15310  Biso   1.000  H
  H104     1.0000 0.01970  0.09610  0.65310  Biso   1.000  H
  C73      1.0000 0.43955  0.42090  0.48570  Biso   1.000  C
  C74      1.0000 0.06045  0.07910  0.98570  Biso   1.000  C
  C75      1.0000 0.56045  0.42090  0.01430  Biso   1.000  C
  C76      1.0000 0.93955  0.07910  0.51430  Biso   1.000  C
  C77      1.0000 0.56045  0.57910  0.51430  Biso   1.000  C
  C78      1.0000 0.93955  0.92090  0.01430  Biso   1.000  C
  C79      1.0000 0.43955  0.57910  0.98570  Biso   1.000  C
  C80      1.0000 0.06045  0.92090  0.48570  Biso   1.000  C
  H105     1.0000 0.39880  0.36740  0.47530  Biso   1.000  H
  H106     1.0000 0.10120  0.13260  0.97530  Biso   1.000  H
  H107     1.0000 0.60120  0.36740  0.02470  Biso   1.000  H
  H108     1.0000 0.89880  0.13260  0.52470  Biso   1.000  H
  H109     1.0000 0.60120  0.63260  0.52470  Biso   1.000  H
  H110     1.0000 0.89880  0.86740  0.02470  Biso   1.000  H
  H111     1.0000 0.39880  0.63260  0.97530  Biso   1.000  H
  H112     1.0000 0.10120  0.86740  0.47530  Biso   1.000  H
