data_image0
_cell_length_a       8.6711
_cell_length_b       11.0292
_cell_length_c       14.4819
_cell_angle_alpha    90
_cell_angle_beta     90
_cell_angle_gamma    90

_symmetry_space_group_name_H-M    "P 1"
_symmetry_int_tables_number       1

loop_
  _symmetry_equiv_pos_as_xyz
  'x, y, z'

loop_
  _atom_site_label
  _atom_site_occupancy
  _atom_site_fract_x
  _atom_site_fract_y
  _atom_site_fract_z
  _atom_site_thermal_displace_type
  _atom_site_B_iso_or_equiv
  _atom_site_type_symbol
  O1       1.0000 0.73670  0.26980  0.03023  Biso   1.000  O
  O2       1.0000 0.76330  0.73020  0.53023  Biso   1.000  O
  O3       1.0000 0.23670  0.23020  0.96977  Biso   1.000  O
  O4       1.0000 0.26330  0.76980  0.46977  Biso   1.000  O
  O5       1.0000 0.50440  0.23730  0.08093  Biso   1.000  O
  O6       1.0000 0.99560  0.76270  0.58093  Biso   1.000  O
  O7       1.0000 0.00440  0.26270  0.91907  Biso   1.000  O
  O8       1.0000 0.49560  0.73730  0.41907  Biso   1.000  O
  O9       1.0000 0.68790  0.28390  0.17761  Biso   1.000  O
  O10      1.0000 0.81210  0.71610  0.67761  Biso   1.000  O
  O11      1.0000 0.18790  0.21610  0.82239  Biso   1.000  O
  O12      1.0000 0.31210  0.78390  0.32239  Biso   1.000  O
  N1       1.0000 0.64050  0.26340  0.09780  Biso   1.000  N
  N2       1.0000 0.85950  0.73660  0.59780  Biso   1.000  N
  N3       1.0000 0.14050  0.23660  0.90220  Biso   1.000  N
  N4       1.0000 0.35950  0.76340  0.40220  Biso   1.000  N
  Cu1      1.0000 0.94654  0.31893  0.07390  Biso   1.000  Cu
  Cu2      1.0000 0.55346  0.68107  0.57390  Biso   1.000  Cu
  Cu3      1.0000 0.44654  0.18107  0.92610  Biso   1.000  Cu
  Cu4      1.0000 0.05346  0.81893  0.42610  Biso   1.000  Cu
  S1       1.0000 0.21117  0.00502  0.19423  Biso   1.000  S
  S2       1.0000 0.28883  0.99498  0.69423  Biso   1.000  S
  S3       1.0000 0.71117  0.49498  0.80577  Biso   1.000  S
  S4       1.0000 0.78883  0.50502  0.30577  Biso   1.000  S
  C1       1.0000 0.92130  0.04710  0.06450  Biso   1.000  C
  C2       1.0000 0.57870  0.95290  0.56450  Biso   1.000  C
  C3       1.0000 0.42130  0.45290  0.93550  Biso   1.000  C
  C4       1.0000 0.07870  0.54710  0.43550  Biso   1.000  C
  H1       1.0000 0.87670  0.07390  0.00500  Biso   1.000  H
  H2       1.0000 0.62330  0.92610  0.50500  Biso   1.000  H
  H3       1.0000 0.37670  0.42610  0.99500  Biso   1.000  H
  H4       1.0000 0.12330  0.57390  0.49500  Biso   1.000  H
  H5       1.0000 0.83510  0.02130  0.10480  Biso   1.000  H
  H6       1.0000 0.66490  0.97870  0.60480  Biso   1.000  H
  H7       1.0000 0.33510  0.47870  0.89520  Biso   1.000  H
  H8       1.0000 0.16490  0.52130  0.39520  Biso   1.000  H
  O13      1.0000 0.87630  0.48540  0.05573  Biso   1.000  O
  O14      1.0000 0.62370  0.51460  0.55573  Biso   1.000  O
  O15      1.0000 0.37630  0.01460  0.94427  Biso   1.000  O
  O16      1.0000 0.12370  0.98540  0.44427  Biso   1.000  O
  O17      1.0000 0.06820  0.51650  0.96085  Biso   1.000  O
  O18      1.0000 0.43180  0.48350  0.46085  Biso   1.000  O
  O19      1.0000 0.56820  0.98350  0.03915  Biso   1.000  O
  O20      1.0000 0.93180  0.01650  0.53915  Biso   1.000  O
  N5       1.0000 0.95100  0.55410  0.99913  Biso   1.000  N
  N6       1.0000 0.54900  0.44590  0.49913  Biso   1.000  N
  N7       1.0000 0.45100  0.94590  0.00087  Biso   1.000  N
  N8       1.0000 0.04900  0.05410  0.50087  Biso   1.000  N
  N9       1.0000 0.12820  0.35170  0.15249  Biso   1.000  N
  N10      1.0000 0.37180  0.64830  0.65249  Biso   1.000  N
  N11      1.0000 0.62820  0.14830  0.84751  Biso   1.000  N
  N12      1.0000 0.87180  0.85170  0.34751  Biso   1.000  N
  N13      1.0000 0.18600  0.24660  0.19100  Biso   1.000  N
  N14      1.0000 0.31400  0.75340  0.69100  Biso   1.000  N
  N15      1.0000 0.68600  0.25340  0.80900  Biso   1.000  N
  N16      1.0000 0.81400  0.74660  0.30900  Biso   1.000  N
  C5       1.0000 0.20680  0.44220  0.19030  Biso   1.000  C
  C6       1.0000 0.29320  0.55780  0.69030  Biso   1.000  C
  C7       1.0000 0.70680  0.05780  0.80970  Biso   1.000  C
  C8       1.0000 0.79320  0.94220  0.30970  Biso   1.000  C
  N17      1.0000 0.00080  0.15060  0.10807  Biso   1.000  N
  N18      1.0000 0.49920  0.84940  0.60807  Biso   1.000  N
  N19      1.0000 0.50080  0.34940  0.89193  Biso   1.000  N
  N20      1.0000 0.99920  0.65060  0.39193  Biso   1.000  N
  C9       1.0000 0.11910  0.13810  0.15910  Biso   1.000  C
  C10      1.0000 0.38090  0.86190  0.65910  Biso   1.000  C
  C11      1.0000 0.61910  0.36190  0.84090  Biso   1.000  C
  C12      1.0000 0.88090  0.63810  0.34090  Biso   1.000  C
  O21      1.0000 0.89920  0.65850  0.98674  Biso   1.000  O
  O22      1.0000 0.60080  0.34150  0.48674  Biso   1.000  O
  O23      1.0000 0.39920  0.84150  0.01326  Biso   1.000  O
  O24      1.0000 0.10080  0.15850  0.51326  Biso   1.000  O
  C13      1.0000 0.31480  0.39560  0.25330  Biso   1.000  C
  C14      1.0000 0.18520  0.60440  0.75330  Biso   1.000  C
  C15      1.0000 0.81480  0.10440  0.74670  Biso   1.000  C
  C16      1.0000 0.68520  0.89560  0.24670  Biso   1.000  C
  H9       1.0000 0.38510  0.44200  0.28910  Biso   1.000  H
  H10      1.0000 0.11490  0.55800  0.78910  Biso   1.000  H
  H11      1.0000 0.88510  0.05800  0.71090  Biso   1.000  H
  H12      1.0000 0.61490  0.94200  0.21090  Biso   1.000  H
  C17      1.0000 0.38800  0.18430  0.31120  Biso   1.000  C
  C18      1.0000 0.11200  0.81570  0.81120  Biso   1.000  C
  C19      1.0000 0.88800  0.31570  0.68880  Biso   1.000  C
  C20      1.0000 0.61200  0.68430  0.18880  Biso   1.000  C
  H13      1.0000 0.45540  0.22780  0.35430  Biso   1.000  H
  H14      1.0000 0.04460  0.77220  0.85430  Biso   1.000  H
  H15      1.0000 0.95540  0.27220  0.64570  Biso   1.000  H
  H16      1.0000 0.54460  0.72780  0.14570  Biso   1.000  H
  H17      1.0000 0.45050  0.13240  0.27100  Biso   1.000  H
  H18      1.0000 0.04950  0.86760  0.77100  Biso   1.000  H
  H19      1.0000 0.95050  0.36760  0.72900  Biso   1.000  H
  H20      1.0000 0.54950  0.63240  0.22900  Biso   1.000  H
  H21      1.0000 0.31510  0.13420  0.34610  Biso   1.000  H
  H22      1.0000 0.18490  0.86580  0.84610  Biso   1.000  H
  H23      1.0000 0.81510  0.36580  0.65390  Biso   1.000  H
  H24      1.0000 0.68490  0.63420  0.15390  Biso   1.000  H
  C21      1.0000 0.30150  0.27300  0.25410  Biso   1.000  C
  C22      1.0000 0.19850  0.72700  0.75410  Biso   1.000  C
  C23      1.0000 0.80150  0.22700  0.74590  Biso   1.000  C
  C24      1.0000 0.69850  0.77300  0.24590  Biso   1.000  C
  C25      1.0000 0.17860  0.57210  0.16710  Biso   1.000  C
  C26      1.0000 0.32140  0.42790  0.66710  Biso   1.000  C
  C27      1.0000 0.67860  0.92790  0.83290  Biso   1.000  C
  C28      1.0000 0.82140  0.07210  0.33290  Biso   1.000  C
  H25      1.0000 0.21960  0.58940  0.10540  Biso   1.000  H
  H26      1.0000 0.28040  0.41060  0.60540  Biso   1.000  H
  H27      1.0000 0.71960  0.91060  0.89460  Biso   1.000  H
  H28      1.0000 0.78040  0.08940  0.39460  Biso   1.000  H
  H29      1.0000 0.23020  0.62380  0.21260  Biso   1.000  H
  H30      1.0000 0.26980  0.37620  0.71260  Biso   1.000  H
  H31      1.0000 0.73020  0.87620  0.78740  Biso   1.000  H
  H32      1.0000 0.76980  0.12380  0.28740  Biso   1.000  H
  H33      1.0000 0.06750  0.58830  0.16800  Biso   1.000  H
  H34      1.0000 0.43250  0.41170  0.66800  Biso   1.000  H
  H35      1.0000 0.56750  0.91170  0.83200  Biso   1.000  H
  H36      1.0000 0.93250  0.08830  0.33200  Biso   1.000  H
  C29      1.0000 0.09440  0.89140  0.13530  Biso   1.000  C
  C30      1.0000 0.40560  0.10860  0.63530  Biso   1.000  C
  C31      1.0000 0.59440  0.60860  0.86470  Biso   1.000  C
  C32      1.0000 0.90560  0.39140  0.36470  Biso   1.000  C
  H37      1.0000 0.15930  0.82000  0.12100  Biso   1.000  H
  H38      1.0000 0.34070  0.18000  0.62100  Biso   1.000  H
  H39      1.0000 0.65930  0.68000  0.87900  Biso   1.000  H
  H40      1.0000 0.84070  0.32000  0.37900  Biso   1.000  H
  H41      1.0000 0.01040  0.86460  0.17690  Biso   1.000  H
  H42      1.0000 0.48960  0.13540  0.67690  Biso   1.000  H
  H43      1.0000 0.51040  0.63540  0.82310  Biso   1.000  H
  H44      1.0000 0.98960  0.36460  0.32310  Biso   1.000  H
  C33      1.0000 0.02550  0.93940  0.04710  Biso   1.000  C
  C34      1.0000 0.47450  0.06060  0.54710  Biso   1.000  C
  C35      1.0000 0.52550  0.56060  0.95290  Biso   1.000  C
  C36      1.0000 0.97450  0.43940  0.45290  Biso   1.000  C
  H45      1.0000 0.96560  0.87430  0.01670  Biso   1.000  H
  H46      1.0000 0.53440  0.12570  0.51670  Biso   1.000  H
  H47      1.0000 0.46560  0.62570  0.98330  Biso   1.000  H
  H48      1.0000 0.03440  0.37430  0.48330  Biso   1.000  H
  H49      1.0000 0.10950  0.96380  0.00470  Biso   1.000  H
  H50      1.0000 0.39050  0.03620  0.50470  Biso   1.000  H
  H51      1.0000 0.60950  0.53620  0.99530  Biso   1.000  H
  H52      1.0000 0.89050  0.46380  0.49530  Biso   1.000  H
