data_image0
_cell_length_a       10.076
_cell_length_b       11.372
_cell_length_c       10.571
_cell_angle_alpha    90
_cell_angle_beta     100.33
_cell_angle_gamma    90

_symmetry_space_group_name_H-M    "P 1"
_symmetry_int_tables_number       1

loop_
  _symmetry_equiv_pos_as_xyz
  'x, y, z'

loop_
  _atom_site_label
  _atom_site_occupancy
  _atom_site_fract_x
  _atom_site_fract_y
  _atom_site_fract_z
  _atom_site_thermal_displace_type
  _atom_site_B_iso_or_equiv
  _atom_site_type_symbol
  Cu1      1.0000 0.05200  0.01700  0.21370  Biso   1.000  Cu
  Cu2      1.0000 0.44800  0.51700  0.28630  Biso   1.000  Cu
  Cu3      1.0000 0.94800  0.98300  0.78630  Biso   1.000  Cu
  Cu4      1.0000 0.55200  0.48300  0.71370  Biso   1.000  Cu
  O1       1.0000 0.40260  0.67540  0.22220  Biso   1.000  O
  O2       1.0000 0.09740  0.17540  0.27780  Biso   1.000  O
  O3       1.0000 0.59740  0.32460  0.77780  Biso   1.000  O
  O4       1.0000 0.90260  0.82460  0.72220  Biso   1.000  O
  O5       1.0000 0.54020  0.71070  0.08020  Biso   1.000  O
  O6       1.0000 0.95980  0.21070  0.41980  Biso   1.000  O
  O7       1.0000 0.45980  0.28930  0.91980  Biso   1.000  O
  O8       1.0000 0.04020  0.78930  0.58020  Biso   1.000  O
  O9       1.0000 0.27590  0.76940  0.85090  Biso   1.000  O
  O10      1.0000 0.22410  0.26940  0.64910  Biso   1.000  O
  O11      1.0000 0.72410  0.23060  0.14910  Biso   1.000  O
  O12      1.0000 0.77590  0.73060  0.35090  Biso   1.000  O
  O13      1.0000 0.26500  0.58160  0.90740  Biso   1.000  O
  O14      1.0000 0.23500  0.08160  0.59260  Biso   1.000  O
  O15      1.0000 0.73500  0.41840  0.09260  Biso   1.000  O
  O16      1.0000 0.76500  0.91840  0.40740  Biso   1.000  O
  N1       1.0000 0.23000  0.00950  0.14310  Biso   1.000  N
  N2       1.0000 0.27000  0.50950  0.35690  Biso   1.000  N
  N3       1.0000 0.77000  0.99050  0.85690  Biso   1.000  N
  N4       1.0000 0.73000  0.49050  0.64310  Biso   1.000  N
  N5       1.0000 0.03450  0.85580  0.12960  Biso   1.000  N
  N6       1.0000 0.46550  0.35580  0.37040  Biso   1.000  N
  N7       1.0000 0.96550  0.14420  0.87040  Biso   1.000  N
  N8       1.0000 0.53450  0.64420  0.62960  Biso   1.000  N
  C1       1.0000 0.92000  0.79250  0.10860  Biso   1.000  C
  C2       1.0000 0.58000  0.29250  0.39140  Biso   1.000  C
  C3       1.0000 0.08000  0.20750  0.89140  Biso   1.000  C
  C4       1.0000 0.42000  0.70750  0.60860  Biso   1.000  C
  C5       1.0000 0.90900  0.68960  0.03820  Biso   1.000  C
  C6       1.0000 0.59100  0.18960  0.46180  Biso   1.000  C
  C7       1.0000 0.09100  0.31040  0.96180  Biso   1.000  C
  C8       1.0000 0.40900  0.81040  0.53820  Biso   1.000  C
  C9       1.0000 0.01500  0.65550  0.98400  Biso   1.000  C
  C10      1.0000 0.48500  0.15550  0.51600  Biso   1.000  C
  C11      1.0000 0.98500  0.34450  0.01600  Biso   1.000  C
  C12      1.0000 0.51500  0.84450  0.48400  Biso   1.000  C
  C13      1.0000 0.13580  0.72150  0.00170  Biso   1.000  C
  C14      1.0000 0.36420  0.22150  0.49830  Biso   1.000  C
  C15      1.0000 0.86420  0.27850  0.99830  Biso   1.000  C
  C16      1.0000 0.63580  0.77850  0.50170  Biso   1.000  C
  C17      1.0000 0.14510  0.81890  0.08330  Biso   1.000  C
  C18      1.0000 0.35490  0.31890  0.41670  Biso   1.000  C
  C19      1.0000 0.85490  0.18110  0.91670  Biso   1.000  C
  C20      1.0000 0.64510  0.68110  0.58330  Biso   1.000  C
  C21      1.0000 0.26430  0.89720  0.11870  Biso   1.000  C
  C22      1.0000 0.23570  0.39720  0.38130  Biso   1.000  C
  C23      1.0000 0.73570  0.10280  0.88130  Biso   1.000  C
  C24      1.0000 0.76430  0.60280  0.61870  Biso   1.000  C
  C25      1.0000 0.39880  0.86370  0.13020  Biso   1.000  C
  C26      1.0000 0.10120  0.36370  0.36980  Biso   1.000  C
  C27      1.0000 0.60120  0.13630  0.86980  Biso   1.000  C
  C28      1.0000 0.89880  0.63630  0.63020  Biso   1.000  C
  C29      1.0000 0.49410  0.95450  0.14630  Biso   1.000  C
  C30      1.0000 0.00590  0.45450  0.35370  Biso   1.000  C
  C31      1.0000 0.50590  0.04550  0.85370  Biso   1.000  C
  C32      1.0000 0.99410  0.54550  0.64630  Biso   1.000  C
  C33      1.0000 0.45680  0.06980  0.15910  Biso   1.000  C
  C34      1.0000 0.04320  0.56980  0.34090  Biso   1.000  C
  C35      1.0000 0.54320  0.93020  0.84090  Biso   1.000  C
  C36      1.0000 0.95680  0.43020  0.65910  Biso   1.000  C
  C37      1.0000 0.32370  0.09450  0.16210  Biso   1.000  C
  C38      1.0000 0.17630  0.59450  0.33790  Biso   1.000  C
  C39      1.0000 0.67630  0.90550  0.83790  Biso   1.000  C
  C40      1.0000 0.82370  0.40550  0.66210  Biso   1.000  C
  C41      1.0000 0.45240  0.73830  0.14190  Biso   1.000  C
  C42      1.0000 0.04760  0.23830  0.35810  Biso   1.000  C
  C43      1.0000 0.54760  0.26170  0.85810  Biso   1.000  C
  C44      1.0000 0.95240  0.76170  0.64190  Biso   1.000  C
  C45      1.0000 0.23720  0.69000  0.91430  Biso   1.000  C
  C46      1.0000 0.26280  0.19000  0.58570  Biso   1.000  C
  C47      1.0000 0.76280  0.31000  0.08570  Biso   1.000  C
  C48      1.0000 0.73720  0.81000  0.41430  Biso   1.000  C
  O17      1.0000 0.11840  0.93610  0.39900  Biso   1.000  O
  O18      1.0000 0.38160  0.43610  0.10100  Biso   1.000  O
  O19      1.0000 0.88160  0.06390  0.60100  Biso   1.000  O
  O20      1.0000 0.61840  0.56390  0.89900  Biso   1.000  O
  O21      1.0000 0.85530  0.02590  0.21070  Biso   1.000  O
  O22      1.0000 0.64470  0.52590  0.28930  Biso   1.000  O
  O23      1.0000 0.14470  0.97410  0.78930  Biso   1.000  O
  O24      1.0000 0.35530  0.47410  0.71070  Biso   1.000  O
  H1       1.0000 0.84427  0.82003  0.14394  Biso   1.000  H
  H2       1.0000 0.65573  0.32003  0.35606  Biso   1.000  H
  H3       1.0000 0.15573  0.17997  0.85606  Biso   1.000  H
  H4       1.0000 0.34427  0.67997  0.64394  Biso   1.000  H
  H5       1.0000 0.82840  0.64298  0.02877  Biso   1.000  H
  H6       1.0000 0.67160  0.14298  0.47123  Biso   1.000  H
  H7       1.0000 0.17160  0.35702  0.97123  Biso   1.000  H
  H8       1.0000 0.32840  0.85702  0.52877  Biso   1.000  H
  H9       1.0000 0.00766  0.58608  0.93166  Biso   1.000  H
  H10      1.0000 0.49234  0.08608  0.56834  Biso   1.000  H
  H11      1.0000 0.99234  0.41392  0.06834  Biso   1.000  H
  H12      1.0000 0.50766  0.91392  0.43166  Biso   1.000  H
  H13      1.0000 0.58738  0.93595  0.14828  Biso   1.000  H
  H14      1.0000 0.91262  0.43595  0.35172  Biso   1.000  H
  H15      1.0000 0.41262  0.06405  0.85172  Biso   1.000  H
  H16      1.0000 0.08738  0.56405  0.64828  Biso   1.000  H
  H17      1.0000 0.52226  0.13184  0.16537  Biso   1.000  H
  H18      1.0000 0.97774  0.63184  0.33463  Biso   1.000  H
  H19      1.0000 0.47774  0.86816  0.83463  Biso   1.000  H
  H20      1.0000 0.02226  0.36816  0.66537  Biso   1.000  H
  H21      1.0000 0.29767  0.17363  0.17762  Biso   1.000  H
  H22      1.0000 0.20233  0.67363  0.32238  Biso   1.000  H
  H23      1.0000 0.70233  0.82637  0.82238  Biso   1.000  H
  H24      1.0000 0.79767  0.32637  0.67762  Biso   1.000  H
  H25      1.0000 0.07869  0.88390  0.43037  Biso   1.000  H
  H26      1.0000 0.42131  0.38390  0.06963  Biso   1.000  H
  H27      1.0000 0.92131  0.11610  0.56963  Biso   1.000  H
  H28      1.0000 0.57869  0.61610  0.93037  Biso   1.000  H
  H29      1.0000 0.15864  0.99021  0.45850  Biso   1.000  H
  H30      1.0000 0.34136  0.49021  0.04150  Biso   1.000  H
  H31      1.0000 0.84136  0.00979  0.54150  Biso   1.000  H
  H32      1.0000 0.65864  0.50979  0.95850  Biso   1.000  H
  H33      1.0000 0.81654  0.01438  0.26772  Biso   1.000  H
  H34      1.0000 0.68346  0.51438  0.23228  Biso   1.000  H
  H35      1.0000 0.18346  0.98562  0.73228  Biso   1.000  H
  H36      1.0000 0.31654  0.48562  0.76772  Biso   1.000  H
  H37      1.0000 0.80763  0.09587  0.19430  Biso   1.000  H
  H38      1.0000 0.69237  0.59587  0.30570  Biso   1.000  H
  H39      1.0000 0.19237  0.90413  0.80570  Biso   1.000  H
  H40      1.0000 0.30763  0.40413  0.69430  Biso   1.000  H
