data_image0
_cell_length_a       10.054
_cell_length_b       11.327
_cell_length_c       10.476
_cell_angle_alpha    90
_cell_angle_beta     100.03
_cell_angle_gamma    90

_symmetry_space_group_name_H-M    "P 1"
_symmetry_int_tables_number       1

loop_
  _symmetry_equiv_pos_as_xyz
  'x, y, z'

loop_
  _atom_site_label
  _atom_site_occupancy
  _atom_site_fract_x
  _atom_site_fract_y
  _atom_site_fract_z
  _atom_site_thermal_displace_type
  _atom_site_B_iso_or_equiv
  _atom_site_type_symbol
  Cu1      1.0000 0.05220  0.01710  0.21380  Biso   1.000  Cu
  Cu2      1.0000 0.44780  0.51710  0.28620  Biso   1.000  Cu
  Cu3      1.0000 0.94780  0.98290  0.78620  Biso   1.000  Cu
  Cu4      1.0000 0.55220  0.48290  0.71380  Biso   1.000  Cu
  O1       1.0000 0.40250  0.67610  0.22290  Biso   1.000  O
  O2       1.0000 0.09750  0.17610  0.27710  Biso   1.000  O
  O3       1.0000 0.59750  0.32390  0.77710  Biso   1.000  O
  O4       1.0000 0.90250  0.82390  0.72290  Biso   1.000  O
  O5       1.0000 0.53970  0.71000  0.07980  Biso   1.000  O
  O6       1.0000 0.96030  0.21000  0.42020  Biso   1.000  O
  O7       1.0000 0.46030  0.29000  0.92020  Biso   1.000  O
  O8       1.0000 0.03970  0.79000  0.57980  Biso   1.000  O
  O9       1.0000 0.26470  0.58130  0.90740  Biso   1.000  O
  O10      1.0000 0.23530  0.08130  0.59260  Biso   1.000  O
  O11      1.0000 0.73530  0.41870  0.09260  Biso   1.000  O
  O12      1.0000 0.76470  0.91870  0.40740  Biso   1.000  O
  O13      1.0000 0.27540  0.77030  0.84870  Biso   1.000  O
  O14      1.0000 0.22460  0.27030  0.65130  Biso   1.000  O
  O15      1.0000 0.72460  0.22970  0.15130  Biso   1.000  O
  O16      1.0000 0.77540  0.72970  0.34870  Biso   1.000  O
  O17      1.0000 0.11950  0.93640  0.39970  Biso   1.000  O
  O18      1.0000 0.38050  0.43640  0.10030  Biso   1.000  O
  O19      1.0000 0.88050  0.06360  0.60030  Biso   1.000  O
  O20      1.0000 0.61950  0.56360  0.89970  Biso   1.000  O
  O21      1.0000 0.85440  0.02490  0.20950  Biso   1.000  O
  O22      1.0000 0.64560  0.52490  0.29050  Biso   1.000  O
  O23      1.0000 0.14560  0.97510  0.79050  Biso   1.000  O
  O24      1.0000 0.35440  0.47510  0.70950  Biso   1.000  O
  N1       1.0000 0.03400  0.85660  0.12970  Biso   1.000  N
  N2       1.0000 0.46600  0.35660  0.37030  Biso   1.000  N
  N3       1.0000 0.96600  0.14340  0.87030  Biso   1.000  N
  N4       1.0000 0.53400  0.64340  0.62970  Biso   1.000  N
  N5       1.0000 0.22900  0.01020  0.14360  Biso   1.000  N
  N6       1.0000 0.27100  0.51020  0.35640  Biso   1.000  N
  N7       1.0000 0.77100  0.98980  0.85640  Biso   1.000  N
  N8       1.0000 0.72900  0.48980  0.64360  Biso   1.000  N
  C1       1.0000 0.14410  0.81990  0.08190  Biso   1.000  C
  C2       1.0000 0.35590  0.31990  0.41810  Biso   1.000  C
  C3       1.0000 0.85590  0.18010  0.91810  Biso   1.000  C
  C4       1.0000 0.64410  0.68010  0.58190  Biso   1.000  C
  C5       1.0000 0.13610  0.72090  0.00030  Biso   1.000  C
  C6       1.0000 0.36390  0.22090  0.49970  Biso   1.000  C
  C7       1.0000 0.86390  0.27910  0.99970  Biso   1.000  C
  C8       1.0000 0.63610  0.77910  0.50030  Biso   1.000  C
  C9       1.0000 0.01700  0.65530  0.98270  Biso   1.000  C
  C10      1.0000 0.48300  0.15530  0.51730  Biso   1.000  C
  C11      1.0000 0.98300  0.34470  0.01730  Biso   1.000  C
  C12      1.0000 0.51700  0.84470  0.48270  Biso   1.000  C
  C13      1.0000 0.91000  0.68930  0.03890  Biso   1.000  C
  C14      1.0000 0.59000  0.18930  0.46110  Biso   1.000  C
  C15      1.0000 0.09000  0.31070  0.96110  Biso   1.000  C
  C16      1.0000 0.41000  0.81070  0.53890  Biso   1.000  C
  C17      1.0000 0.92000  0.79340  0.10810  Biso   1.000  C
  C18      1.0000 0.58000  0.29340  0.39190  Biso   1.000  C
  C19      1.0000 0.08000  0.20660  0.89190  Biso   1.000  C
  C20      1.0000 0.42000  0.70660  0.60810  Biso   1.000  C
  C21      1.0000 0.26300  0.89730  0.11950  Biso   1.000  C
  C22      1.0000 0.23700  0.39730  0.38050  Biso   1.000  C
  C23      1.0000 0.73700  0.10270  0.88050  Biso   1.000  C
  C24      1.0000 0.76300  0.60270  0.61950  Biso   1.000  C
  C25      1.0000 0.39900  0.86480  0.13080  Biso   1.000  C
  C26      1.0000 0.10100  0.36480  0.36920  Biso   1.000  C
  C27      1.0000 0.60100  0.13520  0.86920  Biso   1.000  C
  C28      1.0000 0.89900  0.63520  0.63080  Biso   1.000  C
  C29      1.0000 0.49560  0.95470  0.14630  Biso   1.000  C
  C30      1.0000 0.00440  0.45470  0.35370  Biso   1.000  C
  C31      1.0000 0.50440  0.04530  0.85370  Biso   1.000  C
  C32      1.0000 0.99560  0.54530  0.64630  Biso   1.000  C
  C33      1.0000 0.45750  0.07070  0.15760  Biso   1.000  C
  C34      1.0000 0.04250  0.57070  0.34240  Biso   1.000  C
  C35      1.0000 0.54250  0.92930  0.84240  Biso   1.000  C
  C36      1.0000 0.95750  0.42930  0.65760  Biso   1.000  C
  C37      1.0000 0.32400  0.09490  0.16200  Biso   1.000  C
  C38      1.0000 0.17600  0.59490  0.33800  Biso   1.000  C
  C39      1.0000 0.67600  0.90510  0.83800  Biso   1.000  C
  C40      1.0000 0.82400  0.40510  0.66200  Biso   1.000  C
  C41      1.0000 0.45150  0.73820  0.14100  Biso   1.000  C
  C42      1.0000 0.04850  0.23820  0.35900  Biso   1.000  C
  C43      1.0000 0.54850  0.26180  0.85900  Biso   1.000  C
  C44      1.0000 0.95150  0.76180  0.64100  Biso   1.000  C
  C45      1.0000 0.23620  0.68910  0.91340  Biso   1.000  C
  C46      1.0000 0.26380  0.18910  0.58660  Biso   1.000  C
  C47      1.0000 0.76380  0.31090  0.08660  Biso   1.000  C
  C48      1.0000 0.73620  0.81090  0.41340  Biso   1.000  C
  H1       1.0000 0.08440  0.90230  0.41860  Biso   1.000  H
  H2       1.0000 0.41560  0.40230  0.08140  Biso   1.000  H
  H3       1.0000 0.91560  0.09770  0.58140  Biso   1.000  H
  H4       1.0000 0.58440  0.59770  0.91860  Biso   1.000  H
  H5       1.0000 0.14480  0.97980  0.44410  Biso   1.000  H
  H6       1.0000 0.35520  0.47980  0.05590  Biso   1.000  H
  H7       1.0000 0.85520  0.02020  0.55590  Biso   1.000  H
  H8       1.0000 0.64480  0.52020  0.94410  Biso   1.000  H
  H9       1.0000 0.83700  0.07140  0.20400  Biso   1.000  H
  H10      1.0000 0.66300  0.57140  0.29600  Biso   1.000  H
  H11      1.0000 0.16300  0.92860  0.79600  Biso   1.000  H
  H12      1.0000 0.33700  0.42860  0.70400  Biso   1.000  H
  H13      1.0000 0.82290  0.99050  0.28890  Biso   1.000  H
  H14      1.0000 0.67710  0.49050  0.21110  Biso   1.000  H
  H15      1.0000 0.17710  0.00950  0.71110  Biso   1.000  H
  H16      1.0000 0.32290  0.50950  0.78890  Biso   1.000  H
  H17      1.0000 0.01010  0.58570  0.92960  Biso   1.000  H
  H18      1.0000 0.48990  0.08570  0.57040  Biso   1.000  H
  H19      1.0000 0.98990  0.41430  0.07040  Biso   1.000  H
  H20      1.0000 0.51010  0.91430  0.42960  Biso   1.000  H
  H21      1.0000 0.83010  0.64150  0.03100  Biso   1.000  H
  H22      1.0000 0.66990  0.14150  0.46900  Biso   1.000  H
  H23      1.0000 0.16990  0.35850  0.96900  Biso   1.000  H
  H24      1.0000 0.33010  0.85850  0.53100  Biso   1.000  H
  H25      1.0000 0.84310  0.82180  0.14190  Biso   1.000  H
  H26      1.0000 0.65690  0.32180  0.35810  Biso   1.000  H
  H27      1.0000 0.15690  0.17820  0.85810  Biso   1.000  H
  H28      1.0000 0.34310  0.67820  0.64190  Biso   1.000  H
  H29      1.0000 0.58900  0.93550  0.14900  Biso   1.000  H
  H30      1.0000 0.91100  0.43550  0.35100  Biso   1.000  H
  H31      1.0000 0.41100  0.06450  0.85100  Biso   1.000  H
  H32      1.0000 0.08900  0.56450  0.64900  Biso   1.000  H
  H33      1.0000 0.52280  0.13300  0.16250  Biso   1.000  H
  H34      1.0000 0.97720  0.63300  0.33750  Biso   1.000  H
  H35      1.0000 0.47720  0.86700  0.83750  Biso   1.000  H
  H36      1.0000 0.02280  0.36700  0.66250  Biso   1.000  H
  H37      1.0000 0.29810  0.17420  0.17860  Biso   1.000  H
  H38      1.0000 0.20190  0.67420  0.32140  Biso   1.000  H
  H39      1.0000 0.70190  0.82580  0.82140  Biso   1.000  H
  H40      1.0000 0.79810  0.32580  0.67860  Biso   1.000  H
