data_image0
_cell_length_a       8.4383
_cell_length_b       15.9561
_cell_length_c       16.3975
_cell_angle_alpha    90
_cell_angle_beta     91.8688
_cell_angle_gamma    90

_symmetry_space_group_name_H-M    "P 1"
_symmetry_int_tables_number       1

loop_
  _symmetry_equiv_pos_as_xyz
  'x, y, z'

loop_
  _atom_site_label
  _atom_site_occupancy
  _atom_site_fract_x
  _atom_site_fract_y
  _atom_site_fract_z
  _atom_site_thermal_displace_type
  _atom_site_B_iso_or_equiv
  _atom_site_type_symbol
  Cu1      1.0000 0.72339  0.17298  0.19821  Biso   1.000  Cu
  Cu2      1.0000 0.27661  0.67298  0.30179  Biso   1.000  Cu
  Cu3      1.0000 0.27661  0.82702  0.80179  Biso   1.000  Cu
  Cu4      1.0000 0.72339  0.32702  0.69821  Biso   1.000  Cu
  C1       1.0000 0.40060  0.23770  0.13850  Biso   1.000  C
  C2       1.0000 0.59940  0.73770  0.36150  Biso   1.000  C
  C3       1.0000 0.59940  0.76230  0.86150  Biso   1.000  C
  C4       1.0000 0.40060  0.26230  0.63850  Biso   1.000  C
  H1       1.0000 0.39160  0.27130  0.18450  Biso   1.000  H
  H2       1.0000 0.60840  0.77130  0.31550  Biso   1.000  H
  H3       1.0000 0.60840  0.72870  0.81550  Biso   1.000  H
  H4       1.0000 0.39160  0.22870  0.68450  Biso   1.000  H
  C5       1.0000 0.49230  0.15060  0.05660  Biso   1.000  C
  C6       1.0000 0.50770  0.65060  0.44340  Biso   1.000  C
  C7       1.0000 0.50770  0.84940  0.94340  Biso   1.000  C
  C8       1.0000 0.49230  0.34940  0.55660  Biso   1.000  C
  H5       1.0000 0.55570  0.11140  0.03130  Biso   1.000  H
  H6       1.0000 0.44430  0.61140  0.46870  Biso   1.000  H
  H7       1.0000 0.44430  0.88860  0.96870  Biso   1.000  H
  H8       1.0000 0.55570  0.38860  0.53130  Biso   1.000  H
  C9       1.0000 0.27900  0.16330  0.94750  Biso   1.000  C
  C10      1.0000 0.72100  0.66330  0.55250  Biso   1.000  C
  C11      1.0000 0.72100  0.83670  0.05250  Biso   1.000  C
  C12      1.0000 0.27900  0.33670  0.44750  Biso   1.000  C
  H9       1.0000 0.35310  0.13400  0.91370  Biso   1.000  H
  H10      1.0000 0.64690  0.63400  0.58630  Biso   1.000  H
  H11      1.0000 0.64690  0.86600  0.08630  Biso   1.000  H
  H12      1.0000 0.35310  0.36600  0.41370  Biso   1.000  H
  H13      1.0000 0.25450  0.21650  0.92140  Biso   1.000  H
  H14      1.0000 0.74550  0.71650  0.57860  Biso   1.000  H
  H15      1.0000 0.74550  0.78350  0.07860  Biso   1.000  H
  H16      1.0000 0.25450  0.28350  0.42140  Biso   1.000  H
  C13      1.0000 0.12830  0.11230  0.95090  Biso   1.000  C
  C14      1.0000 0.87170  0.61230  0.54910  Biso   1.000  C
  C15      1.0000 0.87170  0.88770  0.04910  Biso   1.000  C
  C16      1.0000 0.12830  0.38770  0.45090  Biso   1.000  C
  H17      1.0000 0.08500  0.10450  0.89590  Biso   1.000  H
  H18      1.0000 0.91500  0.60450  0.60410  Biso   1.000  H
  H19      1.0000 0.91500  0.89550  0.10410  Biso   1.000  H
  H20      1.0000 0.08500  0.39550  0.39590  Biso   1.000  H
  H21      1.0000 0.15320  0.05740  0.97330  Biso   1.000  H
  H22      1.0000 0.84680  0.55740  0.52670  Biso   1.000  H
  H23      1.0000 0.84680  0.94260  0.02670  Biso   1.000  H
  H24      1.0000 0.15320  0.44260  0.47330  Biso   1.000  H
  C17      1.0000 0.95980  0.12900  0.07270  Biso   1.000  C
  C18      1.0000 0.04020  0.62900  0.42730  Biso   1.000  C
  C19      1.0000 0.04020  0.87100  0.92730  Biso   1.000  C
  C20      1.0000 0.95980  0.37100  0.57270  Biso   1.000  C
  H25      1.0000 0.99450  0.08160  0.10100  Biso   1.000  H
  H26      1.0000 0.00550  0.58160  0.39900  Biso   1.000  H
  H27      1.0000 0.00550  0.91840  0.89900  Biso   1.000  H
  H28      1.0000 0.99450  0.41840  0.60100  Biso   1.000  H
  C21      1.0000 0.84490  0.23970  0.03760  Biso   1.000  C
  C22      1.0000 0.15510  0.73970  0.46240  Biso   1.000  C
  C23      1.0000 0.15510  0.76030  0.96240  Biso   1.000  C
  C24      1.0000 0.84490  0.26030  0.53760  Biso   1.000  C
  H29      1.0000 0.77870  0.28630  0.03910  Biso   1.000  H
  H30      1.0000 0.22130  0.78630  0.46090  Biso   1.000  H
  H31      1.0000 0.22130  0.71370  0.96090  Biso   1.000  H
  H32      1.0000 0.77870  0.21370  0.53910  Biso   1.000  H
  C25      1.0000 0.94970  0.11520  0.33320  Biso   1.000  C
  C26      1.0000 0.05030  0.61520  0.16680  Biso   1.000  C
  C27      1.0000 0.05030  0.88480  0.66680  Biso   1.000  C
  C28      1.0000 0.94970  0.38480  0.83320  Biso   1.000  C
  H33      1.0000 0.87720  0.07890  0.35600  Biso   1.000  H
  H34      1.0000 0.12280  0.57890  0.14400  Biso   1.000  H
  H35      1.0000 0.12280  0.92110  0.64400  Biso   1.000  H
  H36      1.0000 0.87720  0.42110  0.85600  Biso   1.000  H
  C29      1.0000 0.06240  0.20300  0.25920  Biso   1.000  C
  C30      1.0000 0.93760  0.70300  0.24080  Biso   1.000  C
  C31      1.0000 0.93760  0.79700  0.74080  Biso   1.000  C
  C32      1.0000 0.06240  0.29700  0.75920  Biso   1.000  C
  H37      1.0000 0.07920  0.24050  0.21690  Biso   1.000  H
  H38      1.0000 0.92080  0.74050  0.28310  Biso   1.000  H
  H39      1.0000 0.92080  0.75950  0.78310  Biso   1.000  H
  H40      1.0000 0.07920  0.25950  0.71690  Biso   1.000  H
  C33      1.0000 0.17300  0.09580  0.43720  Biso   1.000  C
  C34      1.0000 0.82700  0.59580  0.06280  Biso   1.000  C
  C35      1.0000 0.82700  0.90420  0.56280  Biso   1.000  C
  C36      1.0000 0.17300  0.40420  0.93720  Biso   1.000  C
  H41      1.0000 0.09820  0.06080  0.46530  Biso   1.000  H
  H42      1.0000 0.90180  0.56080  0.03470  Biso   1.000  H
  H43      1.0000 0.90180  0.93920  0.53470  Biso   1.000  H
  H44      1.0000 0.09820  0.43920  0.96530  Biso   1.000  H
  H45      1.0000 0.20080  0.14250  0.47280  Biso   1.000  H
  H46      1.0000 0.79920  0.64250  0.02720  Biso   1.000  H
  H47      1.0000 0.79920  0.85750  0.52720  Biso   1.000  H
  H48      1.0000 0.20080  0.35750  0.97280  Biso   1.000  H
  C37      1.0000 0.32120  0.04510  0.42190  Biso   1.000  C
  C38      1.0000 0.67880  0.54510  0.07810  Biso   1.000  C
  C39      1.0000 0.67880  0.95490  0.57810  Biso   1.000  C
  C40      1.0000 0.32120  0.45490  0.92190  Biso   1.000  C
  H49      1.0000 0.36240  0.02240  0.47320  Biso   1.000  H
  H50      1.0000 0.63760  0.52240  0.02680  Biso   1.000  H
  H51      1.0000 0.63760  0.97760  0.52680  Biso   1.000  H
  H52      1.0000 0.36240  0.47760  0.97320  Biso   1.000  H
  H53      1.0000 0.29410  0.99850  0.38620  Biso   1.000  H
  H54      1.0000 0.70590  0.49850  0.11380  Biso   1.000  H
  H55      1.0000 0.70590  0.00150  0.61380  Biso   1.000  H
  H56      1.0000 0.29410  0.50150  0.88620  Biso   1.000  H
  C41      1.0000 0.49010  0.09330  0.30920  Biso   1.000  C
  C42      1.0000 0.50990  0.59330  0.19080  Biso   1.000  C
  C43      1.0000 0.50990  0.90670  0.69080  Biso   1.000  C
  C44      1.0000 0.49010  0.40670  0.80920  Biso   1.000  C
  H57      1.0000 0.45640  0.05460  0.26990  Biso   1.000  H
  H58      1.0000 0.54360  0.55460  0.23010  Biso   1.000  H
  H59      1.0000 0.54360  0.94540  0.73010  Biso   1.000  H
  H60      1.0000 0.45640  0.44540  0.76990  Biso   1.000  H
  C45      1.0000 0.60140  0.19410  0.37080  Biso   1.000  C
  C46      1.0000 0.39860  0.69410  0.12920  Biso   1.000  C
  C47      1.0000 0.39860  0.80590  0.62920  Biso   1.000  C
  C48      1.0000 0.60140  0.30590  0.87080  Biso   1.000  C
  H61      1.0000 0.66450  0.24110  0.38070  Biso   1.000  H
  H62      1.0000 0.33550  0.74110  0.11930  Biso   1.000  H
  H63      1.0000 0.33550  0.75890  0.61930  Biso   1.000  H
  H64      1.0000 0.66450  0.25890  0.88070  Biso   1.000  H
  N1       1.0000 0.52510  0.18580  0.12810  Biso   1.000  N
  N2       1.0000 0.47490  0.68580  0.37190  Biso   1.000  N
  N3       1.0000 0.47490  0.81420  0.87190  Biso   1.000  N
  N4       1.0000 0.52510  0.31420  0.62810  Biso   1.000  N
  N5       1.0000 0.29420  0.23710  0.07890  Biso   1.000  N
  N6       1.0000 0.70580  0.73710  0.42110  Biso   1.000  N
  N7       1.0000 0.70580  0.76290  0.92110  Biso   1.000  N
  N8       1.0000 0.29420  0.26290  0.57890  Biso   1.000  N
  N9       1.0000 0.35540  0.17960  0.02620  Biso   1.000  N
  N10      1.0000 0.64460  0.67960  0.47380  Biso   1.000  N
  N11      1.0000 0.64460  0.82040  0.97380  Biso   1.000  N
  N12      1.0000 0.35540  0.32040  0.52620  Biso   1.000  N
  N13      1.0000 0.00850  0.15240  0.00070  Biso   1.000  N
  N14      1.0000 0.99150  0.65240  0.49930  Biso   1.000  N
  N15      1.0000 0.99150  0.84760  0.99930  Biso   1.000  N
  N16      1.0000 0.00850  0.34760  0.50070  Biso   1.000  N
  N17      1.0000 0.93610  0.22450  0.97630  Biso   1.000  N
  N18      1.0000 0.06390  0.72450  0.52370  Biso   1.000  N
  N19      1.0000 0.06390  0.77550  0.02370  Biso   1.000  N
  N20      1.0000 0.93610  0.27550  0.47630  Biso   1.000  N
  N21      1.0000 0.85390  0.18320  0.09840  Biso   1.000  N
  N22      1.0000 0.14610  0.68320  0.40160  Biso   1.000  N
  N23      1.0000 0.14610  0.81680  0.90160  Biso   1.000  N
  N24      1.0000 0.85390  0.31680  0.59840  Biso   1.000  N
  N25      1.0000 0.92150  0.16090  0.26730  Biso   1.000  N
  N26      1.0000 0.07850  0.66090  0.23270  Biso   1.000  N
  N27      1.0000 0.07850  0.83910  0.73270  Biso   1.000  N
  N28      1.0000 0.92150  0.33910  0.76730  Biso   1.000  N
  N29      1.0000 0.09640  0.12830  0.36240  Biso   1.000  N
  N30      1.0000 0.90360  0.62830  0.13760  Biso   1.000  N
  N31      1.0000 0.90360  0.87170  0.63760  Biso   1.000  N
  N32      1.0000 0.09640  0.37170  0.86240  Biso   1.000  N
  N33      1.0000 0.16910  0.18630  0.31470  Biso   1.000  N
  N34      1.0000 0.83090  0.68630  0.18530  Biso   1.000  N
  N35      1.0000 0.83090  0.81370  0.68530  Biso   1.000  N
  N36      1.0000 0.16910  0.31370  0.81470  Biso   1.000  N
  N37      1.0000 0.44330  0.09580  0.38490  Biso   1.000  N
  N38      1.0000 0.55670  0.59580  0.11510  Biso   1.000  N
  N39      1.0000 0.55670  0.90420  0.61510  Biso   1.000  N
  N40      1.0000 0.44330  0.40420  0.88490  Biso   1.000  N
  N41      1.0000 0.51420  0.16110  0.42610  Biso   1.000  N
  N42      1.0000 0.48580  0.66110  0.07390  Biso   1.000  N
  N43      1.0000 0.48580  0.83890  0.57390  Biso   1.000  N
  N44      1.0000 0.51420  0.33890  0.92610  Biso   1.000  N
  N45      1.0000 0.59290  0.15480  0.29780  Biso   1.000  N
  N46      1.0000 0.40710  0.65480  0.20220  Biso   1.000  N
  N47      1.0000 0.40710  0.84520  0.70220  Biso   1.000  N
  N48      1.0000 0.59290  0.34520  0.79780  Biso   1.000  N
  N49      1.0000 0.12340  0.08150  0.65480  Biso   1.000  N
  N50      1.0000 0.87660  0.58150  0.84520  Biso   1.000  N
  N51      1.0000 0.87660  0.91850  0.34520  Biso   1.000  N
  N52      1.0000 0.12340  0.41850  0.15480  Biso   1.000  N
  N53      1.0000 0.30370  0.96340  0.13050  Biso   1.000  N
  N54      1.0000 0.69630  0.46340  0.36950  Biso   1.000  N
  N55      1.0000 0.69630  0.03660  0.86950  Biso   1.000  N
  N56      1.0000 0.30370  0.53660  0.63050  Biso   1.000  N
  O1       1.0000 0.71070  0.01810  0.17320  Biso   1.000  O
  O2       1.0000 0.28930  0.51810  0.32680  Biso   1.000  O
  O3       1.0000 0.28930  0.98190  0.82680  Biso   1.000  O
  O4       1.0000 0.71070  0.48190  0.67320  Biso   1.000  O
  H65      1.0000 0.75900  0.99170  0.21160  Biso   1.000  H
  H66      1.0000 0.24100  0.49170  0.28840  Biso   1.000  H
  H67      1.0000 0.24100  0.00830  0.78840  Biso   1.000  H
  H68      1.0000 0.75900  0.50830  0.71160  Biso   1.000  H
  H69      1.0000 0.61470  0.00220  0.16710  Biso   1.000  H
  H70      1.0000 0.38530  0.50220  0.33290  Biso   1.000  H
  H71      1.0000 0.38530  0.99780  0.83290  Biso   1.000  H
  H72      1.0000 0.61470  0.49780  0.66710  Biso   1.000  H
  O5       1.0000 0.73970  0.32510  0.20940  Biso   1.000  O
  O6       1.0000 0.26030  0.82510  0.29060  Biso   1.000  O
  O7       1.0000 0.26030  0.67490  0.79060  Biso   1.000  O
  O8       1.0000 0.73970  0.17490  0.70940  Biso   1.000  O
  H73      1.0000 0.68530  0.35500  0.24090  Biso   1.000  H
  H74      1.0000 0.31470  0.85500  0.25910  Biso   1.000  H
  H75      1.0000 0.31470  0.64500  0.75910  Biso   1.000  H
  H76      1.0000 0.68530  0.14500  0.74090  Biso   1.000  H
  H77      1.0000 0.81420  0.35130  0.18740  Biso   1.000  H
  H78      1.0000 0.18580  0.85130  0.31260  Biso   1.000  H
  H79      1.0000 0.18580  0.64870  0.81260  Biso   1.000  H
  H80      1.0000 0.81420  0.14870  0.68740  Biso   1.000  H
  O9       1.0000 0.99530  0.09270  0.61730  Biso   1.000  O
  O10      1.0000 0.00470  0.59270  0.88270  Biso   1.000  O
  O11      1.0000 0.00470  0.90730  0.38270  Biso   1.000  O
  O12      1.0000 0.99530  0.40730  0.11730  Biso   1.000  O
  O13      1.0000 0.23420  0.04620  0.62270  Biso   1.000  O
  O14      1.0000 0.76580  0.54620  0.87730  Biso   1.000  O
  O15      1.0000 0.76580  0.95380  0.37730  Biso   1.000  O
  O16      1.0000 0.23420  0.45380  0.12270  Biso   1.000  O
  O17      1.0000 0.13960  0.10580  0.72710  Biso   1.000  O
  O18      1.0000 0.86040  0.60580  0.77290  Biso   1.000  O
  O19      1.0000 0.86040  0.89420  0.27290  Biso   1.000  O
  O20      1.0000 0.13960  0.39420  0.22710  Biso   1.000  O
  O21      1.0000 0.28950  0.96520  0.05870  Biso   1.000  O
  O22      1.0000 0.71050  0.46520  0.44130  Biso   1.000  O
  O23      1.0000 0.71050  0.03480  0.94130  Biso   1.000  O
  O24      1.0000 0.28950  0.53480  0.55870  Biso   1.000  O
  O25      1.0000 0.41160  0.92910  0.17060  Biso   1.000  O
  O26      1.0000 0.58840  0.42910  0.32940  Biso   1.000  O
  O27      1.0000 0.58840  0.07090  0.82940  Biso   1.000  O
  O28      1.0000 0.41160  0.57090  0.67060  Biso   1.000  O
  O29      1.0000 0.20390  0.00230  0.17000  Biso   1.000  O
  O30      1.0000 0.79610  0.50230  0.33000  Biso   1.000  O
  O31      1.0000 0.79610  0.99770  0.83000  Biso   1.000  O
  O32      1.0000 0.20390  0.49770  0.67000  Biso   1.000  O
