data_image0
_cell_length_a       7.9724
_cell_length_b       13.791
_cell_length_c       10.8841
_cell_angle_alpha    90
_cell_angle_beta     90.968
_cell_angle_gamma    90

_symmetry_space_group_name_H-M    "P 1"
_symmetry_int_tables_number       1

loop_
  _symmetry_equiv_pos_as_xyz
  'x, y, z'

loop_
  _atom_site_label
  _atom_site_occupancy
  _atom_site_fract_x
  _atom_site_fract_y
  _atom_site_fract_z
  _atom_site_thermal_displace_type
  _atom_site_B_iso_or_equiv
  _atom_site_type_symbol
  Cu1      1.0000 0.00000  0.50000  0.50000  Biso   1.000  Cu
  Cu2      1.0000 0.50000  0.00000  0.00000  Biso   1.000  Cu
  C1       1.0000 0.19110  0.44838  0.27200  Biso   1.000  C
  C2       1.0000 0.30890  0.94838  0.22800  Biso   1.000  C
  C3       1.0000 0.80890  0.55162  0.72800  Biso   1.000  C
  C4       1.0000 0.69110  0.05162  0.77200  Biso   1.000  C
  H1       1.0000 0.11580  0.48060  0.22010  Biso   1.000  H
  H2       1.0000 0.38420  0.98060  0.27990  Biso   1.000  H
  H3       1.0000 0.88420  0.51940  0.77990  Biso   1.000  H
  H4       1.0000 0.61580  0.01940  0.72010  Biso   1.000  H
  C5       1.0000 0.31550  0.38990  0.42660  Biso   1.000  C
  C6       1.0000 0.18450  0.88990  0.07340  Biso   1.000  C
  C7       1.0000 0.68450  0.61010  0.57340  Biso   1.000  C
  C8       1.0000 0.81550  0.11010  0.92660  Biso   1.000  C
  H5       1.0000 0.34110  0.37480  0.50800  Biso   1.000  H
  H6       1.0000 0.15890  0.87480  0.99200  Biso   1.000  H
  H7       1.0000 0.65890  0.62520  0.49200  Biso   1.000  H
  H8       1.0000 0.84110  0.12520  0.00800  Biso   1.000  H
  C9       1.0000 0.39100  0.38725  0.11320  Biso   1.000  C
  C10      1.0000 0.10900  0.88725  0.38680  Biso   1.000  C
  C11      1.0000 0.60900  0.61275  0.88680  Biso   1.000  C
  C12      1.0000 0.89100  0.11275  0.61320  Biso   1.000  C
  H9       1.0000 0.50950  0.40330  0.11400  Biso   1.000  H
  H10      1.0000 0.99050  0.90330  0.38600  Biso   1.000  H
  H11      1.0000 0.49050  0.59670  0.88600  Biso   1.000  H
  H12      1.0000 0.00950  0.09670  0.61400  Biso   1.000  H
  H13      1.0000 0.33410  0.43130  0.05690  Biso   1.000  H
  H14      1.0000 0.16590  0.93130  0.44310  Biso   1.000  H
  H15      1.0000 0.66590  0.56870  0.94310  Biso   1.000  H
  H16      1.0000 0.83410  0.06870  0.55690  Biso   1.000  H
  C13      1.0000 0.47230  0.21303  0.08320  Biso   1.000  C
  C14      1.0000 0.02770  0.71303  0.41680  Biso   1.000  C
  C15      1.0000 0.52770  0.78697  0.91680  Biso   1.000  C
  C16      1.0000 0.97230  0.28697  0.58320  Biso   1.000  C
  H17      1.0000 0.57520  0.21470  0.12460  Biso   1.000  H
  H18      1.0000 0.92480  0.71470  0.37540  Biso   1.000  H
  H19      1.0000 0.42480  0.78530  0.87540  Biso   1.000  H
  H20      1.0000 0.07520  0.28530  0.62460  Biso   1.000  H
  C17      1.0000 0.25960  0.16897  0.98140  Biso   1.000  C
  C18      1.0000 0.24040  0.66897  0.51860  Biso   1.000  C
  C19      1.0000 0.74040  0.83103  0.01860  Biso   1.000  C
  C20      1.0000 0.75960  0.33103  0.48140  Biso   1.000  C
  H21      1.0000 0.18530  0.13000  0.93690  Biso   1.000  H
  H22      1.0000 0.31470  0.63000  0.56310  Biso   1.000  H
  H23      1.0000 0.81470  0.87000  0.06310  Biso   1.000  H
  H24      1.0000 0.68530  0.37000  0.43690  Biso   1.000  H
  N1       1.0000 0.18010  0.44420  0.39200  Biso   1.000  N
  N2       1.0000 0.31990  0.94420  0.10800  Biso   1.000  N
  N3       1.0000 0.81990  0.55580  0.60800  Biso   1.000  N
  N4       1.0000 0.68010  0.05580  0.89200  Biso   1.000  N
  N5       1.0000 0.32530  0.39994  0.23530  Biso   1.000  N
  N6       1.0000 0.17470  0.89994  0.26470  Biso   1.000  N
  N7       1.0000 0.67470  0.60006  0.76470  Biso   1.000  N
  N8       1.0000 0.82530  0.10006  0.73530  Biso   1.000  N
  N9       1.0000 0.40630  0.36094  0.33440  Biso   1.000  N
  N10      1.0000 0.09370  0.86094  0.16560  Biso   1.000  N
  N11      1.0000 0.59370  0.63906  0.66560  Biso   1.000  N
  N12      1.0000 0.90630  0.13906  0.83440  Biso   1.000  N
  N13      1.0000 0.36860  0.28791  0.07010  Biso   1.000  N
  N14      1.0000 0.13140  0.78791  0.42990  Biso   1.000  N
  N15      1.0000 0.63140  0.71209  0.92990  Biso   1.000  N
  N16      1.0000 0.86860  0.21209  0.57010  Biso   1.000  N
  N17      1.0000 0.23100  0.26091  0.00430  Biso   1.000  N
  N18      1.0000 0.26900  0.76091  0.49570  Biso   1.000  N
  N19      1.0000 0.76900  0.73909  0.99570  Biso   1.000  N
  N20      1.0000 0.73100  0.23909  0.50430  Biso   1.000  N
  N21      1.0000 0.40720  0.13605  0.02850  Biso   1.000  N
  N22      1.0000 0.09280  0.63605  0.47150  Biso   1.000  N
  N23      1.0000 0.59280  0.86395  0.97150  Biso   1.000  N
  N24      1.0000 0.90720  0.36395  0.52850  Biso   1.000  N
  N25      1.0000 0.99510  0.83904  0.71460  Biso   1.000  N
  N26      1.0000 0.50490  0.33904  0.78540  Biso   1.000  N
  N27      1.0000 0.00490  0.16096  0.28540  Biso   1.000  N
  N28      1.0000 0.49510  0.66096  0.21460  Biso   1.000  N
  O1       1.0000 0.17800  0.48352  0.67720  Biso   1.000  O
  O2       1.0000 0.32200  0.98352  0.82280  Biso   1.000  O
  O3       1.0000 0.82200  0.51648  0.32280  Biso   1.000  O
  O4       1.0000 0.67800  0.01648  0.17720  Biso   1.000  O
  H25      1.0000 0.23840  0.43620  0.70040  Biso   1.000  H
  H26      1.0000 0.26160  0.93620  0.79960  Biso   1.000  H
  H27      1.0000 0.76160  0.56380  0.29960  Biso   1.000  H
  H28      1.0000 0.73840  0.06380  0.20040  Biso   1.000  H
  H29      1.0000 0.17960  0.52830  0.73050  Biso   1.000  H
  H30      1.0000 0.32040  0.02830  0.76950  Biso   1.000  H
  H31      1.0000 0.82040  0.47170  0.26950  Biso   1.000  H
  H32      1.0000 0.67960  0.97170  0.23050  Biso   1.000  H
  O5       1.0000 0.99630  0.91537  0.65710  Biso   1.000  O
  O6       1.0000 0.50370  0.41537  0.84290  Biso   1.000  O
  O7       1.0000 0.00370  0.08463  0.34290  Biso   1.000  O
  O8       1.0000 0.49630  0.58463  0.15710  Biso   1.000  O
  O9       1.0000 0.88240  0.78080  0.70060  Biso   1.000  O
  O10      1.0000 0.61760  0.28080  0.79940  Biso   1.000  O
  O11      1.0000 0.11760  0.21920  0.29940  Biso   1.000  O
  O12      1.0000 0.38240  0.71920  0.20060  Biso   1.000  O
  O13      1.0000 0.11780  0.81813  0.78420  Biso   1.000  O
  O14      1.0000 0.38220  0.31813  0.71580  Biso   1.000  O
  O15      1.0000 0.88220  0.18187  0.21580  Biso   1.000  O
  O16      1.0000 0.61780  0.68187  0.28420  Biso   1.000  O
  O17      1.0000 0.18730  0.62764  0.84830  Biso   1.000  O
  O18      1.0000 0.31270  0.12764  0.65170  Biso   1.000  O
  O19      1.0000 0.81270  0.37236  0.15170  Biso   1.000  O
  O20      1.0000 0.68730  0.87236  0.34830  Biso   1.000  O
  H33      1.0000 0.14540  0.61470  0.91890  Biso   1.000  H
  H34      1.0000 0.35460  0.11470  0.58110  Biso   1.000  H
  H35      1.0000 0.85460  0.38530  0.08110  Biso   1.000  H
  H36      1.0000 0.64540  0.88530  0.41890  Biso   1.000  H
  H37      1.0000 0.15350  0.68400  0.82630  Biso   1.000  H
  H38      1.0000 0.34650  0.18400  0.67370  Biso   1.000  H
  H39      1.0000 0.84650  0.31600  0.17370  Biso   1.000  H
  H40      1.0000 0.65350  0.81600  0.32630  Biso   1.000  H
  O21      1.0000 0.08190  0.62283  0.09020  Biso   1.000  O
  O22      1.0000 0.41810  0.12283  0.40980  Biso   1.000  O
  O23      1.0000 0.91810  0.37717  0.90980  Biso   1.000  O
  O24      1.0000 0.58190  0.87717  0.59020  Biso   1.000  O
  H41      1.0000 0.17170  0.65070  0.11510  Biso   1.000  H
  H42      1.0000 0.32830  0.15070  0.38490  Biso   1.000  H
  H43      1.0000 0.82830  0.34930  0.88490  Biso   1.000  H
  H44      1.0000 0.67170  0.84930  0.61510  Biso   1.000  H
  H45      1.0000 0.99530  0.65840  0.09190  Biso   1.000  H
  H46      1.0000 0.50470  0.15840  0.40810  Biso   1.000  H
  H47      1.0000 0.00470  0.34160  0.90810  Biso   1.000  H
  H48      1.0000 0.49530  0.84160  0.59190  Biso   1.000  H
