data_image0
_cell_length_a       7.5888
_cell_length_b       8.7339
_cell_length_c       9.1187
_cell_angle_alpha    79.001
_cell_angle_beta     75.737
_cell_angle_gamma    64.706

_symmetry_space_group_name_H-M    "P 1"
_symmetry_int_tables_number       1

loop_
  _symmetry_equiv_pos_as_xyz
  'x, y, z'

loop_
  _atom_site_label
  _atom_site_occupancy
  _atom_site_fract_x
  _atom_site_fract_y
  _atom_site_fract_z
  _atom_site_thermal_displace_type
  _atom_site_B_iso_or_equiv
  _atom_site_type_symbol
  Cu1      1.0000 0.63780  0.28490  0.96940  Biso   1.000  Cu
  C1       1.0000 0.46300  0.13100  0.26600  Biso   1.000  C
  H1       1.0000 0.45440  0.21310  0.32200  Biso   1.000  H
  C2       1.0000 0.49900  0.99100  0.08600  Biso   1.000  C
  H2       1.0000 0.53230  0.95660  0.98850  Biso   1.000  H
  C3       1.0000 0.27600  0.99300  0.46800  Biso   1.000  C
  H3       1.0000 0.14990  0.99820  0.45540  Biso   1.000  H
  H4       1.0000 0.24920  0.08330  0.52830  Biso   1.000  H
  C4       1.0000 0.39600  0.81500  0.54900  Biso   1.000  C
  H5       1.0000 0.45590  0.72980  0.47660  Biso   1.000  H
  H6       1.0000 0.50020  0.82100  0.58760  Biso   1.000  H
  C5       1.0000 0.25400  0.76600  0.67800  Biso   1.000  C
  H7       1.0000 0.16410  0.74290  0.63580  Biso   1.000  H
  H8       1.0000 0.33060  0.66160  0.73380  Biso   1.000  H
  C6       1.0000 0.94900  0.98600  0.80800  Biso   1.000  C
  H9       1.0000 0.85830  0.97690  0.76150  Biso   1.000  H
  C7       1.0000 0.07600  0.06900  0.94400  Biso   1.000  C
  H10      1.0000 0.09240  0.13080  0.00880  Biso   1.000  H
  C8       1.0000 0.81100  0.43800  0.67400  Biso   1.000  C
  H11      1.0000 0.80510  0.36510  0.61520  Biso   1.000  H
  C9       1.0000 0.76100  0.57800  0.85400  Biso   1.000  C
  H12      1.0000 0.72020  0.61530  0.95050  Biso   1.000  H
  C10      1.0000 0.99000  0.58800  0.47100  Biso   1.000  C
  H13      1.0000 0.11830  0.58220  0.47750  Biso   1.000  H
  H14      1.0000 0.01400  0.49820  0.41070  Biso   1.000  H
  C11      1.0000 0.88500  0.75300  0.38700  Biso   1.000  C
  H15      1.0000 0.78090  0.74530  0.34990  Biso   1.000  H
  H16      1.0000 0.82300  0.83950  0.45830  Biso   1.000  H
  C12      1.0000 0.01100  0.81100  0.25700  Biso   1.000  C
  H17      1.0000 0.92730  0.91070  0.20160  Biso   1.000  H
  H18      1.0000 0.09840  0.84230  0.29530  Biso   1.000  H
  C13      1.0000 0.32600  0.58400  0.13600  Biso   1.000  C
  H19      1.0000 0.41360  0.59790  0.18280  Biso   1.000  H
  C14      1.0000 0.19400  0.50600  0.00700  Biso   1.000  C
  H20      1.0000 0.18490  0.44780  0.93550  Biso   1.000  H
  N1       1.0000 0.54600  0.12030  0.12180  Biso   1.000  N
  N2       1.0000 0.39400  0.01430  0.32090  Biso   1.000  N
  N3       1.0000 0.40860  0.92930  0.19880  Biso   1.000  N
  N4       1.0000 0.13800  0.89300  0.78500  Biso   1.000  N
  N5       1.0000 0.22900  0.93090  0.86950  Biso   1.000  N
  N6       1.0000 0.90500  0.09580  0.90750  Biso   1.000  N
  N7       1.0000 0.74100  0.44770  0.82460  Biso   1.000  N
  N8       1.0000 0.88800  0.55200  0.62700  Biso   1.000  N
  N9       1.0000 0.84700  0.65580  0.72970  Biso   1.000  N
  N10      1.0000 0.13100  0.67600  0.15400  Biso   1.000  N
  N11      1.0000 0.04400  0.61670  0.07100  Biso   1.000  N
  N12      1.0000 0.37500  0.46900  0.04100  Biso   1.000  N
  N13      1.0000 0.80610  0.35970  0.26910  Biso   1.000  N
  N14      1.0000 0.48100  0.23200  0.65800  Biso   1.000  N
  O1       1.0000 0.77800  0.30350  0.16850  Biso   1.000  O
  O2       1.0000 0.94100  0.26760  0.34140  Biso   1.000  O
  O3       1.0000 0.65100  0.44820  0.36250  Biso   1.000  O
  O4       1.0000 0.50000  0.21920  0.79480  Biso   1.000  O
  O5       1.0000 0.29900  0.29300  0.64380  Biso   1.000  O
  O6       1.0000 0.58700  0.08570  0.61120  Biso   1.000  O
