data_image0
_cell_length_a       15.101
_cell_length_b       10.3517
_cell_length_c       16.997
_cell_angle_alpha    90
_cell_angle_beta     90
_cell_angle_gamma    90

_symmetry_space_group_name_H-M    "P 1"
_symmetry_int_tables_number       1

loop_
  _symmetry_equiv_pos_as_xyz
  'x, y, z'

loop_
  _atom_site_label
  _atom_site_occupancy
  _atom_site_fract_x
  _atom_site_fract_y
  _atom_site_fract_z
  _atom_site_thermal_displace_type
  _atom_site_B_iso_or_equiv
  _atom_site_type_symbol
  Cu1      1.0000 0.07538  0.78735  0.21668  Biso   1.000  Cu
  Cu2      1.0000 0.42462  0.21265  0.71668  Biso   1.000  Cu
  Cu3      1.0000 0.57538  0.71265  0.78332  Biso   1.000  Cu
  Cu4      1.0000 0.92462  0.28735  0.28332  Biso   1.000  Cu
  Cu5      1.0000 0.92462  0.21265  0.78332  Biso   1.000  Cu
  Cu6      1.0000 0.57538  0.78735  0.28332  Biso   1.000  Cu
  Cu7      1.0000 0.42462  0.28735  0.21668  Biso   1.000  Cu
  Cu8      1.0000 0.07538  0.71265  0.71668  Biso   1.000  Cu
  P1       1.0000 0.23622  0.67593  0.29629  Biso   1.000  P
  P2       1.0000 0.26378  0.32407  0.79629  Biso   1.000  P
  P3       1.0000 0.73622  0.82407  0.70371  Biso   1.000  P
  P4       1.0000 0.76378  0.17593  0.20371  Biso   1.000  P
  P5       1.0000 0.76378  0.32407  0.70371  Biso   1.000  P
  P6       1.0000 0.73622  0.67593  0.20371  Biso   1.000  P
  P7       1.0000 0.26378  0.17593  0.29629  Biso   1.000  P
  P8       1.0000 0.23622  0.82407  0.79629  Biso   1.000  P
  P9       1.0000 0.98594  0.52398  0.17558  Biso   1.000  P
  P10      1.0000 0.51406  0.47602  0.67558  Biso   1.000  P
  P11      1.0000 0.48594  0.97602  0.82442  Biso   1.000  P
  P12      1.0000 0.01406  0.02398  0.32442  Biso   1.000  P
  P13      1.0000 0.01406  0.47602  0.82442  Biso   1.000  P
  P14      1.0000 0.48594  0.52398  0.32442  Biso   1.000  P
  P15      1.0000 0.51406  0.02398  0.17558  Biso   1.000  P
  P16      1.0000 0.98594  0.97602  0.67558  Biso   1.000  P
  O1       1.0000 0.15565  0.75970  0.30872  Biso   1.000  O
  O2       1.0000 0.34435  0.24030  0.80872  Biso   1.000  O
  O3       1.0000 0.65565  0.74030  0.69128  Biso   1.000  O
  O4       1.0000 0.84435  0.25970  0.19128  Biso   1.000  O
  O5       1.0000 0.84435  0.24030  0.69128  Biso   1.000  O
  O6       1.0000 0.65565  0.75970  0.19128  Biso   1.000  O
  O7       1.0000 0.34435  0.25970  0.30872  Biso   1.000  O
  O8       1.0000 0.15565  0.74030  0.80872  Biso   1.000  O
  O9       1.0000 0.26717  0.59998  0.36720  Biso   1.000  O
  O10      1.0000 0.23283  0.40002  0.86720  Biso   1.000  O
  O11      1.0000 0.76717  0.90002  0.63280  Biso   1.000  O
  O12      1.0000 0.73283  0.09998  0.13280  Biso   1.000  O
  O13      1.0000 0.73283  0.40002  0.63280  Biso   1.000  O
  O14      1.0000 0.76717  0.59998  0.13280  Biso   1.000  O
  O15      1.0000 0.23283  0.09998  0.36720  Biso   1.000  O
  O16      1.0000 0.26717  0.90002  0.86720  Biso   1.000  O
  O17      1.0000 0.31211  0.75840  0.25899  Biso   1.000  O
  O18      1.0000 0.18789  0.24160  0.75899  Biso   1.000  O
  O19      1.0000 0.81211  0.74160  0.74101  Biso   1.000  O
  O20      1.0000 0.68789  0.25840  0.24101  Biso   1.000  O
  O21      1.0000 0.68789  0.24160  0.74101  Biso   1.000  O
  O22      1.0000 0.81211  0.75840  0.24101  Biso   1.000  O
  O23      1.0000 0.18789  0.25840  0.25899  Biso   1.000  O
  O24      1.0000 0.31211  0.74160  0.75899  Biso   1.000  O
  H1       1.0000 0.36020  0.72970  0.27290  Biso   1.000  H
  H2       1.0000 0.13980  0.27030  0.77290  Biso   1.000  H
  H3       1.0000 0.86020  0.77030  0.72710  Biso   1.000  H
  H4       1.0000 0.63980  0.22970  0.22710  Biso   1.000  H
  H5       1.0000 0.63980  0.27030  0.72710  Biso   1.000  H
  H6       1.0000 0.86020  0.72970  0.22710  Biso   1.000  H
  H7       1.0000 0.13980  0.22970  0.27290  Biso   1.000  H
  H8       1.0000 0.36020  0.77030  0.77290  Biso   1.000  H
  O25      1.0000 0.96740  0.65340  0.21182  Biso   1.000  O
  O26      1.0000 0.53260  0.34660  0.71182  Biso   1.000  O
  O27      1.0000 0.46740  0.84660  0.78818  Biso   1.000  O
  O28      1.0000 0.03260  0.15340  0.28818  Biso   1.000  O
  O29      1.0000 0.03260  0.34660  0.78818  Biso   1.000  O
  O30      1.0000 0.46740  0.65340  0.28818  Biso   1.000  O
  O31      1.0000 0.53260  0.15340  0.21182  Biso   1.000  O
  O32      1.0000 0.96740  0.84660  0.71182  Biso   1.000  O
  O33      1.0000 0.99876  0.41518  0.23396  Biso   1.000  O
  O34      1.0000 0.50124  0.58482  0.73396  Biso   1.000  O
  O35      1.0000 0.49876  0.08482  0.76604  Biso   1.000  O
  O36      1.0000 0.00124  0.91518  0.26604  Biso   1.000  O
  O37      1.0000 0.00124  0.58482  0.76604  Biso   1.000  O
  O38      1.0000 0.49876  0.41518  0.26604  Biso   1.000  O
  O39      1.0000 0.50124  0.91518  0.23396  Biso   1.000  O
  O40      1.0000 0.99876  0.08482  0.73396  Biso   1.000  O
  O41      1.0000 0.91697  0.49226  0.11055  Biso   1.000  O
  O42      1.0000 0.58303  0.50774  0.61055  Biso   1.000  O
  O43      1.0000 0.41697  0.00774  0.88945  Biso   1.000  O
  O44      1.0000 0.08303  0.99226  0.38945  Biso   1.000  O
  O45      1.0000 0.08303  0.50774  0.88945  Biso   1.000  O
  O46      1.0000 0.41697  0.49226  0.38945  Biso   1.000  O
  O47      1.0000 0.58303  0.99226  0.11055  Biso   1.000  O
  O48      1.0000 0.91697  0.00774  0.61055  Biso   1.000  O
  H9       1.0000 0.86890  0.52340  0.12250  Biso   1.000  H
  H10      1.0000 0.63110  0.47660  0.62250  Biso   1.000  H
  H11      1.0000 0.36890  0.97660  0.87750  Biso   1.000  H
  H12      1.0000 0.13110  0.02340  0.37750  Biso   1.000  H
  H13      1.0000 0.13110  0.47660  0.87750  Biso   1.000  H
  H14      1.0000 0.36890  0.52340  0.37750  Biso   1.000  H
  H15      1.0000 0.63110  0.02340  0.12250  Biso   1.000  H
  H16      1.0000 0.86890  0.97660  0.62250  Biso   1.000  H
  N1       1.0000 0.14789  0.63840  0.15809  Biso   1.000  N
  N2       1.0000 0.35211  0.36160  0.65809  Biso   1.000  N
  N3       1.0000 0.64789  0.86160  0.84191  Biso   1.000  N
  N4       1.0000 0.85211  0.13840  0.34191  Biso   1.000  N
  N5       1.0000 0.85211  0.36160  0.84191  Biso   1.000  N
  N6       1.0000 0.64789  0.63840  0.34191  Biso   1.000  N
  N7       1.0000 0.35211  0.13840  0.15809  Biso   1.000  N
  N8       1.0000 0.14789  0.86160  0.65809  Biso   1.000  N
  N9       1.0000 0.10665  0.88010  0.11859  Biso   1.000  N
  N10      1.0000 0.39335  0.11990  0.61859  Biso   1.000  N
  N11      1.0000 0.60665  0.61990  0.88141  Biso   1.000  N
  N12      1.0000 0.89335  0.38010  0.38141  Biso   1.000  N
  N13      1.0000 0.89335  0.11990  0.88141  Biso   1.000  N
  N14      1.0000 0.60665  0.88010  0.38141  Biso   1.000  N
  N15      1.0000 0.39335  0.38010  0.11859  Biso   1.000  N
  N16      1.0000 0.10665  0.61990  0.61859  Biso   1.000  N
  N17      1.0000 0.18495  0.89090  0.00913  Biso   1.000  N
  N18      1.0000 0.31505  0.10910  0.50913  Biso   1.000  N
  N19      1.0000 0.68495  0.60910  0.99087  Biso   1.000  N
  N20      1.0000 0.81505  0.39090  0.49087  Biso   1.000  N
  N21      1.0000 0.81505  0.10910  0.99087  Biso   1.000  N
  N22      1.0000 0.68495  0.89090  0.49087  Biso   1.000  N
  N23      1.0000 0.31505  0.39090  0.00913  Biso   1.000  N
  N24      1.0000 0.18495  0.60910  0.50913  Biso   1.000  N
  H17      1.0000 0.22150  0.86840  0.97290  Biso   1.000  H
  H18      1.0000 0.27850  0.13160  0.47290  Biso   1.000  H
  H19      1.0000 0.72150  0.63160  0.02710  Biso   1.000  H
  H20      1.0000 0.77850  0.36840  0.52710  Biso   1.000  H
  H21      1.0000 0.77850  0.13160  0.02710  Biso   1.000  H
  H22      1.0000 0.72150  0.86840  0.52710  Biso   1.000  H
  H23      1.0000 0.27850  0.36840  0.97290  Biso   1.000  H
  H24      1.0000 0.22150  0.63160  0.47290  Biso   1.000  H
  C1       1.0000 0.19990  0.56370  0.22000  Biso   1.000  C
  C2       1.0000 0.30010  0.43630  0.72000  Biso   1.000  C
  C3       1.0000 0.69990  0.93630  0.78000  Biso   1.000  C
  C4       1.0000 0.80010  0.06370  0.28000  Biso   1.000  C
  C5       1.0000 0.80010  0.43630  0.78000  Biso   1.000  C
  C6       1.0000 0.69990  0.56370  0.28000  Biso   1.000  C
  C7       1.0000 0.30010  0.06370  0.22000  Biso   1.000  C
  C8       1.0000 0.19990  0.93630  0.72000  Biso   1.000  C
  H25      1.0000 0.25080  0.52250  0.19600  Biso   1.000  H
  H26      1.0000 0.24920  0.47750  0.69600  Biso   1.000  H
  H27      1.0000 0.75080  0.97750  0.80400  Biso   1.000  H
  H28      1.0000 0.74920  0.02250  0.30400  Biso   1.000  H
  H29      1.0000 0.74920  0.47750  0.80400  Biso   1.000  H
  H30      1.0000 0.75080  0.52250  0.30400  Biso   1.000  H
  H31      1.0000 0.24920  0.02250  0.19600  Biso   1.000  H
  H32      1.0000 0.25080  0.97750  0.69600  Biso   1.000  H
  H33      1.0000 0.16280  0.49710  0.24290  Biso   1.000  H
  H34      1.0000 0.33720  0.50290  0.74290  Biso   1.000  H
  H35      1.0000 0.66280  0.00290  0.75710  Biso   1.000  H
  H36      1.0000 0.83720  0.99710  0.25710  Biso   1.000  H
  H37      1.0000 0.83720  0.50290  0.75710  Biso   1.000  H
  H38      1.0000 0.66280  0.49710  0.25710  Biso   1.000  H
  H39      1.0000 0.33720  0.99710  0.24290  Biso   1.000  H
  H40      1.0000 0.16280  0.00290  0.74290  Biso   1.000  H
  C9       1.0000 0.08460  0.54840  0.11678  Biso   1.000  C
  C10      1.0000 0.41540  0.45160  0.61678  Biso   1.000  C
  C11      1.0000 0.58460  0.95160  0.88322  Biso   1.000  C
  C12      1.0000 0.91540  0.04840  0.38322  Biso   1.000  C
  C13      1.0000 0.91540  0.45160  0.88322  Biso   1.000  C
  C14      1.0000 0.58460  0.54840  0.38322  Biso   1.000  C
  C15      1.0000 0.41540  0.04840  0.11678  Biso   1.000  C
  C16      1.0000 0.08460  0.95160  0.61678  Biso   1.000  C
  H41      1.0000 0.11340  0.46600  0.10760  Biso   1.000  H
  H42      1.0000 0.38660  0.53400  0.60760  Biso   1.000  H
  H43      1.0000 0.61340  0.03400  0.89240  Biso   1.000  H
  H44      1.0000 0.88660  0.96600  0.39240  Biso   1.000  H
  H45      1.0000 0.88660  0.53400  0.89240  Biso   1.000  H
  H46      1.0000 0.61340  0.46600  0.39240  Biso   1.000  H
  H47      1.0000 0.38660  0.96600  0.10760  Biso   1.000  H
  H48      1.0000 0.11340  0.03400  0.60760  Biso   1.000  H
  H49      1.0000 0.06840  0.58460  0.06620  Biso   1.000  H
  H50      1.0000 0.43160  0.41540  0.56620  Biso   1.000  H
  H51      1.0000 0.56840  0.91540  0.93380  Biso   1.000  H
  H52      1.0000 0.93160  0.08460  0.43380  Biso   1.000  H
  H53      1.0000 0.93160  0.41540  0.93380  Biso   1.000  H
  H54      1.0000 0.56840  0.58460  0.43380  Biso   1.000  H
  H55      1.0000 0.43160  0.08460  0.06620  Biso   1.000  H
  H56      1.0000 0.06840  0.91540  0.56620  Biso   1.000  H
  C17      1.0000 0.20610  0.70240  0.09983  Biso   1.000  C
  C18      1.0000 0.29390  0.29760  0.59983  Biso   1.000  C
  C19      1.0000 0.70610  0.79760  0.90017  Biso   1.000  C
  C20      1.0000 0.79390  0.20240  0.40017  Biso   1.000  C
  C21      1.0000 0.79390  0.29760  0.90017  Biso   1.000  C
  C22      1.0000 0.70610  0.70240  0.40017  Biso   1.000  C
  C23      1.0000 0.29390  0.20240  0.09983  Biso   1.000  C
  C24      1.0000 0.20610  0.79760  0.59983  Biso   1.000  C
  H57      1.0000 0.26310  0.72120  0.12340  Biso   1.000  H
  H58      1.0000 0.23690  0.27880  0.62340  Biso   1.000  H
  H59      1.0000 0.76310  0.77880  0.87660  Biso   1.000  H
  H60      1.0000 0.73690  0.22120  0.37660  Biso   1.000  H
  H61      1.0000 0.73690  0.27880  0.87660  Biso   1.000  H
  H62      1.0000 0.76310  0.72120  0.37660  Biso   1.000  H
  H63      1.0000 0.23690  0.22120  0.12340  Biso   1.000  H
  H64      1.0000 0.26310  0.77880  0.62340  Biso   1.000  H
  H65      1.0000 0.21550  0.64580  0.05510  Biso   1.000  H
  H66      1.0000 0.28450  0.35420  0.55510  Biso   1.000  H
  H67      1.0000 0.71550  0.85420  0.94490  Biso   1.000  H
  H68      1.0000 0.78450  0.14580  0.44490  Biso   1.000  H
  H69      1.0000 0.78450  0.35420  0.94490  Biso   1.000  H
  H70      1.0000 0.71550  0.64580  0.44490  Biso   1.000  H
  H71      1.0000 0.28450  0.14580  0.05510  Biso   1.000  H
  H72      1.0000 0.21550  0.85420  0.55510  Biso   1.000  H
  C25      1.0000 0.16430  0.82120  0.07413  Biso   1.000  C
  C26      1.0000 0.33570  0.17880  0.57413  Biso   1.000  C
  C27      1.0000 0.66430  0.67880  0.92587  Biso   1.000  C
  C28      1.0000 0.83570  0.32120  0.42587  Biso   1.000  C
  C29      1.0000 0.83570  0.17880  0.92587  Biso   1.000  C
  C30      1.0000 0.66430  0.82120  0.42587  Biso   1.000  C
  C31      1.0000 0.33570  0.32120  0.07413  Biso   1.000  C
  C32      1.0000 0.16430  0.67880  0.57413  Biso   1.000  C
  C33      1.0000 0.08840  0.99790  0.07976  Biso   1.000  C
  C34      1.0000 0.41160  0.00210  0.57976  Biso   1.000  C
  C35      1.0000 0.58840  0.50210  0.92024  Biso   1.000  C
  C36      1.0000 0.91160  0.49790  0.42024  Biso   1.000  C
  C37      1.0000 0.91160  0.00210  0.92024  Biso   1.000  C
  C38      1.0000 0.58840  0.99790  0.42024  Biso   1.000  C
  C39      1.0000 0.41160  0.49790  0.07976  Biso   1.000  C
  C40      1.0000 0.08840  0.50210  0.57976  Biso   1.000  C
  C41      1.0000 0.03290  0.09990  0.09963  Biso   1.000  C
  C42      1.0000 0.46710  0.90010  0.59963  Biso   1.000  C
  C43      1.0000 0.53290  0.40010  0.90037  Biso   1.000  C
  C44      1.0000 0.96710  0.59990  0.40037  Biso   1.000  C
  C45      1.0000 0.96710  0.90010  0.90037  Biso   1.000  C
  C46      1.0000 0.53290  0.09990  0.40037  Biso   1.000  C
  C47      1.0000 0.46710  0.59990  0.09963  Biso   1.000  C
  C48      1.0000 0.03290  0.40010  0.59963  Biso   1.000  C
  H73      1.0000 0.99870  0.09710  0.14510  Biso   1.000  H
  H74      1.0000 0.50130  0.90290  0.64510  Biso   1.000  H
  H75      1.0000 0.49870  0.40290  0.85490  Biso   1.000  H
  H76      1.0000 0.00130  0.59710  0.35490  Biso   1.000  H
  H77      1.0000 0.00130  0.90290  0.85490  Biso   1.000  H
  H78      1.0000 0.49870  0.09710  0.35490  Biso   1.000  H
  H79      1.0000 0.50130  0.59710  0.14510  Biso   1.000  H
  H80      1.0000 0.99870  0.40290  0.64510  Biso   1.000  H
  C49      1.0000 0.03000  0.20460  0.05049  Biso   1.000  C
  C50      1.0000 0.47000  0.79540  0.55049  Biso   1.000  C
  C51      1.0000 0.53000  0.29540  0.94951  Biso   1.000  C
  C52      1.0000 0.97000  0.70460  0.44951  Biso   1.000  C
  C53      1.0000 0.97000  0.79540  0.94951  Biso   1.000  C
  C54      1.0000 0.53000  0.20460  0.44951  Biso   1.000  C
  C55      1.0000 0.47000  0.70460  0.05049  Biso   1.000  C
  C56      1.0000 0.03000  0.29540  0.55049  Biso   1.000  C
  H81      1.0000 0.99350  0.27390  0.06310  Biso   1.000  H
  H82      1.0000 0.50650  0.72610  0.56310  Biso   1.000  H
  H83      1.0000 0.49350  0.22610  0.93690  Biso   1.000  H
  H84      1.0000 0.00650  0.77390  0.43690  Biso   1.000  H
  H85      1.0000 0.00650  0.72610  0.93690  Biso   1.000  H
  H86      1.0000 0.49350  0.27390  0.43690  Biso   1.000  H
  H87      1.0000 0.50650  0.77390  0.06310  Biso   1.000  H
  H88      1.0000 0.99350  0.22610  0.56310  Biso   1.000  H
  C57      1.0000 0.08090  0.20960  0.98170  Biso   1.000  C
  C58      1.0000 0.41910  0.79040  0.48170  Biso   1.000  C
  C59      1.0000 0.58090  0.29040  0.01830  Biso   1.000  C
  C60      1.0000 0.91910  0.70960  0.51830  Biso   1.000  C
  C61      1.0000 0.91910  0.79040  0.01830  Biso   1.000  C
  C62      1.0000 0.58090  0.20960  0.51830  Biso   1.000  C
  C63      1.0000 0.41910  0.70960  0.98170  Biso   1.000  C
  C64      1.0000 0.08090  0.29040  0.48170  Biso   1.000  C
  H89      1.0000 0.07780  0.28200  0.94940  Biso   1.000  H
  H90      1.0000 0.42220  0.71800  0.44940  Biso   1.000  H
  H91      1.0000 0.57780  0.21800  0.05060  Biso   1.000  H
  H92      1.0000 0.92220  0.78200  0.55060  Biso   1.000  H
  H93      1.0000 0.92220  0.71800  0.05060  Biso   1.000  H
  H94      1.0000 0.57780  0.28200  0.55060  Biso   1.000  H
  H95      1.0000 0.42220  0.78200  0.94940  Biso   1.000  H
  H96      1.0000 0.07780  0.21800  0.44940  Biso   1.000  H
  C65      1.0000 0.13580  0.10770  0.96110  Biso   1.000  C
  C66      1.0000 0.36420  0.89230  0.46110  Biso   1.000  C
  C67      1.0000 0.63580  0.39230  0.03890  Biso   1.000  C
  C68      1.0000 0.86420  0.60770  0.53890  Biso   1.000  C
  C69      1.0000 0.86420  0.89230  0.03890  Biso   1.000  C
  C70      1.0000 0.63580  0.10770  0.53890  Biso   1.000  C
  C71      1.0000 0.36420  0.60770  0.96110  Biso   1.000  C
  C72      1.0000 0.13580  0.39230  0.46110  Biso   1.000  C
  H97      1.0000 0.17000  0.10990  0.91560  Biso   1.000  H
  H98      1.0000 0.33000  0.89010  0.41560  Biso   1.000  H
  H99      1.0000 0.67000  0.39010  0.08440  Biso   1.000  H
  H100     1.0000 0.83000  0.60990  0.58440  Biso   1.000  H
  H101     1.0000 0.83000  0.89010  0.08440  Biso   1.000  H
  H102     1.0000 0.67000  0.10990  0.58440  Biso   1.000  H
  H103     1.0000 0.33000  0.60990  0.91560  Biso   1.000  H
  H104     1.0000 0.17000  0.39010  0.41560  Biso   1.000  H
  C73      1.0000 0.13760  0.00290  0.01129  Biso   1.000  C
  C74      1.0000 0.36240  0.99710  0.51129  Biso   1.000  C
  C75      1.0000 0.63760  0.49710  0.98871  Biso   1.000  C
  C76      1.0000 0.86240  0.50290  0.48871  Biso   1.000  C
  C77      1.0000 0.86240  0.99710  0.98871  Biso   1.000  C
  C78      1.0000 0.63760  0.00290  0.48871  Biso   1.000  C
  C79      1.0000 0.36240  0.50290  0.01129  Biso   1.000  C
  C80      1.0000 0.13760  0.49710  0.51129  Biso   1.000  C
