data_image0
_cell_length_a       6.2266
_cell_length_b       8.0148
_cell_length_c       14.4432
_cell_angle_alpha    74.698
_cell_angle_beta     84.865
_cell_angle_gamma    84.532

_symmetry_space_group_name_H-M    "P 1"
_symmetry_int_tables_number       1

loop_
  _symmetry_equiv_pos_as_xyz
  'x, y, z'

loop_
  _atom_site_label
  _atom_site_occupancy
  _atom_site_fract_x
  _atom_site_fract_y
  _atom_site_fract_z
  _atom_site_thermal_displace_type
  _atom_site_B_iso_or_equiv
  _atom_site_type_symbol
  Cu1      1.0000 0.50000  0.50000  0.00000  Biso   1.000  Cu
  Cu2      1.0000 0.10497  0.82992  0.25486  Biso   1.000  Cu
  Cu3      1.0000 0.89503  0.17008  0.74514  Biso   1.000  Cu
  Cu4      1.0000 0.00000  0.00000  0.50000  Biso   1.000  Cu
  N1       1.0000 0.71650  0.31680  0.06323  Biso   1.000  N
  N2       1.0000 0.28350  0.68320  0.93677  Biso   1.000  N
  N3       1.0000 0.95110  0.03510  0.17375  Biso   1.000  N
  N4       1.0000 0.04890  0.96490  0.82625  Biso   1.000  N
  N5       1.0000 0.98590  0.25030  0.42865  Biso   1.000  N
  N6       1.0000 0.01410  0.74970  0.57135  Biso   1.000  N
  N7       1.0000 0.05470  0.58920  0.32904  Biso   1.000  N
  N8       1.0000 0.94530  0.41080  0.67096  Biso   1.000  N
  O1       1.0000 0.32070  0.41410  0.11646  Biso   1.000  O
  O2       1.0000 0.67930  0.58590  0.88354  Biso   1.000  O
  O3       1.0000 0.34430  0.24450  0.26497  Biso   1.000  O
  O4       1.0000 0.65570  0.75550  0.73503  Biso   1.000  O
  O5       1.0000 0.25300  0.06060  0.55264  Biso   1.000  O
  O6       1.0000 0.74700  0.93940  0.44736  Biso   1.000  O
  O7       1.0000 0.45900  0.28070  0.53665  Biso   1.000  O
  O8       1.0000 0.54100  0.71930  0.46335  Biso   1.000  O
  O9       1.0000 0.22910  0.93180  0.36705  Biso   1.000  O
  O10      1.0000 0.77090  0.06820  0.63295  Biso   1.000  O
  C1       1.0000 0.41650  0.30070  0.18154  Biso   1.000  C
  C2       1.0000 0.58350  0.69930  0.81846  Biso   1.000  C
  C3       1.0000 0.63880  0.23360  0.15090  Biso   1.000  C
  C4       1.0000 0.36120  0.76640  0.84910  Biso   1.000  C
  C5       1.0000 0.75590  0.09280  0.20625  Biso   1.000  C
  C6       1.0000 0.24410  0.90720  0.79375  Biso   1.000  C
  H1       1.0000 0.69870  0.03690  0.26700  Biso   1.000  H
  H2       1.0000 0.30130  0.96310  0.73300  Biso   1.000  H
  C7       1.0000 0.02910  0.12260  0.08674  Biso   1.000  C
  C8       1.0000 0.97090  0.87740  0.91326  Biso   1.000  C
  H3       1.0000 0.16510  0.08810  0.06300  Biso   1.000  H
  H4       1.0000 0.83490  0.91190  0.93700  Biso   1.000  H
  C9       1.0000 0.91100  0.26390  0.03126  Biso   1.000  C
  C10      1.0000 0.08900  0.73610  0.96874  Biso   1.000  C
  H5       1.0000 0.96880  0.32200  0.97100  Biso   1.000  H
  H6       1.0000 0.03120  0.67800  0.02900  Biso   1.000  H
  C11      1.0000 0.30400  0.21580  0.51717  Biso   1.000  C
  C12      1.0000 0.69600  0.78420  0.48283  Biso   1.000  C
  C13      1.0000 0.15570  0.32750  0.44386  Biso   1.000  C
  C14      1.0000 0.84430  0.67250  0.55614  Biso   1.000  C
  C15      1.0000 0.19110  0.49650  0.39451  Biso   1.000  C
  C16      1.0000 0.80890  0.50350  0.60549  Biso   1.000  C
  H7       1.0000 0.31050  0.54700  0.40660  Biso   1.000  H
  H8       1.0000 0.68950  0.45300  0.59340  Biso   1.000  H
  C17      1.0000 0.88450  0.51040  0.31543  Biso   1.000  C
  C18      1.0000 0.11550  0.48960  0.68457  Biso   1.000  C
  H9       1.0000 0.78730  0.57120  0.27090  Biso   1.000  H
  H10      1.0000 0.21270  0.42880  0.72910  Biso   1.000  H
  C19      1.0000 0.84780  0.34090  0.36536  Biso   1.000  C
  C20      1.0000 0.15220  0.65910  0.63464  Biso   1.000  C
  H11      1.0000 0.72680  0.29080  0.35460  Biso   1.000  H
  H12      1.0000 0.27320  0.70920  0.64540  Biso   1.000  H
  N9       1.0000 0.51230  0.76660  0.13410  Biso   1.000  N
  N10      1.0000 0.48770  0.23340  0.86590  Biso   1.000  N
  O11      1.0000 0.53150  0.77600  0.22070  Biso   1.000  O
  O12      1.0000 0.46850  0.22400  0.77930  Biso   1.000  O
  O13      1.0000 0.65470  0.67680  0.10210  Biso   1.000  O
  O14      1.0000 0.34530  0.32320  0.89790  Biso   1.000  O
  O15      1.0000 0.31510  0.79480  0.11550  Biso   1.000  O
  O16      1.0000 0.68490  0.20520  0.88450  Biso   1.000  O
  O17      1.0000 0.45420  0.76570  0.21280  Biso   1.000  O
  O18      1.0000 0.54580  0.23430  0.78720  Biso   1.000  O
  O19      1.0000 0.46300  0.90120  0.06070  Biso   1.000  O
  O20      1.0000 0.53700  0.09880  0.93930  Biso   1.000  O
  H13      1.0000 0.33500  0.86700  0.39400  Biso   1.000  H
  H14      1.0000 0.66500  0.13300  0.60600  Biso   1.000  H
  H15      1.0000 0.27600  0.02800  0.33400  Biso   1.000  H
  H16      1.0000 0.72400  0.97200  0.66600  Biso   1.000  H
