data_image0
_cell_length_a       8.885
_cell_length_b       9.524
_cell_length_c       11.175
_cell_angle_alpha    85.65
_cell_angle_beta     81.73
_cell_angle_gamma    82.18

_symmetry_space_group_name_H-M    "P 1"
_symmetry_int_tables_number       1

loop_
  _symmetry_equiv_pos_as_xyz
  'x, y, z'

loop_
  _atom_site_label
  _atom_site_occupancy
  _atom_site_fract_x
  _atom_site_fract_y
  _atom_site_fract_z
  _atom_site_thermal_displace_type
  _atom_site_B_iso_or_equiv
  _atom_site_type_symbol
  Co1      1.0000 0.00000  0.00000  0.50000  Biso   1.000  Co
  Cu1      1.0000 0.15599  0.28595  0.22373  Biso   1.000  Cu
  Cu2      1.0000 0.84401  0.71405  0.77627  Biso   1.000  Cu
  Br1      1.0000 0.46087  0.26022  0.94836  Biso   1.000  Br
  Br2      1.0000 0.53913  0.73978  0.05164  Biso   1.000  Br
  C1       1.0000 0.92090  0.18590  0.11900  Biso   1.000  C
  C2       1.0000 0.07910  0.81410  0.88100  Biso   1.000  C
  C3       1.0000 0.85060  0.07640  0.08520  Biso   1.000  C
  C4       1.0000 0.14940  0.92360  0.91480  Biso   1.000  C
  H1       1.0000 0.89650  0.98390  0.09890  Biso   1.000  H
  H2       1.0000 0.10350  0.01610  0.90110  Biso   1.000  H
  C5       1.0000 0.71900  0.09490  0.03310  Biso   1.000  C
  C6       1.0000 0.28100  0.90510  0.96690  Biso   1.000  C
  H3       1.0000 0.67940  0.01800  0.00840  Biso   1.000  H
  H4       1.0000 0.32060  0.98200  0.99160  Biso   1.000  H
  C7       1.0000 0.64620  0.23220  0.01830  Biso   1.000  C
  C8       1.0000 0.35380  0.76780  0.98170  Biso   1.000  C
  C9       1.0000 0.70470  0.34400  0.05300  Biso   1.000  C
  C10      1.0000 0.29530  0.65600  0.94700  Biso   1.000  C
  H5       1.0000 0.65370  0.43510  0.04290  Biso   1.000  H
  H6       1.0000 0.34630  0.56490  0.95710  Biso   1.000  H
  C11      1.0000 0.84210  0.32370  0.10440  Biso   1.000  C
  C12      1.0000 0.15790  0.67630  0.89560  Biso   1.000  C
  C13      1.0000 0.89440  0.45090  0.13870  Biso   1.000  C
  C14      1.0000 0.10560  0.54910  0.86130  Biso   1.000  C
  H7       1.0000 0.83650  0.53750  0.12310  Biso   1.000  H
  H8       1.0000 0.16350  0.46250  0.87690  Biso   1.000  H
  C15      1.0000 0.05750  0.58570  0.22550  Biso   1.000  C
  C16      1.0000 0.94250  0.41430  0.77450  Biso   1.000  C
  H9       1.0000 0.97940  0.62670  0.28730  Biso   1.000  H
  H10      1.0000 0.02060  0.37330  0.71270  Biso   1.000  H
  H11      1.0000 0.06590  0.65360  0.15640  Biso   1.000  H
  H12      1.0000 0.93410  0.34640  0.84360  Biso   1.000  H
  C17      1.0000 0.21120  0.55430  0.27480  Biso   1.000  C
  C18      1.0000 0.78880  0.44570  0.72520  Biso   1.000  C
  C19      1.0000 0.41190  0.36640  0.31670  Biso   1.000  C
  C20      1.0000 0.58810  0.63360  0.68330  Biso   1.000  C
  H13      1.0000 0.40940  0.38880  0.40020  Biso   1.000  H
  H14      1.0000 0.59060  0.61120  0.59980  Biso   1.000  H
  H15      1.0000 0.49650  0.40720  0.26790  Biso   1.000  H
  H16      1.0000 0.50350  0.59280  0.73210  Biso   1.000  H
  C21      1.0000 0.43040  0.20800  0.30630  Biso   1.000  C
  C22      1.0000 0.56960  0.79200  0.69370  Biso   1.000  C
  C23      1.0000 0.58510  0.98300  0.34540  Biso   1.000  C
  C24      1.0000 0.41490  0.01700  0.65460  Biso   1.000  C
  H17      1.0000 0.60230  0.95440  0.26250  Biso   1.000  H
  H18      1.0000 0.39770  0.04560  0.73750  Biso   1.000  H
  H19      1.0000 0.49690  0.94140  0.38720  Biso   1.000  H
  H20      1.0000 0.50310  0.05860  0.61280  Biso   1.000  H
  C25      1.0000 0.72580  0.92790  0.40730  Biso   1.000  C
  C26      1.0000 0.27420  0.07210  0.59270  Biso   1.000  C
  N1       1.0000 0.01340  0.45200  0.18850  Biso   1.000  N
  N2       1.0000 0.98660  0.54800  0.81150  Biso   1.000  N
  N3       1.0000 0.26910  0.42140  0.27340  Biso   1.000  N
  N4       1.0000 0.73090  0.57860  0.72660  Biso   1.000  N
  N5       1.0000 0.55370  0.13720  0.34560  Biso   1.000  N
  N6       1.0000 0.44630  0.86280  0.65440  Biso   1.000  N
  H21      1.0000 0.61750  0.18350  0.37220  Biso   1.000  H
  H22      1.0000 0.38250  0.81650  0.62780  Biso   1.000  H
  O1       1.0000 0.05090  0.15510  0.16290  Biso   1.000  O
  O2       1.0000 0.94910  0.84490  0.83710  Biso   1.000  O
  O3       1.0000 0.26850  0.65490  0.30980  Biso   1.000  O
  O4       1.0000 0.73150  0.34510  0.69020  Biso   1.000  O
  O5       1.0000 0.33680  0.14850  0.26270  Biso   1.000  O
  O6       1.0000 0.66320  0.85150  0.73730  Biso   1.000  O
  O7       1.0000 0.76260  0.79860  0.41760  Biso   1.000  O
  O8       1.0000 0.23740  0.20140  0.58240  Biso   1.000  O
  O9       1.0000 0.79010  0.02250  0.44300  Biso   1.000  O
  O10      1.0000 0.20990  0.97750  0.55700  Biso   1.000  O
  O11      1.0000 0.09210  0.92340  0.33020  Biso   1.000  O
  O12      1.0000 0.90790  0.07660  0.66980  Biso   1.000  O
  H23      1.0000 0.09480  0.83360  0.33450  Biso   1.000  H
  H24      1.0000 0.90520  0.16640  0.66550  Biso   1.000  H
  H25      1.0000 0.18250  0.94510  0.31110  Biso   1.000  H
  H26      1.0000 0.81750  0.05490  0.68890  Biso   1.000  H
  O13      1.0000 0.60710  0.61560  0.33610  Biso   1.000  O
  O14      1.0000 0.39290  0.38440  0.66390  Biso   1.000  O
  H27      1.0000 0.66420  0.62510  0.26880  Biso   1.000  H
  H28      1.0000 0.33580  0.37490  0.73120  Biso   1.000  H
  H29      1.0000 0.60060  0.68990  0.37510  Biso   1.000  H
  H30      1.0000 0.39940  0.31010  0.62490  Biso   1.000  H
  O15      1.0000 0.73410  0.34750  0.44190  Biso   1.000  O
  O16      1.0000 0.26590  0.65250  0.55810  Biso   1.000  O
  H31      1.0000 0.73700  0.43330  0.41560  Biso   1.000  H
  H32      1.0000 0.26300  0.56670  0.58440  Biso   1.000  H
  H33      1.0000 0.68880  0.34470  0.51430  Biso   1.000  H
  H34      1.0000 0.31120  0.65530  0.48570  Biso   1.000  H
  O17      1.0000 0.02030  0.21400  0.43600  Biso   1.000  O
  O18      1.0000 0.97970  0.78600  0.56400  Biso   1.000  O
  H35      1.0000 0.11390  0.22150  0.41100  Biso   1.000  H
  H36      1.0000 0.88610  0.77850  0.58900  Biso   1.000  H
  H37      1.0000 0.96770  0.23550  0.37790  Biso   1.000  H
  H38      1.0000 0.03230  0.76450  0.62210  Biso   1.000  H
