data_image0
_cell_length_a       7.043
_cell_length_b       28.741
_cell_length_c       5.94
_cell_angle_alpha    90
_cell_angle_beta     103.06
_cell_angle_gamma    90

_symmetry_space_group_name_H-M    "P 1"
_symmetry_int_tables_number       1

loop_
  _symmetry_equiv_pos_as_xyz
  'x, y, z'

loop_
  _atom_site_label
  _atom_site_occupancy
  _atom_site_fract_x
  _atom_site_fract_y
  _atom_site_fract_z
  _atom_site_thermal_displace_type
  _atom_site_B_iso_or_equiv
  _atom_site_type_symbol
  Cu1      1.0000 0.78545  0.04439  0.16419  Biso   1.000  Cu
  Cu2      1.0000 0.78545  0.95561  0.66419  Biso   1.000  Cu
  Cu3      1.0000 0.28545  0.54439  0.16419  Biso   1.000  Cu
  Cu4      1.0000 0.28545  0.45561  0.66419  Biso   1.000  Cu
  O1       1.0000 0.65290  0.07120  0.37980  Biso   1.000  O
  O2       1.0000 0.65290  0.92880  0.87980  Biso   1.000  O
  O3       1.0000 0.15290  0.57120  0.37980  Biso   1.000  O
  O4       1.0000 0.15290  0.42880  0.87980  Biso   1.000  O
  O5       1.0000 0.91240  0.02549  0.91880  Biso   1.000  O
  O6       1.0000 0.91240  0.97451  0.41880  Biso   1.000  O
  O7       1.0000 0.41240  0.52549  0.91880  Biso   1.000  O
  O8       1.0000 0.41240  0.47451  0.41880  Biso   1.000  O
  O9       1.0000 0.55080  0.00809  0.04880  Biso   1.000  O
  O10      1.0000 0.55080  0.99191  0.54880  Biso   1.000  O
  O11      1.0000 0.05080  0.50809  0.04880  Biso   1.000  O
  O12      1.0000 0.05080  0.49191  0.54880  Biso   1.000  O
  O13      1.0000 0.19680  0.03206  0.81640  Biso   1.000  O
  O14      1.0000 0.19680  0.96794  0.31640  Biso   1.000  O
  O15      1.0000 0.69680  0.53206  0.81640  Biso   1.000  O
  O16      1.0000 0.69680  0.46794  0.31640  Biso   1.000  O
  N1       1.0000 0.00620  0.08349  0.26840  Biso   1.000  N
  N2       1.0000 0.00620  0.91651  0.76840  Biso   1.000  N
  N3       1.0000 0.50620  0.58349  0.26840  Biso   1.000  N
  N4       1.0000 0.50620  0.41651  0.76840  Biso   1.000  N
  C1       1.0000 0.89360  0.12650  0.56230  Biso   1.000  C
  C2       1.0000 0.89360  0.87350  0.06230  Biso   1.000  C
  C3       1.0000 0.39360  0.62650  0.56230  Biso   1.000  C
  C4       1.0000 0.39360  0.37350  0.06230  Biso   1.000  C
  C5       1.0000 0.71510  0.10279  0.53720  Biso   1.000  C
  C6       1.0000 0.71510  0.89721  0.03720  Biso   1.000  C
  C7       1.0000 0.21510  0.60279  0.53720  Biso   1.000  C
  C8       1.0000 0.21510  0.39721  0.03720  Biso   1.000  C
  C9       1.0000 0.59130  0.11218  0.68970  Biso   1.000  C
  C10      1.0000 0.59130  0.88782  0.18970  Biso   1.000  C
  C11      1.0000 0.09130  0.61218  0.68970  Biso   1.000  C
  C12      1.0000 0.09130  0.38782  0.18970  Biso   1.000  C
  C13      1.0000 0.64140  0.14404  0.85920  Biso   1.000  C
  C14      1.0000 0.64140  0.85596  0.35920  Biso   1.000  C
  C15      1.0000 0.14140  0.64404  0.85920  Biso   1.000  C
  C16      1.0000 0.14140  0.35596  0.35920  Biso   1.000  C
  C17      1.0000 0.86800  0.20232  0.07220  Biso   1.000  C
  C18      1.0000 0.86800  0.79768  0.57220  Biso   1.000  C
  C19      1.0000 0.36800  0.70232  0.07220  Biso   1.000  C
  C20      1.0000 0.36800  0.29768  0.57220  Biso   1.000  C
  C21      1.0000 0.03790  0.22640  0.10620  Biso   1.000  C
  C22      1.0000 0.03790  0.77360  0.60620  Biso   1.000  C
  C23      1.0000 0.53790  0.72640  0.10620  Biso   1.000  C
  C24      1.0000 0.53790  0.27360  0.60620  Biso   1.000  C
  C25      1.0000 0.16440  0.21900  0.95930  Biso   1.000  C
  C26      1.0000 0.16440  0.78100  0.45930  Biso   1.000  C
  C27      1.0000 0.66440  0.71900  0.95930  Biso   1.000  C
  C28      1.0000 0.66440  0.28100  0.45930  Biso   1.000  C
  C29      1.0000 0.12040  0.18765  0.78090  Biso   1.000  C
  C30      1.0000 0.12040  0.81235  0.28090  Biso   1.000  C
  C31      1.0000 0.62040  0.68765  0.78090  Biso   1.000  C
  C32      1.0000 0.62040  0.31235  0.28090  Biso   1.000  C
  C33      1.0000 0.94430  0.16155  0.74200  Biso   1.000  C
  C34      1.0000 0.94430  0.83845  0.24200  Biso   1.000  C
  C35      1.0000 0.44430  0.66155  0.74200  Biso   1.000  C
  C36      1.0000 0.44430  0.33845  0.24200  Biso   1.000  C
  C37      1.0000 0.81710  0.16992  0.89020  Biso   1.000  C
  C38      1.0000 0.81710  0.83008  0.39020  Biso   1.000  C
  C39      1.0000 0.31710  0.66992  0.89020  Biso   1.000  C
  C40      1.0000 0.31710  0.33008  0.39020  Biso   1.000  C
  C41      1.0000 0.02900  0.11513  0.42380  Biso   1.000  C
  C42      1.0000 0.02900  0.88487  0.92380  Biso   1.000  C
  C43      1.0000 0.52900  0.61513  0.42380  Biso   1.000  C
  C44      1.0000 0.52900  0.38487  0.92380  Biso   1.000  C
  C45      1.0000 0.15750  0.07450  0.14170  Biso   1.000  C
  C46      1.0000 0.15750  0.92550  0.64170  Biso   1.000  C
  C47      1.0000 0.65750  0.57450  0.14170  Biso   1.000  C
  C48      1.0000 0.65750  0.42550  0.64170  Biso   1.000  C
  C49      1.0000 0.08580  0.04143  0.94440  Biso   1.000  C
  C50      1.0000 0.08580  0.95857  0.44440  Biso   1.000  C
  C51      1.0000 0.58580  0.54143  0.94440  Biso   1.000  C
  C52      1.0000 0.58580  0.45857  0.44440  Biso   1.000  C
  H1       1.0000 0.43784  0.02350  0.95830  Biso   1.000  H
  H2       1.0000 0.43784  0.97650  0.45830  Biso   1.000  H
  H3       1.0000 0.93784  0.52350  0.95830  Biso   1.000  H
  H4       1.0000 0.93784  0.47650  0.45830  Biso   1.000  H
  H5       1.0000 0.59054  0.98520  0.95030  Biso   1.000  H
  H6       1.0000 0.59054  0.01480  0.45030  Biso   1.000  H
  H7       1.0000 0.09054  0.48520  0.95030  Biso   1.000  H
  H8       1.0000 0.09054  0.51480  0.45030  Biso   1.000  H
  H9       1.0000 0.47417  0.09617  0.67253  Biso   1.000  H
  H10      1.0000 0.47417  0.90383  0.17253  Biso   1.000  H
  H11      1.0000 0.97417  0.59617  0.67253  Biso   1.000  H
  H12      1.0000 0.97417  0.40383  0.17253  Biso   1.000  H
  H13      1.0000 0.55871  0.14921  0.95856  Biso   1.000  H
  H14      1.0000 0.55871  0.85079  0.45856  Biso   1.000  H
  H15      1.0000 0.05871  0.64921  0.95856  Biso   1.000  H
  H16      1.0000 0.05871  0.35079  0.45856  Biso   1.000  H
  H17      1.0000 0.78401  0.20727  0.17025  Biso   1.000  H
  H18      1.0000 0.78401  0.79273  0.67025  Biso   1.000  H
  H19      1.0000 0.28401  0.70727  0.17025  Biso   1.000  H
  H20      1.0000 0.28401  0.29273  0.67025  Biso   1.000  H
  H21      1.0000 0.06997  0.24767  0.22678  Biso   1.000  H
  H22      1.0000 0.06997  0.75233  0.72678  Biso   1.000  H
  H23      1.0000 0.56997  0.74767  0.22678  Biso   1.000  H
  H24      1.0000 0.56997  0.25233  0.72678  Biso   1.000  H
  H25      1.0000 0.28042  0.23566  0.98276  Biso   1.000  H
  H26      1.0000 0.28042  0.76434  0.48276  Biso   1.000  H
  H27      1.0000 0.78042  0.73566  0.98276  Biso   1.000  H
  H28      1.0000 0.78042  0.26434  0.48276  Biso   1.000  H
  H29      1.0000 0.20642  0.18341  0.68467  Biso   1.000  H
  H30      1.0000 0.20642  0.81659  0.18467  Biso   1.000  H
  H31      1.0000 0.70642  0.68341  0.68467  Biso   1.000  H
  H32      1.0000 0.70642  0.31659  0.18467  Biso   1.000  H
  H33      1.0000 0.14382  0.13228  0.44893  Biso   1.000  H
  H34      1.0000 0.14382  0.86772  0.94893  Biso   1.000  H
  H35      1.0000 0.64382  0.63228  0.44893  Biso   1.000  H
  H36      1.0000 0.64382  0.36772  0.94893  Biso   1.000  H
  H37      1.0000 0.27101  0.06133  0.24579  Biso   1.000  H
  H38      1.0000 0.27101  0.93867  0.74579  Biso   1.000  H
  H39      1.0000 0.77101  0.56133  0.24579  Biso   1.000  H
  H40      1.0000 0.77101  0.43867  0.74579  Biso   1.000  H
  H41      1.0000 0.19616  0.10358  0.08223  Biso   1.000  H
  H42      1.0000 0.19616  0.89642  0.58223  Biso   1.000  H
  H43      1.0000 0.69616  0.60358  0.08223  Biso   1.000  H
  H44      1.0000 0.69616  0.39642  0.58223  Biso   1.000  H
