data_image0
_cell_length_a       7.5003
_cell_length_b       9.7682
_cell_length_c       10.455
_cell_angle_alpha    67.415
_cell_angle_beta     70.174
_cell_angle_gamma    86.45

_symmetry_space_group_name_H-M    "P 1"
_symmetry_int_tables_number       1

loop_
  _symmetry_equiv_pos_as_xyz
  'x, y, z'

loop_
  _atom_site_label
  _atom_site_occupancy
  _atom_site_fract_x
  _atom_site_fract_y
  _atom_site_fract_z
  _atom_site_thermal_displace_type
  _atom_site_B_iso_or_equiv
  _atom_site_type_symbol
  C1       1.0000 0.86430  0.76620  0.79150  Biso   1.000  C
  C2       1.0000 0.13570  0.23380  0.20850  Biso   1.000  C
  C3       1.0000 0.70260  0.69620  0.93514  Biso   1.000  C
  C4       1.0000 0.29740  0.30380  0.06486  Biso   1.000  C
  C5       1.0000 0.52690  0.75810  0.97288  Biso   1.000  C
  C6       1.0000 0.47310  0.24190  0.02712  Biso   1.000  C
  C7       1.0000 0.41320  0.55660  0.19210  Biso   1.000  C
  C8       1.0000 0.58680  0.44340  0.80790  Biso   1.000  C
  H1       1.0000 0.31290  0.50820  0.28260  Biso   1.000  H
  H2       1.0000 0.68710  0.49180  0.71740  Biso   1.000  H
  C9       1.0000 0.57650  0.48480  0.16300  Biso   1.000  C
  C10      1.0000 0.42350  0.51520  0.83700  Biso   1.000  C
  H3       1.0000 0.58830  0.38880  0.22960  Biso   1.000  H
  H4       1.0000 0.41170  0.61120  0.77040  Biso   1.000  H
  C11      1.0000 0.72300  0.55840  0.03260  Biso   1.000  C
  C12      1.0000 0.27700  0.44160  0.96740  Biso   1.000  C
  H5       1.0000 0.83930  0.51340  0.00980  Biso   1.000  H
  H6       1.0000 0.16070  0.48660  0.99020  Biso   1.000  H
  C13      1.0000 0.23150  0.93460  0.94830  Biso   1.000  C
  C14      1.0000 0.76850  0.06540  0.05170  Biso   1.000  C
  H7       1.0000 0.18450  0.02480  0.89080  Biso   1.000  H
  H8       1.0000 0.81550  0.97520  0.10920  Biso   1.000  H
  H9       1.0000 0.21890  0.93700  0.04380  Biso   1.000  H
  H10      1.0000 0.78110  0.06300  0.95620  Biso   1.000  H
  H11      1.0000 0.15710  0.84690  0.96400  Biso   1.000  H
  H12      1.0000 0.84290  0.15310  0.03600  Biso   1.000  H
  C15      1.0000 0.69090  0.84341  0.48082  Biso   1.000  C
  C16      1.0000 0.30910  0.15659  0.51918  Biso   1.000  C
  H13      1.0000 0.61060  0.88830  0.54340  Biso   1.000  H
  H14      1.0000 0.38940  0.11170  0.45660  Biso   1.000  H
  C17      1.0000 0.60840  0.75580  0.43485  Biso   1.000  C
  C18      1.0000 0.39160  0.24420  0.56515  Biso   1.000  C
  C19      1.0000 0.72820  0.68660  0.34800  Biso   1.000  C
  C20      1.0000 0.27180  0.31340  0.65200  Biso   1.000  C
  H15      1.0000 0.67640  0.62510  0.31550  Biso   1.000  H
  H16      1.0000 0.32360  0.37490  0.68450  Biso   1.000  H
  C21      1.0000 0.92260  0.70740  0.30910  Biso   1.000  C
  C22      1.0000 0.07740  0.29260  0.69090  Biso   1.000  C
  H17      1.0000 0.00590  0.65830  0.25230  Biso   1.000  H
  H18      1.0000 0.99410  0.34170  0.74770  Biso   1.000  H
  C23      1.0000 0.99350  0.80070  0.35430  Biso   1.000  C
  C24      1.0000 0.00650  0.19930  0.64570  Biso   1.000  C
  H19      1.0000 0.12740  0.81870  0.32380  Biso   1.000  H
  H20      1.0000 0.87260  0.18130  0.67620  Biso   1.000  H
  C25      1.0000 0.39670  0.73750  0.46970  Biso   1.000  C
  C26      1.0000 0.60330  0.26250  0.53030  Biso   1.000  C
  H21      1.0000 0.37180  0.75600  0.37760  Biso   1.000  H
  H22      1.0000 0.62820  0.24400  0.62240  Biso   1.000  H
  H23      1.0000 0.34990  0.63350  0.53760  Biso   1.000  H
  H24      1.0000 0.65010  0.36650  0.46240  Biso   1.000  H
  N1       1.0000 0.38650  0.68957  0.10158  Biso   1.000  N
  N2       1.0000 0.61350  0.31043  0.89842  Biso   1.000  N
  N3       1.0000 0.88070  0.86694  0.43980  Biso   1.000  N
  N4       1.0000 0.11930  0.13306  0.56020  Biso   1.000  N
  O1       1.0000 0.84330  0.89245  0.70622  Biso   1.000  O
  O2       1.0000 0.15670  0.10755  0.29378  Biso   1.000  O
  O3       1.0000 0.00270  0.69290  0.76680  Biso   1.000  O
  O4       1.0000 0.99730  0.30710  0.23320  Biso   1.000  O
  O5       1.0000 0.29520  0.83317  0.53390  Biso   1.000  O
  O6       1.0000 0.70480  0.16683  0.46610  Biso   1.000  O
  H25      1.0000 0.17870  0.81850  0.55110  Biso   1.000  H
  H26      1.0000 0.82130  0.18150  0.44890  Biso   1.000  H
  S1       1.0000 0.47732  0.92562  0.84979  Biso   1.000  S
  S2       1.0000 0.52268  0.07438  0.15021  Biso   1.000  S
  Cu1      1.0000 0.00000  0.00000  0.50000  Biso   1.000  Cu
