data_image0
_cell_length_a       10.914
_cell_length_b       8.472
_cell_length_c       13.658
_cell_angle_alpha    90
_cell_angle_beta     102.92
_cell_angle_gamma    90

_symmetry_space_group_name_H-M    "P 1"
_symmetry_int_tables_number       1

loop_
  _symmetry_equiv_pos_as_xyz
  'x, y, z'

loop_
  _atom_site_label
  _atom_site_occupancy
  _atom_site_fract_x
  _atom_site_fract_y
  _atom_site_fract_z
  _atom_site_thermal_displace_type
  _atom_site_B_iso_or_equiv
  _atom_site_type_symbol
  Cu1      1.0000 0.00000  0.00000  0.00000  Biso   1.000  Cu
  Cu2      1.0000 0.00000  0.50000  0.50000  Biso   1.000  Cu
  Cl1      1.0000 0.45518  0.97753  0.09215  Biso   1.000  Cl
  Cl2      1.0000 0.54482  0.47753  0.40785  Biso   1.000  Cl
  Cl3      1.0000 0.54482  0.02247  0.90785  Biso   1.000  Cl
  Cl4      1.0000 0.45518  0.52247  0.59215  Biso   1.000  Cl
  Cl5      1.0000 0.24195  0.75401  0.34356  Biso   1.000  Cl
  Cl6      1.0000 0.75805  0.25401  0.15644  Biso   1.000  Cl
  Cl7      1.0000 0.75805  0.24599  0.65644  Biso   1.000  Cl
  Cl8      1.0000 0.24195  0.74599  0.84356  Biso   1.000  Cl
  N1       1.0000 0.08936  0.09292  0.89921  Biso   1.000  N
  N2       1.0000 0.91064  0.59292  0.60079  Biso   1.000  N
  N3       1.0000 0.91064  0.90708  0.10079  Biso   1.000  N
  N4       1.0000 0.08936  0.40708  0.39921  Biso   1.000  N
  O1       1.0000 0.16303  0.97412  0.09467  Biso   1.000  O
  O2       1.0000 0.83697  0.47412  0.40533  Biso   1.000  O
  O3       1.0000 0.83697  0.02588  0.90533  Biso   1.000  O
  O4       1.0000 0.16303  0.52588  0.59467  Biso   1.000  O
  O5       1.0000 0.18924  0.71193  0.10014  Biso   1.000  O
  O6       1.0000 0.81076  0.21193  0.39986  Biso   1.000  O
  O7       1.0000 0.81076  0.28807  0.89986  Biso   1.000  O
  O8       1.0000 0.18924  0.78807  0.60014  Biso   1.000  O
  O9       1.0000 0.97744  0.23941  0.57461  Biso   1.000  O
  O10      1.0000 0.02256  0.73941  0.92539  Biso   1.000  O
  O11      1.0000 0.02256  0.76059  0.42539  Biso   1.000  O
  O12      1.0000 0.97744  0.26059  0.07461  Biso   1.000  O
  H1       1.0000 0.92430  0.21410  0.52240  Biso   1.000  H
  H2       1.0000 0.07570  0.71410  0.97760  Biso   1.000  H
  H3       1.0000 0.07570  0.78590  0.47760  Biso   1.000  H
  H4       1.0000 0.92430  0.28590  0.02240  Biso   1.000  H
  C1       1.0000 0.04654  0.06644  0.79982  Biso   1.000  C
  C2       1.0000 0.95346  0.56644  0.70018  Biso   1.000  C
  C3       1.0000 0.95346  0.93356  0.20018  Biso   1.000  C
  C4       1.0000 0.04654  0.43356  0.29982  Biso   1.000  C
  H5       1.0000 0.97690  0.99760  0.77910  Biso   1.000  H
  H6       1.0000 0.02310  0.49760  0.72090  Biso   1.000  H
  H7       1.0000 0.02310  0.00240  0.22090  Biso   1.000  H
  H8       1.0000 0.97690  0.50240  0.27910  Biso   1.000  H
  C5       1.0000 0.09911  0.13465  0.72701  Biso   1.000  C
  C6       1.0000 0.90089  0.63465  0.77299  Biso   1.000  C
  C7       1.0000 0.90089  0.86535  0.27299  Biso   1.000  C
  C8       1.0000 0.09911  0.36535  0.22701  Biso   1.000  C
  C9       1.0000 0.20138  0.23361  0.75811  Biso   1.000  C
  C10      1.0000 0.79862  0.73361  0.74189  Biso   1.000  C
  C11      1.0000 0.79862  0.76639  0.24189  Biso   1.000  C
  C12      1.0000 0.20138  0.26639  0.25811  Biso   1.000  C
  H9       1.0000 0.23970  0.28330  0.71020  Biso   1.000  H
  H10      1.0000 0.76030  0.78330  0.78980  Biso   1.000  H
  H11      1.0000 0.76030  0.71670  0.28980  Biso   1.000  H
  H12      1.0000 0.23970  0.21670  0.21020  Biso   1.000  H
  C13      1.0000 0.24730  0.25930  0.86008  Biso   1.000  C
  C14      1.0000 0.75270  0.75930  0.63992  Biso   1.000  C
  C15      1.0000 0.75270  0.74070  0.13992  Biso   1.000  C
  C16      1.0000 0.24730  0.24070  0.36008  Biso   1.000  C
  H13      1.0000 0.31770  0.32630  0.88270  Biso   1.000  H
  H14      1.0000 0.68230  0.82630  0.61730  Biso   1.000  H
  H15      1.0000 0.68230  0.67370  0.11730  Biso   1.000  H
  H16      1.0000 0.31770  0.17370  0.38270  Biso   1.000  H
  C17      1.0000 0.18979  0.18672  0.92802  Biso   1.000  C
  C18      1.0000 0.81021  0.68672  0.57198  Biso   1.000  C
  C19      1.0000 0.81021  0.81328  0.07198  Biso   1.000  C
  C20      1.0000 0.18979  0.31328  0.42802  Biso   1.000  C
  H17      1.0000 0.22240  0.20370  0.99770  Biso   1.000  H
  H18      1.0000 0.77760  0.70370  0.50230  Biso   1.000  H
  H19      1.0000 0.77760  0.79630  0.00230  Biso   1.000  H
  H20      1.0000 0.22240  0.29630  0.49770  Biso   1.000  H
  C21      1.0000 0.04342  0.10292  0.61748  Biso   1.000  C
  C22      1.0000 0.95658  0.60292  0.88252  Biso   1.000  C
  C23      1.0000 0.95658  0.89708  0.38252  Biso   1.000  C
  C24      1.0000 0.04342  0.39708  0.11748  Biso   1.000  C
  H21      1.0000 0.11100  0.07750  0.58230  Biso   1.000  H
  H22      1.0000 0.88900  0.57750  0.91770  Biso   1.000  H
  H23      1.0000 0.88900  0.92250  0.41770  Biso   1.000  H
  H24      1.0000 0.11100  0.42250  0.08230  Biso   1.000  H
  H25      1.0000 0.98540  0.01180  0.61050  Biso   1.000  H
  H26      1.0000 0.01460  0.51180  0.88950  Biso   1.000  H
  H27      1.0000 0.01460  0.98820  0.38950  Biso   1.000  H
  H28      1.0000 0.98540  0.48820  0.11050  Biso   1.000  H
  C25      1.0000 0.21944  0.84766  0.12938  Biso   1.000  C
  C26      1.0000 0.78056  0.34766  0.37062  Biso   1.000  C
  C27      1.0000 0.78056  0.15234  0.87062  Biso   1.000  C
  C28      1.0000 0.21944  0.65234  0.62938  Biso   1.000  C
  C29      1.0000 0.33077  0.87189  0.21512  Biso   1.000  C
  C30      1.0000 0.66923  0.37189  0.28488  Biso   1.000  C
  C31      1.0000 0.66923  0.12811  0.78488  Biso   1.000  C
  C32      1.0000 0.33077  0.62811  0.71512  Biso   1.000  C
  C33      1.0000 0.43270  0.93190  0.21190  Biso   1.000  C
  C34      1.0000 0.56730  0.43190  0.28810  Biso   1.000  C
  C35      1.0000 0.56730  0.06810  0.78810  Biso   1.000  C
  C36      1.0000 0.43270  0.56810  0.71190  Biso   1.000  C
  C37      1.0000 0.36400  0.83960  0.30510  Biso   1.000  C
  C38      1.0000 0.63600  0.33960  0.19490  Biso   1.000  C
  C39      1.0000 0.63600  0.16040  0.69490  Biso   1.000  C
  C40      1.0000 0.36400  0.66040  0.80510  Biso   1.000  C
  C41      1.0000 0.53150  0.95750  0.29390  Biso   1.000  C
  C42      1.0000 0.46850  0.45750  0.20610  Biso   1.000  C
  C43      1.0000 0.46850  0.04250  0.70610  Biso   1.000  C
  C44      1.0000 0.53150  0.54250  0.79390  Biso   1.000  C
  H29      1.0000 0.60810  0.00310  0.28560  Biso   1.000  H
  H30      1.0000 0.39190  0.50310  0.21440  Biso   1.000  H
  H31      1.0000 0.39190  0.99690  0.71440  Biso   1.000  H
  H32      1.0000 0.60810  0.49690  0.78560  Biso   1.000  H
  C45      1.0000 0.47370  0.87450  0.37590  Biso   1.000  C
  C46      1.0000 0.52630  0.37450  0.12410  Biso   1.000  C
  C47      1.0000 0.52630  0.12550  0.62410  Biso   1.000  C
  C48      1.0000 0.47370  0.62550  0.87590  Biso   1.000  C
  H33      1.0000 0.48150  0.84570  0.44430  Biso   1.000  H
  H34      1.0000 0.51850  0.34570  0.05570  Biso   1.000  H
  H35      1.0000 0.51850  0.15430  0.55570  Biso   1.000  H
  H36      1.0000 0.48150  0.65430  0.94430  Biso   1.000  H
  C49      1.0000 0.51600  0.91560  0.38680  Biso   1.000  C
  C50      1.0000 0.48400  0.41560  0.11320  Biso   1.000  C
  C51      1.0000 0.48400  0.08440  0.61320  Biso   1.000  C
  C52      1.0000 0.51600  0.58440  0.88680  Biso   1.000  C
  H37      1.0000 0.58240  0.93290  0.44390  Biso   1.000  H
  H38      1.0000 0.41760  0.43290  0.05610  Biso   1.000  H
  H39      1.0000 0.41760  0.06710  0.55610  Biso   1.000  H
  H40      1.0000 0.58240  0.56710  0.94390  Biso   1.000  H
  C53      1.0000 0.57180  0.95180  0.34620  Biso   1.000  C
  C54      1.0000 0.42820  0.45180  0.15380  Biso   1.000  C
  C55      1.0000 0.42820  0.04820  0.65380  Biso   1.000  C
  C56      1.0000 0.57180  0.54820  0.84620  Biso   1.000  C
  H41      1.0000 0.64610  0.97630  0.39490  Biso   1.000  H
  H42      1.0000 0.35390  0.47630  0.10510  Biso   1.000  H
  H43      1.0000 0.35390  0.02370  0.60510  Biso   1.000  H
  H44      1.0000 0.64610  0.52370  0.89490  Biso   1.000  H
  C57      1.0000 0.40550  0.84880  0.39900  Biso   1.000  C
  C58      1.0000 0.59450  0.34880  0.10100  Biso   1.000  C
  C59      1.0000 0.59450  0.15120  0.60100  Biso   1.000  C
  C60      1.0000 0.40550  0.65120  0.89900  Biso   1.000  C
  H45      1.0000 0.39690  0.81920  0.46420  Biso   1.000  H
  H46      1.0000 0.60310  0.31920  0.03580  Biso   1.000  H
  H47      1.0000 0.60310  0.18080  0.53580  Biso   1.000  H
  H48      1.0000 0.39690  0.68080  0.96420  Biso   1.000  H
  C61      1.0000 0.56360  0.99240  0.25030  Biso   1.000  C
  C62      1.0000 0.43640  0.49240  0.24970  Biso   1.000  C
  C63      1.0000 0.43640  0.00760  0.74970  Biso   1.000  C
  C64      1.0000 0.56360  0.50760  0.75030  Biso   1.000  C
  H49      1.0000 0.63190  0.04320  0.23070  Biso   1.000  H
  H50      1.0000 0.36810  0.54320  0.26930  Biso   1.000  H
  H51      1.0000 0.36810  0.95680  0.76930  Biso   1.000  H
  H52      1.0000 0.63190  0.45680  0.73070  Biso   1.000  H
  C65      1.0000 0.30560  0.82410  0.31630  Biso   1.000  C
  C66      1.0000 0.69440  0.32410  0.18370  Biso   1.000  C
  C67      1.0000 0.69440  0.17590  0.68370  Biso   1.000  C
  C68      1.0000 0.30560  0.67590  0.81630  Biso   1.000  C
  H53      1.0000 0.22760  0.78060  0.32280  Biso   1.000  H
  H54      1.0000 0.77240  0.28060  0.17720  Biso   1.000  H
  H55      1.0000 0.77240  0.21940  0.67720  Biso   1.000  H
  H56      1.0000 0.22760  0.71940  0.82280  Biso   1.000  H
  C69      1.0000 0.45000  0.95810  0.17760  Biso   1.000  C
  C70      1.0000 0.55000  0.45810  0.32240  Biso   1.000  C
  C71      1.0000 0.55000  0.04190  0.82240  Biso   1.000  C
  C72      1.0000 0.45000  0.54190  0.67760  Biso   1.000  C
  H57      1.0000 0.44270  0.98410  0.10890  Biso   1.000  H
  H58      1.0000 0.55730  0.48410  0.39110  Biso   1.000  H
  H59      1.0000 0.55730  0.01590  0.89110  Biso   1.000  H
  H60      1.0000 0.44270  0.51590  0.60890  Biso   1.000  H
