data_image0
_cell_length_a       8.656
_cell_length_b       11.947
_cell_length_c       19.014
_cell_angle_alpha    101.98
_cell_angle_beta     101.98
_cell_angle_gamma    90.43

_symmetry_space_group_name_H-M    "P 1"
_symmetry_int_tables_number       1

loop_
  _symmetry_equiv_pos_as_xyz
  'x, y, z'

loop_
  _atom_site_label
  _atom_site_occupancy
  _atom_site_fract_x
  _atom_site_fract_y
  _atom_site_fract_z
  _atom_site_thermal_displace_type
  _atom_site_B_iso_or_equiv
  _atom_site_type_symbol
  Cu1      1.0000 0.00000  0.50000  0.50000  Biso   1.000  Cu
  Cu2      1.0000 0.64161  0.30374  0.82560  Biso   1.000  Cu
  Cu3      1.0000 0.35839  0.69626  0.17440  Biso   1.000  Cu
  Cl1      1.0000 0.75820  0.13637  0.51709  Biso   1.000  Cl
  Cl2      1.0000 0.24180  0.86363  0.48291  Biso   1.000  Cl
  Cl3      1.0000 0.39780  0.66656  0.80658  Biso   1.000  Cl
  Cl4      1.0000 0.60220  0.33344  0.19342  Biso   1.000  Cl
  Cl5      1.0000 0.90640  0.94283  0.85535  Biso   1.000  Cl
  Cl6      1.0000 0.09360  0.05717  0.14465  Biso   1.000  Cl
  O1       1.0000 0.81300  0.39130  0.46050  Biso   1.000  O
  O2       1.0000 0.18700  0.60870  0.53950  Biso   1.000  O
  O3       1.0000 0.67220  0.42630  0.54880  Biso   1.000  O
  O4       1.0000 0.32780  0.57370  0.45120  Biso   1.000  O
  O5       1.0000 0.50300  0.41520  0.86850  Biso   1.000  O
  O6       1.0000 0.49700  0.58480  0.13150  Biso   1.000  O
  O7       1.0000 0.27790  0.38000  0.78470  Biso   1.000  O
  O8       1.0000 0.72210  0.62000  0.21530  Biso   1.000  O
  O9       1.0000 0.78470  0.19440  0.78520  Biso   1.000  O
  O10      1.0000 0.21530  0.80560  0.21480  Biso   1.000  O
  O11      1.0000 0.97820  0.23080  0.88300  Biso   1.000  O
  O12      1.0000 0.02180  0.76920  0.11700  Biso   1.000  O
  O13      1.0000 0.46870  0.25730  0.71040  Biso   1.000  O
  O14      1.0000 0.53130  0.74270  0.28960  Biso   1.000  O
  O15      1.0000 0.94040  0.54660  0.62120  Biso   1.000  O
  O16      1.0000 0.05960  0.45340  0.37880  Biso   1.000  O
  O17      1.0000 0.22250  0.24680  0.00120  Biso   1.000  O
  O18      1.0000 0.77750  0.75320  0.99880  Biso   1.000  O
  N1       1.0000 0.51420  0.07670  0.41020  Biso   1.000  N
  N2       1.0000 0.48580  0.92330  0.58980  Biso   1.000  N
  N3       1.0000 0.25970  0.73490  0.91640  Biso   1.000  N
  N4       1.0000 0.74030  0.26510  0.08360  Biso   1.000  N
  N5       1.0000 0.06250  0.88760  0.75160  Biso   1.000  N
  N6       1.0000 0.93750  0.11240  0.24840  Biso   1.000  N
  N7       1.0000 0.13510  0.36750  0.51930  Biso   1.000  N
  N8       1.0000 0.86490  0.63250  0.48070  Biso   1.000  N
  N9       1.0000 0.76770  0.43670  0.81090  Biso   1.000  N
  N10      1.0000 0.23230  0.56330  0.18910  Biso   1.000  N
  N11      1.0000 0.53360  0.17780  0.85750  Biso   1.000  N
  N12      1.0000 0.46640  0.82220  0.14250  Biso   1.000  N
  C1       1.0000 0.58400  0.27770  0.44390  Biso   1.000  C
  C2       1.0000 0.41600  0.72230  0.55610  Biso   1.000  C
  C3       1.0000 0.60160  0.16600  0.44960  Biso   1.000  C
  C4       1.0000 0.39840  0.83400  0.55040  Biso   1.000  C
  C5       1.0000 0.39270  0.09730  0.36020  Biso   1.000  C
  C6       1.0000 0.60730  0.90270  0.63980  Biso   1.000  C
  H1       1.0000 0.32630  0.03560  0.33180  Biso   1.000  H
  H2       1.0000 0.67370  0.96440  0.66820  Biso   1.000  H
  C7       1.0000 0.35910  0.20490  0.34800  Biso   1.000  C
  C8       1.0000 0.64090  0.79510  0.65200  Biso   1.000  C
  H3       1.0000 0.27410  0.21530  0.31140  Biso   1.000  H
  H4       1.0000 0.72590  0.78470  0.68860  Biso   1.000  H
  C9       1.0000 0.45500  0.29730  0.39150  Biso   1.000  C
  C10      1.0000 0.54500  0.70270  0.60850  Biso   1.000  C
  H5       1.0000 0.43350  0.37140  0.38580  Biso   1.000  H
  H6       1.0000 0.56650  0.62860  0.61420  Biso   1.000  H
  C11      1.0000 0.70040  0.37360  0.49000  Biso   1.000  C
  C12      1.0000 0.29960  0.62640  0.51000  Biso   1.000  C
  C13      1.0000 0.29710  0.53390  0.88770  Biso   1.000  C
  C14      1.0000 0.70290  0.46610  0.11230  Biso   1.000  C
  C15      1.0000 0.30880  0.64420  0.87670  Biso   1.000  C
  C16      1.0000 0.69120  0.35580  0.12330  Biso   1.000  C
  C17      1.0000 0.18870  0.71810  0.96920  Biso   1.000  C
  C18      1.0000 0.81130  0.28190  0.03080  Biso   1.000  C
  H7       1.0000 0.15240  0.78130  0.99750  Biso   1.000  H
  H8       1.0000 0.84760  0.21870  0.00250  Biso   1.000  H
  C19      1.0000 0.16590  0.61270  0.98410  Biso   1.000  C
  C20      1.0000 0.83410  0.38730  0.01590  Biso   1.000  C
  H9       1.0000 0.11370  0.60450  0.02100  Biso   1.000  H
  H10      1.0000 0.88630  0.39550  0.97900  Biso   1.000  H
  C21      1.0000 0.22250  0.51910  0.94310  Biso   1.000  C
  C22      1.0000 0.77750  0.48090  0.05690  Biso   1.000  C
  H11      1.0000 0.21060  0.44650  0.95260  Biso   1.000  H
  H12      1.0000 0.78940  0.55350  0.04740  Biso   1.000  H
  C23      1.0000 0.36230  0.43330  0.84140  Biso   1.000  C
  C24      1.0000 0.63770  0.56670  0.15860  Biso   1.000  C
  C25      1.0000 0.00330  0.08700  0.78060  Biso   1.000  C
  C26      1.0000 0.99670  0.91300  0.21940  Biso   1.000  C
  C27      1.0000 0.99950  0.97500  0.78860  Biso   1.000  C
  C28      1.0000 0.00050  0.02500  0.21140  Biso   1.000  C
  C29      1.0000 0.13760  0.91170  0.70160  Biso   1.000  C
  C30      1.0000 0.86240  0.08830  0.29840  Biso   1.000  C
  H13      1.0000 0.18190  0.85200  0.67390  Biso   1.000  H
  H14      1.0000 0.81810  0.14800  0.32610  Biso   1.000  H
  C31      1.0000 0.15300  0.01800  0.68910  Biso   1.000  C
  C32      1.0000 0.84700  0.98200  0.31090  Biso   1.000  C
  H15      1.0000 0.20710  0.03050  0.65380  Biso   1.000  H
  H16      1.0000 0.79290  0.96950  0.34620  Biso   1.000  H
  C33      1.0000 0.08730  0.10840  0.72960  Biso   1.000  C
  C34      1.0000 0.91270  0.89160  0.27040  Biso   1.000  C
  H17      1.0000 0.09930  0.18250  0.72260  Biso   1.000  H
  H18      1.0000 0.90070  0.81750  0.27740  Biso   1.000  H
  C35      1.0000 0.91810  0.17820  0.82160  Biso   1.000  C
  C36      1.0000 0.08190  0.82180  0.17840  Biso   1.000  C
  C37      1.0000 0.35300  0.29070  0.59110  Biso   1.000  C
  C38      1.0000 0.64700  0.70930  0.40890  Biso   1.000  C
  C39      1.0000 0.26310  0.37940  0.57390  Biso   1.000  C
  C40      1.0000 0.73690  0.62060  0.42610  Biso   1.000  C
  H19      1.0000 0.29340  0.45260  0.60210  Biso   1.000  H
  H20      1.0000 0.70660  0.54740  0.39790  Biso   1.000  H
  C41      1.0000 0.09460  0.26340  0.47720  Biso   1.000  C
  C42      1.0000 0.90540  0.73660  0.52280  Biso   1.000  C
  H21      1.0000 0.00810  0.25390  0.43780  Biso   1.000  H
  H22      1.0000 0.99190  0.74610  0.56220  Biso   1.000  H
  C43      1.0000 0.17830  0.16880  0.49060  Biso   1.000  C
  C44      1.0000 0.82170  0.83120  0.50940  Biso   1.000  C
  H23      1.0000 0.14780  0.09650  0.46090  Biso   1.000  H
  H24      1.0000 0.85220  0.90350  0.53910  Biso   1.000  H
  C45      1.0000 0.30730  0.18340  0.54860  Biso   1.000  C
  C46      1.0000 0.69270  0.81660  0.45140  Biso   1.000  C
  H25      1.0000 0.36350  0.12050  0.55880  Biso   1.000  H
  H26      1.0000 0.63650  0.87950  0.44120  Biso   1.000  H
  C47      1.0000 0.49470  0.31040  0.65430  Biso   1.000  C
  C48      1.0000 0.50530  0.68960  0.34570  Biso   1.000  C
  H27      1.0000 0.58670  0.27990  0.63690  Biso   1.000  H
  H28      1.0000 0.41330  0.72010  0.36310  Biso   1.000  H
  H29      1.0000 0.51580  0.39200  0.67380  Biso   1.000  H
  H30      1.0000 0.48420  0.60800  0.32620  Biso   1.000  H
  C49      1.0000 0.92750  0.51130  0.74030  Biso   1.000  C
  C50      1.0000 0.07250  0.48870  0.25970  Biso   1.000  C
  C51      1.0000 0.84770  0.42240  0.75590  Biso   1.000  C
  C52      1.0000 0.15230  0.57760  0.24410  Biso   1.000  C
  H31      1.0000 0.84890  0.34930  0.72730  Biso   1.000  H
  H32      1.0000 0.15110  0.65070  0.27270  Biso   1.000  H
  C53      1.0000 0.77220  0.54320  0.85350  Biso   1.000  C
  C54      1.0000 0.22780  0.45680  0.14650  Biso   1.000  C
  H33      1.0000 0.72050  0.55450  0.89240  Biso   1.000  H
  H34      1.0000 0.27950  0.44550  0.10760  Biso   1.000  H
  C55      1.0000 0.85000  0.63440  0.84110  Biso   1.000  C
  C56      1.0000 0.15000  0.36560  0.15890  Biso   1.000  C
  H35      1.0000 0.85040  0.70630  0.87150  Biso   1.000  H
  H36      1.0000 0.14960  0.29370  0.12850  Biso   1.000  H
  C57      1.0000 0.92680  0.62120  0.78470  Biso   1.000  C
  C58      1.0000 0.07320  0.37880  0.21530  Biso   1.000  C
  H37      1.0000 0.97820  0.68370  0.77560  Biso   1.000  H
  H38      1.0000 0.02180  0.31630  0.22440  Biso   1.000  H
  C59      1.0000 0.01160  0.49110  0.67760  Biso   1.000  C
  C60      1.0000 0.98840  0.50890  0.32240  Biso   1.000  C
  H39      1.0000 0.12110  0.51930  0.69580  Biso   1.000  H
  H40      1.0000 0.87890  0.48070  0.30420  Biso   1.000  H
  H41      1.0000 0.01040  0.40950  0.65770  Biso   1.000  H
  H42      1.0000 0.98960  0.59050  0.34230  Biso   1.000  H
  C61      1.0000 0.38520  0.11580  0.93750  Biso   1.000  C
  C62      1.0000 0.61480  0.88420  0.06250  Biso   1.000  C
  C63      1.0000 0.46280  0.19920  0.91480  Biso   1.000  C
  C64      1.0000 0.53720  0.80080  0.08520  Biso   1.000  C
  H43      1.0000 0.46590  0.27450  0.94080  Biso   1.000  H
  H44      1.0000 0.53410  0.72550  0.05920  Biso   1.000  H
  C65      1.0000 0.52840  0.07090  0.81940  Biso   1.000  C
  C66      1.0000 0.47160  0.92910  0.18060  Biso   1.000  C
  H45      1.0000 0.57420  0.05500  0.77850  Biso   1.000  H
  H46      1.0000 0.42580  0.94500  0.22150  Biso   1.000  H
  C67      1.0000 0.45470  0.98170  0.84010  Biso   1.000  C
  C68      1.0000 0.54530  0.01830  0.15990  Biso   1.000  C
  H47      1.0000 0.45610  0.90660  0.81430  Biso   1.000  H
  H48      1.0000 0.54390  0.09340  0.18570  Biso   1.000  H
  C69      1.0000 0.38100  0.00460  0.89780  Biso   1.000  C
  C70      1.0000 0.61900  0.99540  0.10220  Biso   1.000  C
  H49      1.0000 0.32840  0.94600  0.91040  Biso   1.000  H
  H50      1.0000 0.67160  0.05400  0.08960  Biso   1.000  H
  C71      1.0000 0.30670  0.14840  0.00120  Biso   1.000  C
  C72      1.0000 0.69330  0.85160  0.99880  Biso   1.000  C
  H51      1.0000 0.23510  0.08540  0.00100  Biso   1.000  H
  H52      1.0000 0.76490  0.91460  0.99900  Biso   1.000  H
  H53      1.0000 0.38680  0.15980  0.04640  Biso   1.000  H
  H54      1.0000 0.61320  0.84020  0.95360  Biso   1.000  H
  H55      1.0000 0.39200  0.27700  0.72800  Biso   1.000  H
  H56      1.0000 0.60800  0.72300  0.27200  Biso   1.000  H
  H57      1.0000 0.84600  0.52600  0.60400  Biso   1.000  H
  H58      1.0000 0.15400  0.47400  0.39600  Biso   1.000  H
  H59      1.0000 0.15300  0.22400  0.96300  Biso   1.000  H
  H60      1.0000 0.84700  0.77600  0.03700  Biso   1.000  H
