data_image0
_cell_length_a       8.522
_cell_length_b       13.066
_cell_length_c       7.942
_cell_angle_alpha    99.22
_cell_angle_beta     90.73
_cell_angle_gamma    97.66

_symmetry_space_group_name_H-M    "P 1"
_symmetry_int_tables_number       1

loop_
  _symmetry_equiv_pos_as_xyz
  'x, y, z'

loop_
  _atom_site_label
  _atom_site_occupancy
  _atom_site_fract_x
  _atom_site_fract_y
  _atom_site_fract_z
  _atom_site_thermal_displace_type
  _atom_site_B_iso_or_equiv
  _atom_site_type_symbol
  Cu1      1.0000 0.54730  0.09093  0.09690  Biso   1.000  Cu
  Cu2      1.0000 0.45270  0.90907  0.90310  Biso   1.000  Cu
  O1       1.0000 0.43020  0.02320  0.27060  Biso   1.000  O
  O2       1.0000 0.56980  0.97680  0.72940  Biso   1.000  O
  C1       1.0000 0.35420  0.93190  0.24450  Biso   1.000  C
  C2       1.0000 0.64580  0.06810  0.75550  Biso   1.000  C
  O3       1.0000 0.65400  0.13090  0.89360  Biso   1.000  O
  O4       1.0000 0.34600  0.86910  0.10640  Biso   1.000  O
  C3       1.0000 0.26640  0.89660  0.39280  Biso   1.000  C
  C4       1.0000 0.73360  0.10340  0.60720  Biso   1.000  C
  O5       1.0000 0.73760  0.02720  0.15060  Biso   1.000  O
  O6       1.0000 0.26240  0.97280  0.84940  Biso   1.000  O
  C5       1.0000 0.75360  0.93480  0.08710  Biso   1.000  C
  C6       1.0000 0.24640  0.06520  0.91290  Biso   1.000  C
  O7       1.0000 0.34530  0.12670  0.01340  Biso   1.000  O
  O8       1.0000 0.65470  0.87330  0.98660  Biso   1.000  O
  C7       1.0000 0.90320  0.89510  0.13040  Biso   1.000  C
  C8       1.0000 0.09680  0.10490  0.86960  Biso   1.000  C
  O9       1.0000 0.63440  0.23010  0.26850  Biso   1.000  O
  O10      1.0000 0.36560  0.76990  0.73150  Biso   1.000  O
  C9       1.0000 0.62110  0.32440  0.31070  Biso   1.000  C
  C10      1.0000 0.37890  0.67560  0.68930  Biso   1.000  C
  O11      1.0000 0.72460  0.39110  0.39930  Biso   1.000  O
  O12      1.0000 0.27540  0.60890  0.60070  Biso   1.000  O
  C11      1.0000 0.47540  0.36700  0.25910  Biso   1.000  C
  C12      1.0000 0.52460  0.63300  0.74090  Biso   1.000  C
  Cu3      1.0000 0.93690  0.37398  0.47220  Biso   1.000  Cu
  Cu4      1.0000 0.06310  0.62602  0.52780  Biso   1.000  Cu
  N1       1.0000 0.12610  0.32960  0.57880  Biso   1.000  N
  N2       1.0000 0.87390  0.67040  0.42120  Biso   1.000  N
  C13      1.0000 0.20690  0.38100  0.72030  Biso   1.000  C
  C14      1.0000 0.79310  0.61900  0.27970  Biso   1.000  C
  C15      1.0000 0.33880  0.34800  0.78130  Biso   1.000  C
  C16      1.0000 0.66120  0.65200  0.21870  Biso   1.000  C
  C17      1.0000 0.39240  0.26100  0.69230  Biso   1.000  C
  C18      1.0000 0.60760  0.73900  0.30770  Biso   1.000  C
  C19      1.0000 0.31300  0.20840  0.54640  Biso   1.000  C
  C20      1.0000 0.68700  0.79160  0.45360  Biso   1.000  C
  C21      1.0000 0.17830  0.24430  0.49280  Biso   1.000  C
  C22      1.0000 0.82170  0.75570  0.50720  Biso   1.000  C
  C23      1.0000 0.08020  0.19100  0.33740  Biso   1.000  C
  C24      1.0000 0.91980  0.80900  0.66260  Biso   1.000  C
  N3       1.0000 0.97210  0.25890  0.28460  Biso   1.000  N
  N4       1.0000 0.02790  0.74110  0.71540  Biso   1.000  N
  O13      1.0000 0.06640  0.50460  0.34710  Biso   1.000  O
  O14      1.0000 0.93360  0.49540  0.65290  Biso   1.000  O
  C25      1.0000 0.13300  0.49750  0.20050  Biso   1.000  C
  C26      1.0000 0.86700  0.50250  0.79950  Biso   1.000  C
  O15      1.0000 0.12680  0.41470  0.10160  Biso   1.000  O
  O16      1.0000 0.87320  0.58530  0.89840  Biso   1.000  O
  C27      1.0000 0.21420  0.59820  0.15330  Biso   1.000  C
  C28      1.0000 0.78580  0.40180  0.84670  Biso   1.000  C
  H1       1.0000 0.21400  0.95400  0.46500  Biso   1.000  H
  H2       1.0000 0.78600  0.04600  0.53500  Biso   1.000  H
  H3       1.0000 0.19100  0.83700  0.36200  Biso   1.000  H
  H4       1.0000 0.80900  0.16300  0.63800  Biso   1.000  H
  H5       1.0000 0.32400  0.88800  0.46200  Biso   1.000  H
  H6       1.0000 0.67600  0.11200  0.53800  Biso   1.000  H
  H7       1.0000 0.98000  0.91700  0.06600  Biso   1.000  H
  H8       1.0000 0.02000  0.08300  0.93400  Biso   1.000  H
  H9       1.0000 0.93700  0.92300  0.24100  Biso   1.000  H
  H10      1.0000 0.06300  0.07700  0.75900  Biso   1.000  H
  H11      1.0000 0.89600  0.82600  0.12200  Biso   1.000  H
  H12      1.0000 0.10400  0.17400  0.87800  Biso   1.000  H
  H13      1.0000 0.42400  0.39400  0.35600  Biso   1.000  H
  H14      1.0000 0.57600  0.60600  0.64400  Biso   1.000  H
  H15      1.0000 0.41500  0.31900  0.19600  Biso   1.000  H
  H16      1.0000 0.58500  0.68100  0.80400  Biso   1.000  H
  H17      1.0000 0.51100  0.42300  0.20400  Biso   1.000  H
  H18      1.0000 0.48900  0.57700  0.79600  Biso   1.000  H
  H19      1.0000 0.16700  0.43500  0.78100  Biso   1.000  H
  H20      1.0000 0.83300  0.56500  0.21900  Biso   1.000  H
  H21      1.0000 0.38100  0.38300  0.87800  Biso   1.000  H
  H22      1.0000 0.61900  0.61700  0.12200  Biso   1.000  H
  H23      1.0000 0.46800  0.24200  0.72800  Biso   1.000  H
  H24      1.0000 0.53200  0.75800  0.27200  Biso   1.000  H
  H25      1.0000 0.34700  0.15600  0.48400  Biso   1.000  H
  H26      1.0000 0.65300  0.84400  0.51600  Biso   1.000  H
  H27      1.0000 0.13700  0.16600  0.25400  Biso   1.000  H
  H28      1.0000 0.86300  0.83400  0.74600  Biso   1.000  H
  H29      1.0000 0.01900  0.13000  0.36100  Biso   1.000  H
  H30      1.0000 0.98100  0.87000  0.63900  Biso   1.000  H
  H31      1.0000 0.01900  0.29400  0.22200  Biso   1.000  H
  H32      1.0000 0.98100  0.70600  0.77800  Biso   1.000  H
  H33      1.0000 0.88200  0.22800  0.25000  Biso   1.000  H
  H34      1.0000 0.11800  0.77200  0.75000  Biso   1.000  H
  H35      1.0000 0.27000  0.63800  0.24500  Biso   1.000  H
  H36      1.0000 0.73000  0.36200  0.75500  Biso   1.000  H
  H37      1.0000 0.14600  0.64300  0.13400  Biso   1.000  H
  H38      1.0000 0.85400  0.35700  0.86600  Biso   1.000  H
  H39      1.0000 0.27400  0.58500  0.06200  Biso   1.000  H
  H40      1.0000 0.72600  0.41500  0.93800  Biso   1.000  H
