data_image0
_cell_length_a       16.6307
_cell_length_b       16.6307
_cell_length_c       16.3071
_cell_angle_alpha    90
_cell_angle_beta     90
_cell_angle_gamma    90

_symmetry_space_group_name_H-M    "P 1"
_symmetry_int_tables_number       1

loop_
  _symmetry_equiv_pos_as_xyz
  'x, y, z'

loop_
  _atom_site_label
  _atom_site_occupancy
  _atom_site_fract_x
  _atom_site_fract_y
  _atom_site_fract_z
  _atom_site_thermal_displace_type
  _atom_site_B_iso_or_equiv
  _atom_site_type_symbol
  C1       1.0000 0.92340  0.42820  0.63769  Biso   1.000  C
  C2       1.0000 0.57660  0.07180  0.13769  Biso   1.000  C
  C3       1.0000 0.57180  0.42340  0.88769  Biso   1.000  C
  C4       1.0000 0.92820  0.07660  0.38769  Biso   1.000  C
  C5       1.0000 0.57660  0.42820  0.11231  Biso   1.000  C
  C6       1.0000 0.92340  0.07180  0.61231  Biso   1.000  C
  C7       1.0000 0.92820  0.42340  0.86231  Biso   1.000  C
  C8       1.0000 0.57180  0.07660  0.36231  Biso   1.000  C
  C9       1.0000 0.42340  0.92820  0.13769  Biso   1.000  C
  C10      1.0000 0.07660  0.57180  0.63769  Biso   1.000  C
  C11      1.0000 0.07180  0.92340  0.38769  Biso   1.000  C
  C12      1.0000 0.42820  0.57660  0.88769  Biso   1.000  C
  C13      1.0000 0.07660  0.92820  0.61231  Biso   1.000  C
  C14      1.0000 0.42340  0.57180  0.11231  Biso   1.000  C
  C15      1.0000 0.42820  0.92340  0.36231  Biso   1.000  C
  C16      1.0000 0.07180  0.57660  0.86231  Biso   1.000  C
  C17      1.0000 0.87930  0.39020  0.56739  Biso   1.000  C
  C18      1.0000 0.62070  0.10980  0.06739  Biso   1.000  C
  C19      1.0000 0.60980  0.37930  0.81739  Biso   1.000  C
  C20      1.0000 0.89020  0.12070  0.31739  Biso   1.000  C
  C21      1.0000 0.62070  0.39020  0.18261  Biso   1.000  C
  C22      1.0000 0.87930  0.10980  0.68261  Biso   1.000  C
  C23      1.0000 0.89020  0.37930  0.93261  Biso   1.000  C
  C24      1.0000 0.60980  0.12070  0.43261  Biso   1.000  C
  C25      1.0000 0.37930  0.89020  0.06739  Biso   1.000  C
  C26      1.0000 0.12070  0.60980  0.56739  Biso   1.000  C
  C27      1.0000 0.10980  0.87930  0.31739  Biso   1.000  C
  C28      1.0000 0.39020  0.62070  0.81739  Biso   1.000  C
  C29      1.0000 0.12070  0.89020  0.68261  Biso   1.000  C
  C30      1.0000 0.37930  0.60980  0.18261  Biso   1.000  C
  C31      1.0000 0.39020  0.87930  0.43261  Biso   1.000  C
  C32      1.0000 0.10980  0.62070  0.93261  Biso   1.000  C
  C33      1.0000 0.90100  0.31610  0.53690  Biso   1.000  C
  C34      1.0000 0.59900  0.18390  0.03690  Biso   1.000  C
  C35      1.0000 0.68390  0.40100  0.78690  Biso   1.000  C
  C36      1.0000 0.81610  0.09900  0.28690  Biso   1.000  C
  C37      1.0000 0.59900  0.31610  0.21310  Biso   1.000  C
  C38      1.0000 0.90100  0.18390  0.71310  Biso   1.000  C
  C39      1.0000 0.81610  0.40100  0.96310  Biso   1.000  C
  C40      1.0000 0.68390  0.09900  0.46310  Biso   1.000  C
  C41      1.0000 0.40100  0.81610  0.03690  Biso   1.000  C
  C42      1.0000 0.09900  0.68390  0.53690  Biso   1.000  C
  C43      1.0000 0.18390  0.90100  0.28690  Biso   1.000  C
  C44      1.0000 0.31610  0.59900  0.78690  Biso   1.000  C
  C45      1.0000 0.09900  0.81610  0.71310  Biso   1.000  C
  C46      1.0000 0.40100  0.68390  0.21310  Biso   1.000  C
  C47      1.0000 0.31610  0.90100  0.46310  Biso   1.000  C
  C48      1.0000 0.18390  0.59900  0.96310  Biso   1.000  C
  H1       1.0000 0.94420  0.28900  0.56030  Biso   1.000  H
  H2       1.0000 0.55580  0.21100  0.06030  Biso   1.000  H
  H3       1.0000 0.71100  0.44420  0.81030  Biso   1.000  H
  H4       1.0000 0.78900  0.05580  0.31030  Biso   1.000  H
  H5       1.0000 0.55580  0.28900  0.18970  Biso   1.000  H
  H6       1.0000 0.94420  0.21100  0.68970  Biso   1.000  H
  H7       1.0000 0.78900  0.44420  0.93970  Biso   1.000  H
  H8       1.0000 0.71100  0.05580  0.43970  Biso   1.000  H
  H9       1.0000 0.44420  0.78900  0.06030  Biso   1.000  H
  H10      1.0000 0.05580  0.71100  0.56030  Biso   1.000  H
  H11      1.0000 0.21100  0.94420  0.31030  Biso   1.000  H
  H12      1.0000 0.28900  0.55580  0.81030  Biso   1.000  H
  H13      1.0000 0.05580  0.78900  0.68970  Biso   1.000  H
  H14      1.0000 0.44420  0.71100  0.18970  Biso   1.000  H
  H15      1.0000 0.28900  0.94420  0.43970  Biso   1.000  H
  H16      1.0000 0.21100  0.55580  0.93970  Biso   1.000  H
  C49      1.0000 0.85990  0.28110  0.47230  Biso   1.000  C
  C50      1.0000 0.64010  0.21890  0.97230  Biso   1.000  C
  C51      1.0000 0.71890  0.35990  0.72230  Biso   1.000  C
  C52      1.0000 0.78110  0.14010  0.22230  Biso   1.000  C
  C53      1.0000 0.64010  0.28110  0.27770  Biso   1.000  C
  C54      1.0000 0.85990  0.21890  0.77770  Biso   1.000  C
  C55      1.0000 0.78110  0.35990  0.02770  Biso   1.000  C
  C56      1.0000 0.71890  0.14010  0.52770  Biso   1.000  C
  C57      1.0000 0.35990  0.78110  0.97230  Biso   1.000  C
  C58      1.0000 0.14010  0.71890  0.47230  Biso   1.000  C
  C59      1.0000 0.21890  0.85990  0.22230  Biso   1.000  C
  C60      1.0000 0.28110  0.64010  0.72230  Biso   1.000  C
  C61      1.0000 0.14010  0.78110  0.77770  Biso   1.000  C
  C62      1.0000 0.35990  0.71890  0.27770  Biso   1.000  C
  C63      1.0000 0.28110  0.85990  0.52770  Biso   1.000  C
  C64      1.0000 0.21890  0.64010  0.02770  Biso   1.000  C
  H17      1.0000 0.87490  0.23090  0.45250  Biso   1.000  H
  H18      1.0000 0.62510  0.26910  0.95250  Biso   1.000  H
  H19      1.0000 0.76910  0.37490  0.70250  Biso   1.000  H
  H20      1.0000 0.73090  0.12510  0.20250  Biso   1.000  H
  H21      1.0000 0.62510  0.23090  0.29750  Biso   1.000  H
  H22      1.0000 0.87490  0.26910  0.79750  Biso   1.000  H
  H23      1.0000 0.73090  0.37490  0.04750  Biso   1.000  H
  H24      1.0000 0.76910  0.12510  0.54750  Biso   1.000  H
  H25      1.0000 0.37490  0.73090  0.95250  Biso   1.000  H
  H26      1.0000 0.12510  0.76910  0.45250  Biso   1.000  H
  H27      1.0000 0.26910  0.87490  0.20250  Biso   1.000  H
  H28      1.0000 0.23090  0.62510  0.70250  Biso   1.000  H
  H29      1.0000 0.12510  0.73090  0.79750  Biso   1.000  H
  H30      1.0000 0.37490  0.76910  0.29750  Biso   1.000  H
  H31      1.0000 0.23090  0.87490  0.54750  Biso   1.000  H
  H32      1.0000 0.26910  0.62510  0.04750  Biso   1.000  H
  C65      1.0000 0.79540  0.32280  0.43720  Biso   1.000  C
  C66      1.0000 0.70460  0.17720  0.93720  Biso   1.000  C
  C67      1.0000 0.67720  0.29540  0.68720  Biso   1.000  C
  C68      1.0000 0.82280  0.20460  0.18720  Biso   1.000  C
  C69      1.0000 0.70460  0.32280  0.31280  Biso   1.000  C
  C70      1.0000 0.79540  0.17720  0.81280  Biso   1.000  C
  C71      1.0000 0.82280  0.29540  0.06280  Biso   1.000  C
  C72      1.0000 0.67720  0.20460  0.56280  Biso   1.000  C
  C73      1.0000 0.29540  0.82280  0.93720  Biso   1.000  C
  C74      1.0000 0.20460  0.67720  0.43720  Biso   1.000  C
  C75      1.0000 0.17720  0.79540  0.18720  Biso   1.000  C
  C76      1.0000 0.32280  0.70460  0.68720  Biso   1.000  C
  C77      1.0000 0.20460  0.82280  0.81280  Biso   1.000  C
  C78      1.0000 0.29540  0.67720  0.31280  Biso   1.000  C
  C79      1.0000 0.32280  0.79540  0.56280  Biso   1.000  C
  C80      1.0000 0.17720  0.70460  0.06280  Biso   1.000  C
  C81      1.0000 0.77420  0.39640  0.46860  Biso   1.000  C
  C82      1.0000 0.72580  0.10360  0.96860  Biso   1.000  C
  C83      1.0000 0.60360  0.27420  0.71860  Biso   1.000  C
  C84      1.0000 0.89640  0.22580  0.21860  Biso   1.000  C
  C85      1.0000 0.72580  0.39640  0.28140  Biso   1.000  C
  C86      1.0000 0.77420  0.10360  0.78140  Biso   1.000  C
  C87      1.0000 0.89640  0.27420  0.03140  Biso   1.000  C
  C88      1.0000 0.60360  0.22580  0.53140  Biso   1.000  C
  C89      1.0000 0.27420  0.89640  0.96860  Biso   1.000  C
  C90      1.0000 0.22580  0.60360  0.46860  Biso   1.000  C
  C91      1.0000 0.10360  0.77420  0.21860  Biso   1.000  C
  C92      1.0000 0.39640  0.72580  0.71860  Biso   1.000  C
  C93      1.0000 0.22580  0.89640  0.78140  Biso   1.000  C
  C94      1.0000 0.27420  0.60360  0.28140  Biso   1.000  C
  C95      1.0000 0.39640  0.77420  0.53140  Biso   1.000  C
  C96      1.0000 0.10360  0.72580  0.03140  Biso   1.000  C
  H33      1.0000 0.73110  0.42410  0.44570  Biso   1.000  H
  H34      1.0000 0.76890  0.07590  0.94570  Biso   1.000  H
  H35      1.0000 0.57590  0.23110  0.69570  Biso   1.000  H
  H36      1.0000 0.92410  0.26890  0.19570  Biso   1.000  H
  H37      1.0000 0.76890  0.42410  0.30430  Biso   1.000  H
  H38      1.0000 0.73110  0.07590  0.80430  Biso   1.000  H
  H39      1.0000 0.92410  0.23110  0.05430  Biso   1.000  H
  H40      1.0000 0.57590  0.26890  0.55430  Biso   1.000  H
  H41      1.0000 0.23110  0.92410  0.94570  Biso   1.000  H
  H42      1.0000 0.26890  0.57590  0.44570  Biso   1.000  H
  H43      1.0000 0.07590  0.73110  0.19570  Biso   1.000  H
  H44      1.0000 0.42410  0.76890  0.69570  Biso   1.000  H
  H45      1.0000 0.26890  0.92410  0.80430  Biso   1.000  H
  H46      1.0000 0.23110  0.57590  0.30430  Biso   1.000  H
  H47      1.0000 0.42410  0.73110  0.55430  Biso   1.000  H
  H48      1.0000 0.07590  0.76890  0.05430  Biso   1.000  H
  C97      1.0000 0.81460  0.42900  0.53180  Biso   1.000  C
  C98      1.0000 0.68540  0.07100  0.03180  Biso   1.000  C
  C99      1.0000 0.57100  0.31460  0.78180  Biso   1.000  C
  C100     1.0000 0.92900  0.18540  0.28180  Biso   1.000  C
  C101     1.0000 0.68540  0.42900  0.21820  Biso   1.000  C
  C102     1.0000 0.81460  0.07100  0.71820  Biso   1.000  C
  C103     1.0000 0.92900  0.31460  0.96820  Biso   1.000  C
  C104     1.0000 0.57100  0.18540  0.46820  Biso   1.000  C
  C105     1.0000 0.31460  0.92900  0.03180  Biso   1.000  C
  C106     1.0000 0.18540  0.57100  0.53180  Biso   1.000  C
  C107     1.0000 0.07100  0.81460  0.28180  Biso   1.000  C
  C108     1.0000 0.42900  0.68540  0.78180  Biso   1.000  C
  C109     1.0000 0.18540  0.92900  0.71820  Biso   1.000  C
  C110     1.0000 0.31460  0.57100  0.21820  Biso   1.000  C
  C111     1.0000 0.42900  0.81460  0.46820  Biso   1.000  C
  C112     1.0000 0.07100  0.68540  0.96820  Biso   1.000  C
  H49      1.0000 0.79860  0.47870  0.55210  Biso   1.000  H
  H50      1.0000 0.70140  0.02130  0.05210  Biso   1.000  H
  H51      1.0000 0.52130  0.29860  0.80210  Biso   1.000  H
  H52      1.0000 0.97870  0.20140  0.30210  Biso   1.000  H
  H53      1.0000 0.70140  0.47870  0.19790  Biso   1.000  H
  H54      1.0000 0.79860  0.02130  0.69790  Biso   1.000  H
  H55      1.0000 0.97870  0.29860  0.94790  Biso   1.000  H
  H56      1.0000 0.52130  0.20140  0.44790  Biso   1.000  H
  H57      1.0000 0.29860  0.97870  0.05210  Biso   1.000  H
  H58      1.0000 0.20140  0.52130  0.55210  Biso   1.000  H
  H59      1.0000 0.02130  0.79860  0.30210  Biso   1.000  H
  H60      1.0000 0.47870  0.70140  0.80210  Biso   1.000  H
  H61      1.0000 0.20140  0.97870  0.69790  Biso   1.000  H
  H62      1.0000 0.29860  0.52130  0.19790  Biso   1.000  H
  H63      1.0000 0.47870  0.79860  0.44790  Biso   1.000  H
  H64      1.0000 0.02130  0.70140  0.94790  Biso   1.000  H
  Cu1      1.0000 0.94413  0.55587  0.75000  Biso   1.000  Cu
  Cu2      1.0000 0.55587  0.94413  0.25000  Biso   1.000  Cu
  Cu3      1.0000 0.44413  0.44413  0.00000  Biso   1.000  Cu
  Cu4      1.0000 0.05587  0.05587  0.50000  Biso   1.000  Cu
  Cu5      1.0000 0.55587  0.55587  0.00000  Biso   1.000  Cu
  Cu6      1.0000 0.94413  0.94413  0.50000  Biso   1.000  Cu
  Cu7      1.0000 0.05587  0.44413  0.75000  Biso   1.000  Cu
  Cu8      1.0000 0.44413  0.05587  0.25000  Biso   1.000  Cu
  N1       1.0000 0.75000  0.28240  0.37500  Biso   1.000  N
  N2       1.0000 0.75000  0.21760  0.87500  Biso   1.000  N
  N3       1.0000 0.71760  0.25000  0.62500  Biso   1.000  N
  N4       1.0000 0.78240  0.25000  0.12500  Biso   1.000  N
  N5       1.0000 0.25000  0.78240  0.87500  Biso   1.000  N
  N6       1.0000 0.25000  0.71760  0.37500  Biso   1.000  N
  N7       1.0000 0.21760  0.75000  0.12500  Biso   1.000  N
  N8       1.0000 0.28240  0.75000  0.62500  Biso   1.000  N
  H65      1.0000 0.71520  0.24990  0.40140  Biso   1.000  H
  H66      1.0000 0.78480  0.25010  0.90140  Biso   1.000  H
  H67      1.0000 0.75010  0.21520  0.65140  Biso   1.000  H
  H68      1.0000 0.74990  0.28480  0.15140  Biso   1.000  H
  H69      1.0000 0.78480  0.24990  0.34860  Biso   1.000  H
  H70      1.0000 0.71520  0.25010  0.84860  Biso   1.000  H
  H71      1.0000 0.74990  0.21520  0.09860  Biso   1.000  H
  H72      1.0000 0.75010  0.28480  0.59860  Biso   1.000  H
  H73      1.0000 0.21520  0.74990  0.90140  Biso   1.000  H
  H74      1.0000 0.28480  0.75010  0.40140  Biso   1.000  H
  H75      1.0000 0.25010  0.71520  0.15140  Biso   1.000  H
  H76      1.0000 0.24990  0.78480  0.65140  Biso   1.000  H
  H77      1.0000 0.28480  0.74990  0.84860  Biso   1.000  H
  H78      1.0000 0.21520  0.75010  0.34860  Biso   1.000  H
  H79      1.0000 0.24990  0.71520  0.59860  Biso   1.000  H
  H80      1.0000 0.25010  0.78480  0.09860  Biso   1.000  H
  O1       1.0000 0.89522  0.49304  0.66360  Biso   1.000  O
  O2       1.0000 0.60478  0.00696  0.16360  Biso   1.000  O
  O3       1.0000 0.50696  0.39522  0.91360  Biso   1.000  O
  O4       1.0000 0.99304  0.10478  0.41360  Biso   1.000  O
  O5       1.0000 0.60478  0.49304  0.08640  Biso   1.000  O
  O6       1.0000 0.89522  0.00696  0.58640  Biso   1.000  O
  O7       1.0000 0.99304  0.39522  0.83640  Biso   1.000  O
  O8       1.0000 0.50696  0.10478  0.33640  Biso   1.000  O
  O9       1.0000 0.39522  0.99304  0.16360  Biso   1.000  O
  O10      1.0000 0.10478  0.50696  0.66360  Biso   1.000  O
  O11      1.0000 0.00696  0.89522  0.41360  Biso   1.000  O
  O12      1.0000 0.49304  0.60478  0.91360  Biso   1.000  O
  O13      1.0000 0.10478  0.99304  0.58640  Biso   1.000  O
  O14      1.0000 0.39522  0.50696  0.08640  Biso   1.000  O
  O15      1.0000 0.49304  0.89522  0.33640  Biso   1.000  O
  O16      1.0000 0.00696  0.60478  0.83640  Biso   1.000  O
  O17      1.0000 0.85210  0.64790  0.75000  Biso   1.000  O
  O18      1.0000 0.64790  0.85210  0.25000  Biso   1.000  O
  O19      1.0000 0.35210  0.35210  0.00000  Biso   1.000  O
  O20      1.0000 0.14790  0.14790  0.50000  Biso   1.000  O
  O21      1.0000 0.64790  0.64790  0.00000  Biso   1.000  O
  O22      1.0000 0.85210  0.85210  0.50000  Biso   1.000  O
  O23      1.0000 0.14790  0.35210  0.75000  Biso   1.000  O
  O24      1.0000 0.35210  0.14790  0.25000  Biso   1.000  O
  H81      1.0000 0.81220  0.63530  0.70940  Biso   1.000  H
  H82      1.0000 0.68780  0.86470  0.20940  Biso   1.000  H
  H83      1.0000 0.36470  0.31220  0.95940  Biso   1.000  H
  H84      1.0000 0.13530  0.18780  0.45940  Biso   1.000  H
  H85      1.0000 0.68780  0.63530  0.04060  Biso   1.000  H
  H86      1.0000 0.81220  0.86470  0.54060  Biso   1.000  H
  H87      1.0000 0.13530  0.31220  0.79060  Biso   1.000  H
  H88      1.0000 0.36470  0.18780  0.29060  Biso   1.000  H
  H89      1.0000 0.31220  0.13530  0.20940  Biso   1.000  H
  H90      1.0000 0.18780  0.36470  0.70940  Biso   1.000  H
  H91      1.0000 0.86470  0.81220  0.45940  Biso   1.000  H
  H92      1.0000 0.63530  0.68780  0.95940  Biso   1.000  H
  H93      1.0000 0.18780  0.13530  0.54060  Biso   1.000  H
  H94      1.0000 0.31220  0.36470  0.04060  Biso   1.000  H
  H95      1.0000 0.63530  0.81220  0.29060  Biso   1.000  H
  H96      1.0000 0.86470  0.68780  0.79060  Biso   1.000  H
  O25      1.0000 0.98429  0.39378  0.66603  Biso   1.000  O
  O26      1.0000 0.51571  0.10622  0.16603  Biso   1.000  O
  O27      1.0000 0.60622  0.48429  0.91603  Biso   1.000  O
  O28      1.0000 0.89378  0.01571  0.41603  Biso   1.000  O
  O29      1.0000 0.51571  0.39378  0.08397  Biso   1.000  O
  O30      1.0000 0.98429  0.10622  0.58397  Biso   1.000  O
  O31      1.0000 0.89378  0.48429  0.83397  Biso   1.000  O
  O32      1.0000 0.60622  0.01571  0.33397  Biso   1.000  O
  O33      1.0000 0.48429  0.89378  0.16603  Biso   1.000  O
  O34      1.0000 0.01571  0.60622  0.66603  Biso   1.000  O
  O35      1.0000 0.10622  0.98429  0.41603  Biso   1.000  O
  O36      1.0000 0.39378  0.51571  0.91603  Biso   1.000  O
  O37      1.0000 0.01571  0.89378  0.58397  Biso   1.000  O
  O38      1.0000 0.48429  0.60622  0.08397  Biso   1.000  O
  O39      1.0000 0.39378  0.98429  0.33397  Biso   1.000  O
  O40      1.0000 0.10622  0.51571  0.83397  Biso   1.000  O
  H97      1.0000 0.30100  0.37600  0.98750  Biso   1.000  H
  H98      1.0000 0.19900  0.12400  0.48750  Biso   1.000  H
  H99      1.0000 0.62400  0.80100  0.23750  Biso   1.000  H
  H100     1.0000 0.87600  0.69900  0.73750  Biso   1.000  H
  H101     1.0000 0.19900  0.37600  0.76250  Biso   1.000  H
  H102     1.0000 0.30100  0.12400  0.26250  Biso   1.000  H
  H103     1.0000 0.87600  0.80100  0.51250  Biso   1.000  H
  H104     1.0000 0.62400  0.69900  0.01250  Biso   1.000  H
  H105     1.0000 0.80100  0.87600  0.48750  Biso   1.000  H
  H106     1.0000 0.69900  0.62400  0.98750  Biso   1.000  H
  H107     1.0000 0.12400  0.30100  0.73750  Biso   1.000  H
  H108     1.0000 0.37600  0.19900  0.23750  Biso   1.000  H
  H109     1.0000 0.69900  0.87600  0.26250  Biso   1.000  H
  H110     1.0000 0.80100  0.62400  0.76250  Biso   1.000  H
  H111     1.0000 0.37600  0.30100  0.01250  Biso   1.000  H
  H112     1.0000 0.12400  0.19900  0.51250  Biso   1.000  H
