data_image0
_cell_length_a       17.924
_cell_length_b       17.924
_cell_length_c       17.225
_cell_angle_alpha    90
_cell_angle_beta     90
_cell_angle_gamma    90

_symmetry_space_group_name_H-M    "P 1"
_symmetry_int_tables_number       1

loop_
  _symmetry_equiv_pos_as_xyz
  'x, y, z'

loop_
  _atom_site_label
  _atom_site_occupancy
  _atom_site_fract_x
  _atom_site_fract_y
  _atom_site_fract_z
  _atom_site_thermal_displace_type
  _atom_site_B_iso_or_equiv
  _atom_site_type_symbol
  O1       1.0000 0.10060  0.42330  0.52880  Biso   1.000  O
  O2       1.0000 0.39940  0.57670  0.02880  Biso   1.000  O
  O3       1.0000 0.32670  0.35060  0.77880  Biso   1.000  O
  O4       1.0000 0.17330  0.64940  0.27880  Biso   1.000  O
  O5       1.0000 0.60060  0.92330  0.02880  Biso   1.000  O
  O6       1.0000 0.89940  0.07670  0.52880  Biso   1.000  O
  O7       1.0000 0.82670  0.85060  0.27880  Biso   1.000  O
  O8       1.0000 0.67330  0.14940  0.77880  Biso   1.000  O
  O9       1.0000 0.89940  0.57670  0.47120  Biso   1.000  O
  O10      1.0000 0.60060  0.42330  0.97120  Biso   1.000  O
  O11      1.0000 0.17330  0.14940  0.72120  Biso   1.000  O
  O12      1.0000 0.32670  0.85060  0.22120  Biso   1.000  O
  O13      1.0000 0.39940  0.07670  0.97120  Biso   1.000  O
  O14      1.0000 0.10060  0.92330  0.47120  Biso   1.000  O
  O15      1.0000 0.67330  0.64940  0.22120  Biso   1.000  O
  O16      1.0000 0.82670  0.35060  0.72120  Biso   1.000  O
  O17      1.0000 0.98260  0.36690  0.64750  Biso   1.000  O
  O18      1.0000 0.51740  0.63310  0.14750  Biso   1.000  O
  O19      1.0000 0.38310  0.23260  0.89750  Biso   1.000  O
  O20      1.0000 0.11690  0.76740  0.39750  Biso   1.000  O
  O21      1.0000 0.48260  0.86690  0.14750  Biso   1.000  O
  O22      1.0000 0.01740  0.13310  0.64750  Biso   1.000  O
  O23      1.0000 0.88310  0.73260  0.39750  Biso   1.000  O
  O24      1.0000 0.61690  0.26740  0.89750  Biso   1.000  O
  O25      1.0000 0.01740  0.63310  0.35250  Biso   1.000  O
  O26      1.0000 0.48260  0.36690  0.85250  Biso   1.000  O
  O27      1.0000 0.11690  0.26740  0.60250  Biso   1.000  O
  O28      1.0000 0.38310  0.73260  0.10250  Biso   1.000  O
  O29      1.0000 0.51740  0.13310  0.85250  Biso   1.000  O
  O30      1.0000 0.98260  0.86690  0.35250  Biso   1.000  O
  O31      1.0000 0.61690  0.76740  0.10250  Biso   1.000  O
  O32      1.0000 0.88310  0.23260  0.60250  Biso   1.000  O
  H1       1.0000 0.02310  0.34310  0.65430  Biso   1.000  H
  H2       1.0000 0.47690  0.65690  0.15430  Biso   1.000  H
  H3       1.0000 0.40690  0.27310  0.90430  Biso   1.000  H
  H4       1.0000 0.09310  0.72690  0.40430  Biso   1.000  H
  H5       1.0000 0.52310  0.84310  0.15430  Biso   1.000  H
  H6       1.0000 0.97690  0.15690  0.65430  Biso   1.000  H
  H7       1.0000 0.90690  0.77310  0.40430  Biso   1.000  H
  H8       1.0000 0.59310  0.22690  0.90430  Biso   1.000  H
  H9       1.0000 0.97690  0.65690  0.34570  Biso   1.000  H
  H10      1.0000 0.52310  0.34310  0.84570  Biso   1.000  H
  H11      1.0000 0.09310  0.22690  0.59570  Biso   1.000  H
  H12      1.0000 0.40690  0.77310  0.09570  Biso   1.000  H
  H13      1.0000 0.47690  0.15690  0.84570  Biso   1.000  H
  H14      1.0000 0.02310  0.84310  0.34570  Biso   1.000  H
  H15      1.0000 0.59310  0.72690  0.09570  Biso   1.000  H
  H16      1.0000 0.90690  0.27310  0.59570  Biso   1.000  H
  H17      1.0000 0.97090  0.38940  0.68910  Biso   1.000  H
  H18      1.0000 0.52910  0.61060  0.18910  Biso   1.000  H
  H19      1.0000 0.36060  0.22090  0.93910  Biso   1.000  H
  H20      1.0000 0.13940  0.77910  0.43910  Biso   1.000  H
  H21      1.0000 0.47090  0.88940  0.18910  Biso   1.000  H
  H22      1.0000 0.02910  0.11060  0.68910  Biso   1.000  H
  H23      1.0000 0.86060  0.72090  0.43910  Biso   1.000  H
  H24      1.0000 0.63940  0.27910  0.93910  Biso   1.000  H
  H25      1.0000 0.02910  0.61060  0.31090  Biso   1.000  H
  H26      1.0000 0.47090  0.38940  0.81090  Biso   1.000  H
  H27      1.0000 0.13940  0.27910  0.56090  Biso   1.000  H
  H28      1.0000 0.36060  0.72090  0.06090  Biso   1.000  H
  H29      1.0000 0.52910  0.11060  0.81090  Biso   1.000  H
  H30      1.0000 0.97090  0.88940  0.31090  Biso   1.000  H
  H31      1.0000 0.63940  0.77910  0.06090  Biso   1.000  H
  H32      1.0000 0.86060  0.22090  0.56090  Biso   1.000  H
  C1       1.0000 0.52820  0.34970  0.62420  Biso   1.000  C
  C2       1.0000 0.97180  0.65030  0.12420  Biso   1.000  C
  C3       1.0000 0.40030  0.77820  0.87420  Biso   1.000  C
  C4       1.0000 0.09970  0.22180  0.37420  Biso   1.000  C
  C5       1.0000 0.02820  0.84970  0.12420  Biso   1.000  C
  C6       1.0000 0.47180  0.15030  0.62420  Biso   1.000  C
  C7       1.0000 0.90030  0.27820  0.37420  Biso   1.000  C
  C8       1.0000 0.59970  0.72180  0.87420  Biso   1.000  C
  C9       1.0000 0.47180  0.65030  0.37580  Biso   1.000  C
  C10      1.0000 0.02820  0.34970  0.87580  Biso   1.000  C
  C11      1.0000 0.09970  0.72180  0.62580  Biso   1.000  C
  C12      1.0000 0.40030  0.27820  0.12580  Biso   1.000  C
  C13      1.0000 0.97180  0.15030  0.87580  Biso   1.000  C
  C14      1.0000 0.52820  0.84970  0.37580  Biso   1.000  C
  C15      1.0000 0.59970  0.22180  0.12580  Biso   1.000  C
  C16      1.0000 0.90030  0.77820  0.62580  Biso   1.000  C
  H33      1.0000 0.51570  0.34390  0.67620  Biso   1.000  H
  H34      1.0000 0.98430  0.65610  0.17620  Biso   1.000  H
  H35      1.0000 0.40610  0.76570  0.92620  Biso   1.000  H
  H36      1.0000 0.09390  0.23430  0.42620  Biso   1.000  H
  H37      1.0000 0.01570  0.84390  0.17620  Biso   1.000  H
  H38      1.0000 0.48430  0.15610  0.67620  Biso   1.000  H
  H39      1.0000 0.90610  0.26570  0.42620  Biso   1.000  H
  H40      1.0000 0.59390  0.73430  0.92620  Biso   1.000  H
  H41      1.0000 0.48430  0.65610  0.32380  Biso   1.000  H
  H42      1.0000 0.01570  0.34390  0.82380  Biso   1.000  H
  H43      1.0000 0.09390  0.73430  0.57380  Biso   1.000  H
  H44      1.0000 0.40610  0.26570  0.07380  Biso   1.000  H
  H45      1.0000 0.98430  0.15610  0.82380  Biso   1.000  H
  H46      1.0000 0.51570  0.84390  0.32380  Biso   1.000  H
  H47      1.0000 0.59390  0.23430  0.07380  Biso   1.000  H
  H48      1.0000 0.90610  0.76570  0.57380  Biso   1.000  H
  Cu1      1.0000 0.99723  0.44994  0.55457  Biso   1.000  Cu
  Cu2      1.0000 0.50277  0.55006  0.05457  Biso   1.000  Cu
  Cu3      1.0000 0.30006  0.24723  0.80457  Biso   1.000  Cu
  Cu4      1.0000 0.19994  0.75277  0.30457  Biso   1.000  Cu
  Cu5      1.0000 0.49723  0.94994  0.05457  Biso   1.000  Cu
  Cu6      1.0000 0.00277  0.05006  0.55457  Biso   1.000  Cu
  Cu7      1.0000 0.80006  0.74723  0.30457  Biso   1.000  Cu
  Cu8      1.0000 0.69994  0.25277  0.80457  Biso   1.000  Cu
  Cu9      1.0000 0.00277  0.55006  0.44543  Biso   1.000  Cu
  Cu10     1.0000 0.49723  0.44994  0.94543  Biso   1.000  Cu
  Cu11     1.0000 0.19994  0.25277  0.69543  Biso   1.000  Cu
  Cu12     1.0000 0.30006  0.74723  0.19543  Biso   1.000  Cu
  Cu13     1.0000 0.50277  0.05006  0.94543  Biso   1.000  Cu
  Cu14     1.0000 0.99723  0.94994  0.44543  Biso   1.000  Cu
  Cu15     1.0000 0.69994  0.75277  0.19543  Biso   1.000  Cu
  Cu16     1.0000 0.80006  0.24723  0.69543  Biso   1.000  Cu
  O33      1.0000 0.10450  0.51280  0.43840  Biso   1.000  O
  O34      1.0000 0.39550  0.48720  0.93840  Biso   1.000  O
  O35      1.0000 0.23720  0.35450  0.68840  Biso   1.000  O
  O36      1.0000 0.26280  0.64550  0.18840  Biso   1.000  O
  O37      1.0000 0.60450  0.01280  0.93840  Biso   1.000  O
  O38      1.0000 0.89550  0.98720  0.43840  Biso   1.000  O
  O39      1.0000 0.73720  0.85450  0.18840  Biso   1.000  O
  O40      1.0000 0.76280  0.14550  0.68840  Biso   1.000  O
  O41      1.0000 0.89550  0.48720  0.56160  Biso   1.000  O
  O42      1.0000 0.60450  0.51280  0.06160  Biso   1.000  O
  O43      1.0000 0.26280  0.14550  0.81160  Biso   1.000  O
  O44      1.0000 0.23720  0.85450  0.31160  Biso   1.000  O
  O45      1.0000 0.39550  0.98720  0.06160  Biso   1.000  O
  O46      1.0000 0.10450  0.01280  0.56160  Biso   1.000  O
  O47      1.0000 0.76280  0.64550  0.31160  Biso   1.000  O
  O48      1.0000 0.73720  0.35450  0.81160  Biso   1.000  O
  C17      1.0000 0.21430  0.44620  0.46340  Biso   1.000  C
  C18      1.0000 0.28570  0.55380  0.96340  Biso   1.000  C
  C19      1.0000 0.30380  0.46430  0.71340  Biso   1.000  C
  C20      1.0000 0.19620  0.53570  0.21340  Biso   1.000  C
  C21      1.0000 0.71430  0.94620  0.96340  Biso   1.000  C
  C22      1.0000 0.78570  0.05380  0.46340  Biso   1.000  C
  C23      1.0000 0.80380  0.96430  0.21340  Biso   1.000  C
  C24      1.0000 0.69620  0.03570  0.71340  Biso   1.000  C
  C25      1.0000 0.78570  0.55380  0.53660  Biso   1.000  C
  C26      1.0000 0.71430  0.44620  0.03660  Biso   1.000  C
  C27      1.0000 0.19620  0.03570  0.78660  Biso   1.000  C
  C28      1.0000 0.30380  0.96430  0.28660  Biso   1.000  C
  C29      1.0000 0.28570  0.05380  0.03660  Biso   1.000  C
  C30      1.0000 0.21430  0.94620  0.53660  Biso   1.000  C
  C31      1.0000 0.69620  0.53570  0.28660  Biso   1.000  C
  C32      1.0000 0.80380  0.46430  0.78660  Biso   1.000  C
  C33      1.0000 0.36850  0.42840  0.44920  Biso   1.000  C
  C34      1.0000 0.13150  0.57160  0.94920  Biso   1.000  C
  C35      1.0000 0.32160  0.61850  0.69920  Biso   1.000  C
  C36      1.0000 0.17840  0.38150  0.19920  Biso   1.000  C
  C37      1.0000 0.86850  0.92840  0.94920  Biso   1.000  C
  C38      1.0000 0.63150  0.07160  0.44920  Biso   1.000  C
  C39      1.0000 0.82160  0.11850  0.19920  Biso   1.000  C
  C40      1.0000 0.67840  0.88150  0.69920  Biso   1.000  C
  C41      1.0000 0.63150  0.57160  0.55080  Biso   1.000  C
  C42      1.0000 0.86850  0.42840  0.05080  Biso   1.000  C
  C43      1.0000 0.17840  0.88150  0.80080  Biso   1.000  C
  C44      1.0000 0.32160  0.11850  0.30080  Biso   1.000  C
  C45      1.0000 0.13150  0.07160  0.05080  Biso   1.000  C
  C46      1.0000 0.36850  0.92840  0.55080  Biso   1.000  C
  C47      1.0000 0.67840  0.38150  0.30080  Biso   1.000  C
  C48      1.0000 0.82160  0.61850  0.80080  Biso   1.000  C
  N1       1.0000 0.44550  0.42180  0.44270  Biso   1.000  N
  N2       1.0000 0.05450  0.57820  0.94270  Biso   1.000  N
  N3       1.0000 0.32820  0.69550  0.69270  Biso   1.000  N
  N4       1.0000 0.17180  0.30450  0.19270  Biso   1.000  N
  N5       1.0000 0.94550  0.92180  0.94270  Biso   1.000  N
  N6       1.0000 0.55450  0.07820  0.44270  Biso   1.000  N
  N7       1.0000 0.82820  0.19550  0.19270  Biso   1.000  N
  N8       1.0000 0.67180  0.80450  0.69270  Biso   1.000  N
  N9       1.0000 0.55450  0.57820  0.55730  Biso   1.000  N
  N10      1.0000 0.94550  0.42180  0.05730  Biso   1.000  N
  N11      1.0000 0.17180  0.80450  0.80730  Biso   1.000  N
  N12      1.0000 0.32820  0.19550  0.30730  Biso   1.000  N
  N13      1.0000 0.05450  0.07820  0.05730  Biso   1.000  N
  N14      1.0000 0.44550  0.92180  0.55730  Biso   1.000  N
  N15      1.0000 0.67180  0.30450  0.30730  Biso   1.000  N
  N16      1.0000 0.82820  0.69550  0.80730  Biso   1.000  N
  C49      1.0000 0.25610  0.49390  0.41730  Biso   1.000  C
  C50      1.0000 0.24390  0.50610  0.91730  Biso   1.000  C
  C51      1.0000 0.25610  0.50610  0.66730  Biso   1.000  C
  C52      1.0000 0.24390  0.49390  0.16730  Biso   1.000  C
  C53      1.0000 0.75610  0.99390  0.91730  Biso   1.000  C
  C54      1.0000 0.74390  0.00610  0.41730  Biso   1.000  C
  C55      1.0000 0.75610  0.00610  0.16730  Biso   1.000  C
  C56      1.0000 0.74390  0.99390  0.66730  Biso   1.000  C
  C57      1.0000 0.74390  0.50610  0.58270  Biso   1.000  C
  C58      1.0000 0.75610  0.49390  0.08270  Biso   1.000  C
  C59      1.0000 0.24390  0.99390  0.83270  Biso   1.000  C
  C60      1.0000 0.25610  0.00610  0.33270  Biso   1.000  C
  C61      1.0000 0.24390  0.00610  0.08270  Biso   1.000  C
  C62      1.0000 0.25610  0.99390  0.58270  Biso   1.000  C
  C63      1.0000 0.74390  0.49390  0.33270  Biso   1.000  C
  C64      1.0000 0.75610  0.50610  0.83270  Biso   1.000  C
  H49      1.0000 0.23230  0.53240  0.39090  Biso   1.000  H
  H50      1.0000 0.26770  0.46760  0.89090  Biso   1.000  H
  H51      1.0000 0.21760  0.48230  0.64090  Biso   1.000  H
  H52      1.0000 0.28240  0.51770  0.14090  Biso   1.000  H
  H53      1.0000 0.73230  0.03240  0.89090  Biso   1.000  H
  H54      1.0000 0.76770  0.96760  0.39090  Biso   1.000  H
  H55      1.0000 0.71760  0.98230  0.14090  Biso   1.000  H
  H56      1.0000 0.78240  0.01770  0.64090  Biso   1.000  H
  H57      1.0000 0.76770  0.46760  0.60910  Biso   1.000  H
  H58      1.0000 0.73230  0.53240  0.10910  Biso   1.000  H
  H59      1.0000 0.28240  0.01770  0.85910  Biso   1.000  H
  H60      1.0000 0.21760  0.98230  0.35910  Biso   1.000  H
  H61      1.0000 0.26770  0.96760  0.10910  Biso   1.000  H
  H62      1.0000 0.23230  0.03240  0.60910  Biso   1.000  H
  H63      1.0000 0.78240  0.51770  0.35910  Biso   1.000  H
  H64      1.0000 0.71760  0.48230  0.85910  Biso   1.000  H
  C65      1.0000 0.47790  0.38180  0.57450  Biso   1.000  C
  C66      1.0000 0.02210  0.61820  0.07450  Biso   1.000  C
  C67      1.0000 0.36820  0.72790  0.82450  Biso   1.000  C
  C68      1.0000 0.13180  0.27210  0.32450  Biso   1.000  C
  C69      1.0000 0.97790  0.88180  0.07450  Biso   1.000  C
  C70      1.0000 0.52210  0.11820  0.57450  Biso   1.000  C
  C71      1.0000 0.86820  0.22790  0.32450  Biso   1.000  C
  C72      1.0000 0.63180  0.77210  0.82450  Biso   1.000  C
  C73      1.0000 0.52210  0.61820  0.42550  Biso   1.000  C
  C74      1.0000 0.97790  0.38180  0.92550  Biso   1.000  C
  C75      1.0000 0.13180  0.77210  0.67550  Biso   1.000  C
  C76      1.0000 0.36820  0.22790  0.17550  Biso   1.000  C
  C77      1.0000 0.02210  0.11820  0.92550  Biso   1.000  C
  C78      1.0000 0.47790  0.88180  0.42550  Biso   1.000  C
  C79      1.0000 0.63180  0.27210  0.17550  Biso   1.000  C
  C80      1.0000 0.86820  0.72790  0.67550  Biso   1.000  C
  H65      1.0000 0.43210  0.39840  0.59320  Biso   1.000  H
  H66      1.0000 0.06790  0.60160  0.09320  Biso   1.000  H
  H67      1.0000 0.35160  0.68210  0.84320  Biso   1.000  H
  H68      1.0000 0.14840  0.31790  0.34320  Biso   1.000  H
  H69      1.0000 0.93210  0.89840  0.09320  Biso   1.000  H
  H70      1.0000 0.56790  0.10160  0.59320  Biso   1.000  H
  H71      1.0000 0.85160  0.18210  0.34320  Biso   1.000  H
  H72      1.0000 0.64840  0.81790  0.84320  Biso   1.000  H
  H73      1.0000 0.56790  0.60160  0.40680  Biso   1.000  H
  H74      1.0000 0.93210  0.39840  0.90680  Biso   1.000  H
  H75      1.0000 0.14840  0.81790  0.65680  Biso   1.000  H
  H76      1.0000 0.35160  0.18210  0.15680  Biso   1.000  H
  H77      1.0000 0.06790  0.10160  0.90680  Biso   1.000  H
  H78      1.0000 0.43210  0.89840  0.40680  Biso   1.000  H
  H79      1.0000 0.64840  0.31790  0.15680  Biso   1.000  H
  H80      1.0000 0.85160  0.68210  0.65680  Biso   1.000  H
  C81      1.0000 0.25130  0.38790  0.49800  Biso   1.000  C
  C82      1.0000 0.24870  0.61210  0.99800  Biso   1.000  C
  C83      1.0000 0.36210  0.50130  0.74800  Biso   1.000  C
  C84      1.0000 0.13790  0.49870  0.24800  Biso   1.000  C
  C85      1.0000 0.75130  0.88790  0.99800  Biso   1.000  C
  C86      1.0000 0.74870  0.11210  0.49800  Biso   1.000  C
  C87      1.0000 0.86210  0.00130  0.24800  Biso   1.000  C
  C88      1.0000 0.63790  0.99870  0.74800  Biso   1.000  C
  C89      1.0000 0.74870  0.61210  0.50200  Biso   1.000  C
  C90      1.0000 0.75130  0.38790  0.00200  Biso   1.000  C
  C91      1.0000 0.13790  0.99870  0.75200  Biso   1.000  C
  C92      1.0000 0.36210  0.00130  0.25200  Biso   1.000  C
  C93      1.0000 0.24870  0.11210  0.00200  Biso   1.000  C
  C94      1.0000 0.25130  0.88790  0.50200  Biso   1.000  C
  C95      1.0000 0.63790  0.49870  0.25200  Biso   1.000  C
  C96      1.0000 0.86210  0.50130  0.75200  Biso   1.000  C
  H81      1.0000 0.22370  0.35440  0.52770  Biso   1.000  H
  H82      1.0000 0.27630  0.64560  0.02770  Biso   1.000  H
  H83      1.0000 0.39560  0.47370  0.77770  Biso   1.000  H
  H84      1.0000 0.10440  0.52630  0.27770  Biso   1.000  H
  H85      1.0000 0.72370  0.85440  0.02770  Biso   1.000  H
  H86      1.0000 0.77630  0.14560  0.52770  Biso   1.000  H
  H87      1.0000 0.89560  0.97370  0.27770  Biso   1.000  H
  H88      1.0000 0.60440  0.02630  0.77770  Biso   1.000  H
  H89      1.0000 0.77630  0.64560  0.47230  Biso   1.000  H
  H90      1.0000 0.72370  0.35440  0.97230  Biso   1.000  H
  H91      1.0000 0.10440  0.02630  0.72230  Biso   1.000  H
  H92      1.0000 0.39560  0.97370  0.22230  Biso   1.000  H
  H93      1.0000 0.27630  0.14560  0.97230  Biso   1.000  H
  H94      1.0000 0.22370  0.85440  0.47230  Biso   1.000  H
  H95      1.0000 0.60440  0.52630  0.22230  Biso   1.000  H
  H96      1.0000 0.89560  0.47370  0.72230  Biso   1.000  H
  C97      1.0000 0.33180  0.48520  0.40980  Biso   1.000  C
  C98      1.0000 0.16820  0.51480  0.90980  Biso   1.000  C
  C99      1.0000 0.26480  0.58180  0.65980  Biso   1.000  C
  C100     1.0000 0.23520  0.41820  0.15980  Biso   1.000  C
  C101     1.0000 0.83180  0.98520  0.90980  Biso   1.000  C
  C102     1.0000 0.66820  0.01480  0.40980  Biso   1.000  C
  C103     1.0000 0.76480  0.08180  0.15980  Biso   1.000  C
  C104     1.0000 0.73520  0.91820  0.65980  Biso   1.000  C
  C105     1.0000 0.66820  0.51480  0.59020  Biso   1.000  C
  C106     1.0000 0.83180  0.48520  0.09020  Biso   1.000  C
  C107     1.0000 0.23520  0.91820  0.84020  Biso   1.000  C
  C108     1.0000 0.26480  0.08180  0.34020  Biso   1.000  C
  C109     1.0000 0.16820  0.01480  0.09020  Biso   1.000  C
  C110     1.0000 0.33180  0.98520  0.59020  Biso   1.000  C
  C111     1.0000 0.73520  0.41820  0.34020  Biso   1.000  C
  C112     1.0000 0.76480  0.58180  0.84020  Biso   1.000  C
  H97      1.0000 0.35870  0.51760  0.37820  Biso   1.000  H
  H98      1.0000 0.14130  0.48240  0.87820  Biso   1.000  H
  H99      1.0000 0.23240  0.60870  0.62820  Biso   1.000  H
  H100     1.0000 0.26760  0.39130  0.12820  Biso   1.000  H
  H101     1.0000 0.85870  0.01760  0.87820  Biso   1.000  H
  H102     1.0000 0.64130  0.98240  0.37820  Biso   1.000  H
  H103     1.0000 0.73240  0.10870  0.12820  Biso   1.000  H
  H104     1.0000 0.76760  0.89130  0.62820  Biso   1.000  H
  H105     1.0000 0.64130  0.48240  0.62180  Biso   1.000  H
  H106     1.0000 0.85870  0.51760  0.12180  Biso   1.000  H
  H107     1.0000 0.26760  0.89130  0.87180  Biso   1.000  H
  H108     1.0000 0.23240  0.10870  0.37180  Biso   1.000  H
  H109     1.0000 0.14130  0.98240  0.12180  Biso   1.000  H
  H110     1.0000 0.35870  0.01760  0.62180  Biso   1.000  H
  H111     1.0000 0.76760  0.39130  0.37180  Biso   1.000  H
  H112     1.0000 0.73240  0.60870  0.87180  Biso   1.000  H
  C113     1.0000 0.49510  0.38950  0.49560  Biso   1.000  C
  C114     1.0000 0.00490  0.61050  0.99560  Biso   1.000  C
  C115     1.0000 0.36050  0.74510  0.74560  Biso   1.000  C
  C116     1.0000 0.13950  0.25490  0.24560  Biso   1.000  C
  C117     1.0000 0.99510  0.88950  0.99560  Biso   1.000  C
  C118     1.0000 0.50490  0.11050  0.49560  Biso   1.000  C
  C119     1.0000 0.86050  0.24510  0.24560  Biso   1.000  C
  C120     1.0000 0.63950  0.75490  0.74560  Biso   1.000  C
  C121     1.0000 0.50490  0.61050  0.50440  Biso   1.000  C
  C122     1.0000 0.99510  0.38950  0.00440  Biso   1.000  C
  C123     1.0000 0.13950  0.75490  0.75440  Biso   1.000  C
  C124     1.0000 0.36050  0.24510  0.25440  Biso   1.000  C
  C125     1.0000 0.00490  0.11050  0.00440  Biso   1.000  C
  C126     1.0000 0.49510  0.88950  0.50440  Biso   1.000  C
  C127     1.0000 0.63950  0.25490  0.25440  Biso   1.000  C
  C128     1.0000 0.86050  0.74510  0.75440  Biso   1.000  C
  C129     1.0000 0.13450  0.46140  0.47760  Biso   1.000  C
  C130     1.0000 0.36550  0.53860  0.97760  Biso   1.000  C
  C131     1.0000 0.28860  0.38450  0.72760  Biso   1.000  C
  C132     1.0000 0.21140  0.61550  0.22760  Biso   1.000  C
  C133     1.0000 0.63450  0.96140  0.97760  Biso   1.000  C
  C134     1.0000 0.86550  0.03860  0.47760  Biso   1.000  C
  C135     1.0000 0.78860  0.88450  0.22760  Biso   1.000  C
  C136     1.0000 0.71140  0.11550  0.72760  Biso   1.000  C
  C137     1.0000 0.86550  0.53860  0.52240  Biso   1.000  C
  C138     1.0000 0.63450  0.46140  0.02240  Biso   1.000  C
  C139     1.0000 0.21140  0.11550  0.77240  Biso   1.000  C
  C140     1.0000 0.28860  0.88450  0.27240  Biso   1.000  C
  C141     1.0000 0.36550  0.03860  0.02240  Biso   1.000  C
  C142     1.0000 0.13450  0.96140  0.52240  Biso   1.000  C
  C143     1.0000 0.71140  0.61550  0.27240  Biso   1.000  C
  C144     1.0000 0.78860  0.38450  0.77240  Biso   1.000  C
  C145     1.0000 0.56380  0.36590  0.47110  Biso   1.000  C
  C146     1.0000 0.93620  0.63410  0.97110  Biso   1.000  C
  C147     1.0000 0.38410  0.81380  0.72110  Biso   1.000  C
  C148     1.0000 0.11590  0.18620  0.22110  Biso   1.000  C
  C149     1.0000 0.06380  0.86590  0.97110  Biso   1.000  C
  C150     1.0000 0.43620  0.13410  0.47110  Biso   1.000  C
  C151     1.0000 0.88410  0.31380  0.22110  Biso   1.000  C
  C152     1.0000 0.61590  0.68620  0.72110  Biso   1.000  C
  C153     1.0000 0.43620  0.63410  0.52890  Biso   1.000  C
  C154     1.0000 0.06380  0.36590  0.02890  Biso   1.000  C
  C155     1.0000 0.11590  0.68620  0.77890  Biso   1.000  C
  C156     1.0000 0.38410  0.31380  0.27890  Biso   1.000  C
  C157     1.0000 0.93620  0.13410  0.02890  Biso   1.000  C
  C158     1.0000 0.56380  0.86590  0.52890  Biso   1.000  C
  C159     1.0000 0.61590  0.18620  0.27890  Biso   1.000  C
  C160     1.0000 0.88410  0.81380  0.77890  Biso   1.000  C
  H113     1.0000 0.57630  0.37100  0.41900  Biso   1.000  H
  H114     1.0000 0.92370  0.62900  0.91900  Biso   1.000  H
  H115     1.0000 0.37900  0.82630  0.66900  Biso   1.000  H
  H116     1.0000 0.12100  0.17370  0.16900  Biso   1.000  H
  H117     1.0000 0.07630  0.87100  0.91900  Biso   1.000  H
  H118     1.0000 0.42370  0.12900  0.41900  Biso   1.000  H
  H119     1.0000 0.87900  0.32630  0.16900  Biso   1.000  H
  H120     1.0000 0.62100  0.67370  0.66900  Biso   1.000  H
  H121     1.0000 0.42370  0.62900  0.58100  Biso   1.000  H
  H122     1.0000 0.07630  0.37100  0.08100  Biso   1.000  H
  H123     1.0000 0.12100  0.67370  0.83100  Biso   1.000  H
  H124     1.0000 0.37900  0.32630  0.33100  Biso   1.000  H
  H125     1.0000 0.92370  0.12900  0.08100  Biso   1.000  H
  H126     1.0000 0.57630  0.87100  0.58100  Biso   1.000  H
  H127     1.0000 0.62100  0.17370  0.33100  Biso   1.000  H
  H128     1.0000 0.87900  0.82630  0.83100  Biso   1.000  H
  C161     1.0000 0.32550  0.37640  0.49130  Biso   1.000  C
  C162     1.0000 0.17450  0.62360  0.99130  Biso   1.000  C
  C163     1.0000 0.37360  0.57550  0.74130  Biso   1.000  C
  C164     1.0000 0.12640  0.42450  0.24130  Biso   1.000  C
  C165     1.0000 0.82550  0.87640  0.99130  Biso   1.000  C
  C166     1.0000 0.67450  0.12360  0.49130  Biso   1.000  C
  C167     1.0000 0.87360  0.07550  0.24130  Biso   1.000  C
  C168     1.0000 0.62640  0.92450  0.74130  Biso   1.000  C
  C169     1.0000 0.67450  0.62360  0.50870  Biso   1.000  C
  C170     1.0000 0.82550  0.37640  0.00870  Biso   1.000  C
  C171     1.0000 0.12640  0.92450  0.75870  Biso   1.000  C
  C172     1.0000 0.37360  0.07550  0.25870  Biso   1.000  C
  C173     1.0000 0.17450  0.12360  0.00870  Biso   1.000  C
  C174     1.0000 0.32550  0.87640  0.50870  Biso   1.000  C
  C175     1.0000 0.62640  0.42450  0.25870  Biso   1.000  C
  C176     1.0000 0.87360  0.57550  0.75870  Biso   1.000  C
  H129     1.0000 0.34780  0.33500  0.51400  Biso   1.000  H
  H130     1.0000 0.15220  0.66500  0.01400  Biso   1.000  H
  H131     1.0000 0.41500  0.59780  0.76400  Biso   1.000  H
  H132     1.0000 0.08500  0.40220  0.26400  Biso   1.000  H
  H133     1.0000 0.84780  0.83500  0.01400  Biso   1.000  H
  H134     1.0000 0.65220  0.16500  0.51400  Biso   1.000  H
  H135     1.0000 0.91500  0.09780  0.26400  Biso   1.000  H
  H136     1.0000 0.58500  0.90220  0.76400  Biso   1.000  H
  H137     1.0000 0.65220  0.66500  0.48600  Biso   1.000  H
  H138     1.0000 0.84780  0.33500  0.98600  Biso   1.000  H
  H139     1.0000 0.08500  0.90220  0.73600  Biso   1.000  H
  H140     1.0000 0.41500  0.09780  0.23600  Biso   1.000  H
  H141     1.0000 0.15220  0.16500  0.98600  Biso   1.000  H
  H142     1.0000 0.34780  0.83500  0.48600  Biso   1.000  H
  H143     1.0000 0.58500  0.40220  0.23600  Biso   1.000  H
  H144     1.0000 0.91500  0.59780  0.73600  Biso   1.000  H
  C177     1.0000 0.59760  0.32570  0.59820  Biso   1.000  C
  C178     1.0000 0.90240  0.67430  0.09820  Biso   1.000  C
  C179     1.0000 0.42430  0.84760  0.84820  Biso   1.000  C
  C180     1.0000 0.07570  0.15240  0.34820  Biso   1.000  C
  C181     1.0000 0.09760  0.82570  0.09820  Biso   1.000  C
  C182     1.0000 0.40240  0.17430  0.59820  Biso   1.000  C
  C183     1.0000 0.92430  0.34760  0.34820  Biso   1.000  C
  C184     1.0000 0.57570  0.65240  0.84820  Biso   1.000  C
  C185     1.0000 0.40240  0.67430  0.40180  Biso   1.000  C
  C186     1.0000 0.09760  0.32570  0.90180  Biso   1.000  C
  C187     1.0000 0.07570  0.65240  0.65180  Biso   1.000  C
  C188     1.0000 0.42430  0.34760  0.15180  Biso   1.000  C
  C189     1.0000 0.90240  0.17430  0.90180  Biso   1.000  C
  C190     1.0000 0.59760  0.82570  0.40180  Biso   1.000  C
  C191     1.0000 0.57570  0.15240  0.15180  Biso   1.000  C
  C192     1.0000 0.92430  0.84760  0.65180  Biso   1.000  C
  C193     1.0000 0.61450  0.33500  0.52080  Biso   1.000  C
  C194     1.0000 0.88550  0.66500  0.02080  Biso   1.000  C
  C195     1.0000 0.41500  0.86450  0.77080  Biso   1.000  C
  C196     1.0000 0.08500  0.13550  0.27080  Biso   1.000  C
  C197     1.0000 0.11450  0.83500  0.02080  Biso   1.000  C
  C198     1.0000 0.38550  0.16500  0.52080  Biso   1.000  C
  C199     1.0000 0.91500  0.36450  0.27080  Biso   1.000  C
  C200     1.0000 0.58500  0.63550  0.77080  Biso   1.000  C
  C201     1.0000 0.38550  0.66500  0.47920  Biso   1.000  C
  C202     1.0000 0.11450  0.33500  0.97920  Biso   1.000  C
  C203     1.0000 0.08500  0.63550  0.72920  Biso   1.000  C
  C204     1.0000 0.41500  0.36450  0.22920  Biso   1.000  C
  C205     1.0000 0.88550  0.16500  0.97920  Biso   1.000  C
  C206     1.0000 0.61450  0.83500  0.47920  Biso   1.000  C
  C207     1.0000 0.58500  0.13550  0.22920  Biso   1.000  C
  C208     1.0000 0.91500  0.86450  0.72920  Biso   1.000  C
  H145     1.0000 0.66080  0.32000  0.50210  Biso   1.000  H
  H146     1.0000 0.83920  0.68000  0.00210  Biso   1.000  H
  H147     1.0000 0.43000  0.91080  0.75210  Biso   1.000  H
  H148     1.0000 0.07000  0.08920  0.25210  Biso   1.000  H
  H149     1.0000 0.16080  0.82000  0.00210  Biso   1.000  H
  H150     1.0000 0.33920  0.18000  0.50210  Biso   1.000  H
  H151     1.0000 0.93000  0.41080  0.25210  Biso   1.000  H
  H152     1.0000 0.57000  0.58920  0.75210  Biso   1.000  H
  H153     1.0000 0.33920  0.68000  0.49790  Biso   1.000  H
  H154     1.0000 0.16080  0.32000  0.99790  Biso   1.000  H
  H155     1.0000 0.07000  0.58920  0.74790  Biso   1.000  H
  H156     1.0000 0.43000  0.41080  0.24790  Biso   1.000  H
  H157     1.0000 0.83920  0.18000  0.99790  Biso   1.000  H
  H158     1.0000 0.66080  0.82000  0.49790  Biso   1.000  H
  H159     1.0000 0.57000  0.08920  0.24790  Biso   1.000  H
  H160     1.0000 0.93000  0.91080  0.74790  Biso   1.000  H
  H161     1.0000 0.47000  0.44700  0.40600  Biso   1.000  H
  H162     1.0000 0.03000  0.55300  0.90600  Biso   1.000  H
  H163     1.0000 0.30300  0.72000  0.65600  Biso   1.000  H
  H164     1.0000 0.19700  0.28000  0.15600  Biso   1.000  H
  H165     1.0000 0.97000  0.94700  0.90600  Biso   1.000  H
  H166     1.0000 0.53000  0.05300  0.40600  Biso   1.000  H
  H167     1.0000 0.80300  0.22000  0.15600  Biso   1.000  H
  H168     1.0000 0.69700  0.78000  0.65600  Biso   1.000  H
  H169     1.0000 0.53000  0.55300  0.59400  Biso   1.000  H
  H170     1.0000 0.97000  0.44700  0.09400  Biso   1.000  H
  H171     1.0000 0.19700  0.78000  0.84400  Biso   1.000  H
  H172     1.0000 0.30300  0.22000  0.34400  Biso   1.000  H
  H173     1.0000 0.03000  0.05300  0.09400  Biso   1.000  H
  H174     1.0000 0.47000  0.94700  0.59400  Biso   1.000  H
  H175     1.0000 0.69700  0.28000  0.34400  Biso   1.000  H
  H176     1.0000 0.80300  0.72000  0.84400  Biso   1.000  H
  O49      1.0000 0.08570  0.93630  0.26590  Biso   1.000  O
  O50      1.0000 0.41430  0.06370  0.76590  Biso   1.000  O
  O51      1.0000 0.81370  0.33570  0.51590  Biso   1.000  O
  O52      1.0000 0.68630  0.66430  0.01590  Biso   1.000  O
  O53      1.0000 0.58570  0.43630  0.76590  Biso   1.000  O
  O54      1.0000 0.91430  0.56370  0.26590  Biso   1.000  O
  O55      1.0000 0.31370  0.83570  0.01590  Biso   1.000  O
  O56      1.0000 0.18630  0.16430  0.51590  Biso   1.000  O
  O57      1.0000 0.91430  0.06370  0.73410  Biso   1.000  O
  O58      1.0000 0.58570  0.93630  0.23410  Biso   1.000  O
  O59      1.0000 0.68630  0.16430  0.98410  Biso   1.000  O
  O60      1.0000 0.81370  0.83570  0.48410  Biso   1.000  O
  O61      1.0000 0.41430  0.56370  0.23410  Biso   1.000  O
  O62      1.0000 0.08570  0.43630  0.73410  Biso   1.000  O
  O63      1.0000 0.18630  0.66430  0.48410  Biso   1.000  O
  O64      1.0000 0.31370  0.33570  0.98410  Biso   1.000  O
  H177     1.0000 0.05790  0.96570  0.29170  Biso   1.000  H
  H178     1.0000 0.44210  0.03430  0.79170  Biso   1.000  H
  H179     1.0000 0.78430  0.30790  0.54170  Biso   1.000  H
  H180     1.0000 0.71570  0.69210  0.04170  Biso   1.000  H
  H181     1.0000 0.55790  0.46570  0.79170  Biso   1.000  H
  H182     1.0000 0.94210  0.53430  0.29170  Biso   1.000  H
  H183     1.0000 0.28430  0.80790  0.04170  Biso   1.000  H
  H184     1.0000 0.21570  0.19210  0.54170  Biso   1.000  H
  H185     1.0000 0.94210  0.03430  0.70830  Biso   1.000  H
  H186     1.0000 0.55790  0.96570  0.20830  Biso   1.000  H
  H187     1.0000 0.71570  0.19210  0.95830  Biso   1.000  H
  H188     1.0000 0.78430  0.80790  0.45830  Biso   1.000  H
  H189     1.0000 0.44210  0.53430  0.20830  Biso   1.000  H
  H190     1.0000 0.05790  0.46570  0.70830  Biso   1.000  H
  H191     1.0000 0.21570  0.69210  0.45830  Biso   1.000  H
  H192     1.0000 0.28430  0.30790  0.95830  Biso   1.000  H
  H193     1.0000 0.13110  0.94430  0.27750  Biso   1.000  H
  H194     1.0000 0.36890  0.05570  0.77750  Biso   1.000  H
  H195     1.0000 0.80570  0.38110  0.52750  Biso   1.000  H
  H196     1.0000 0.69430  0.61890  0.02750  Biso   1.000  H
  H197     1.0000 0.63110  0.44430  0.77750  Biso   1.000  H
  H198     1.0000 0.86890  0.55570  0.27750  Biso   1.000  H
  H199     1.0000 0.30570  0.88110  0.02750  Biso   1.000  H
  H200     1.0000 0.19430  0.11890  0.52750  Biso   1.000  H
  H201     1.0000 0.86890  0.05570  0.72250  Biso   1.000  H
  H202     1.0000 0.63110  0.94430  0.22250  Biso   1.000  H
  H203     1.0000 0.69430  0.11890  0.97250  Biso   1.000  H
  H204     1.0000 0.80570  0.88110  0.47250  Biso   1.000  H
  H205     1.0000 0.36890  0.55570  0.22250  Biso   1.000  H
  H206     1.0000 0.13110  0.44430  0.72250  Biso   1.000  H
  H207     1.0000 0.19430  0.61890  0.47250  Biso   1.000  H
  H208     1.0000 0.30570  0.38110  0.97250  Biso   1.000  H
  C209     1.0000 0.65300  0.29460  0.65400  Biso   1.000  C
  C210     1.0000 0.84700  0.70540  0.15400  Biso   1.000  C
  C211     1.0000 0.45540  0.90300  0.90400  Biso   1.000  C
  C212     1.0000 0.04460  0.09700  0.40400  Biso   1.000  C
  C213     1.0000 0.15300  0.79460  0.15400  Biso   1.000  C
  C214     1.0000 0.34700  0.20540  0.65400  Biso   1.000  C
  C215     1.0000 0.95540  0.40300  0.40400  Biso   1.000  C
  C216     1.0000 0.54460  0.59700  0.90400  Biso   1.000  C
  C217     1.0000 0.34700  0.70540  0.34600  Biso   1.000  C
  C218     1.0000 0.15300  0.29460  0.84600  Biso   1.000  C
  C219     1.0000 0.04460  0.59700  0.59600  Biso   1.000  C
  C220     1.0000 0.45540  0.40300  0.09600  Biso   1.000  C
  C221     1.0000 0.84700  0.20540  0.84600  Biso   1.000  C
  C222     1.0000 0.65300  0.79460  0.34600  Biso   1.000  C
  C223     1.0000 0.54460  0.09700  0.09600  Biso   1.000  C
  C224     1.0000 0.95540  0.90300  0.59600  Biso   1.000  C
  O65      1.0000 0.71850  0.28270  0.62930  Biso   1.000  O
  O66      1.0000 0.78150  0.71730  0.12930  Biso   1.000  O
  O67      1.0000 0.46730  0.96850  0.87930  Biso   1.000  O
  O68      1.0000 0.03270  0.03150  0.37930  Biso   1.000  O
  O69      1.0000 0.21850  0.78270  0.12930  Biso   1.000  O
  O70      1.0000 0.28150  0.21730  0.62930  Biso   1.000  O
  O71      1.0000 0.96730  0.46850  0.37930  Biso   1.000  O
  O72      1.0000 0.53270  0.53150  0.87930  Biso   1.000  O
  O73      1.0000 0.28150  0.71730  0.37070  Biso   1.000  O
  O74      1.0000 0.21850  0.28270  0.87070  Biso   1.000  O
  O75      1.0000 0.03270  0.53150  0.62070  Biso   1.000  O
  O76      1.0000 0.46730  0.46850  0.12070  Biso   1.000  O
  O77      1.0000 0.78150  0.21730  0.87070  Biso   1.000  O
  O78      1.0000 0.71850  0.78270  0.37070  Biso   1.000  O
  O79      1.0000 0.53270  0.03150  0.12070  Biso   1.000  O
  O80      1.0000 0.96730  0.96850  0.62070  Biso   1.000  O
  O81      1.0000 0.63130  0.28510  0.72310  Biso   1.000  O
  O82      1.0000 0.86870  0.71490  0.22310  Biso   1.000  O
  O83      1.0000 0.46490  0.88130  0.97310  Biso   1.000  O
  O84      1.0000 0.03510  0.11870  0.47310  Biso   1.000  O
  O85      1.0000 0.13130  0.78510  0.22310  Biso   1.000  O
  O86      1.0000 0.36870  0.21490  0.72310  Biso   1.000  O
  O87      1.0000 0.96490  0.38130  0.47310  Biso   1.000  O
  O88      1.0000 0.53510  0.61870  0.97310  Biso   1.000  O
  O89      1.0000 0.36870  0.71490  0.27690  Biso   1.000  O
  O90      1.0000 0.13130  0.28510  0.77690  Biso   1.000  O
  O91      1.0000 0.03510  0.61870  0.52690  Biso   1.000  O
  O92      1.0000 0.46490  0.38130  0.02690  Biso   1.000  O
  O93      1.0000 0.86870  0.21490  0.77690  Biso   1.000  O
  O94      1.0000 0.63130  0.78510  0.27690  Biso   1.000  O
  O95      1.0000 0.53510  0.11870  0.02690  Biso   1.000  O
  O96      1.0000 0.96490  0.88130  0.52690  Biso   1.000  O
