data_image0
_cell_length_a       13.649
_cell_length_b       13.649
_cell_length_c       8.092
_cell_angle_alpha    90
_cell_angle_beta     90
_cell_angle_gamma    90

_symmetry_space_group_name_H-M    "P 1"
_symmetry_int_tables_number       1

loop_
  _symmetry_equiv_pos_as_xyz
  'x, y, z'

loop_
  _atom_site_label
  _atom_site_occupancy
  _atom_site_fract_x
  _atom_site_fract_y
  _atom_site_fract_z
  _atom_site_thermal_displace_type
  _atom_site_B_iso_or_equiv
  _atom_site_type_symbol
  C1       1.0000 0.00000  0.30010  0.35430  Biso   1.000  C
  C2       1.0000 0.00000  0.69990  0.64570  Biso   1.000  C
  C3       1.0000 0.00000  0.69990  0.35430  Biso   1.000  C
  C4       1.0000 0.00000  0.30010  0.64570  Biso   1.000  C
  C5       1.0000 0.30010  0.00000  0.64570  Biso   1.000  C
  C6       1.0000 0.30010  0.00000  0.35430  Biso   1.000  C
  C7       1.0000 0.69990  0.00000  0.35430  Biso   1.000  C
  C8       1.0000 0.69990  0.00000  0.64570  Biso   1.000  C
  C9       1.0000 0.50000  0.80010  0.85430  Biso   1.000  C
  C10      1.0000 0.50000  0.19990  0.14570  Biso   1.000  C
  C11      1.0000 0.50000  0.19990  0.85430  Biso   1.000  C
  C12      1.0000 0.50000  0.80010  0.14570  Biso   1.000  C
  C13      1.0000 0.80010  0.50000  0.14570  Biso   1.000  C
  C14      1.0000 0.80010  0.50000  0.85430  Biso   1.000  C
  C15      1.0000 0.19990  0.50000  0.85430  Biso   1.000  C
  C16      1.0000 0.19990  0.50000  0.14570  Biso   1.000  C
  H1       1.0000 0.00000  0.33300  0.25080  Biso   1.000  H
  H2       1.0000 0.00000  0.66700  0.74920  Biso   1.000  H
  H3       1.0000 0.00000  0.66700  0.25080  Biso   1.000  H
  H4       1.0000 0.00000  0.33300  0.74920  Biso   1.000  H
  H5       1.0000 0.33300  0.00000  0.74920  Biso   1.000  H
  H6       1.0000 0.33300  0.00000  0.25080  Biso   1.000  H
  H7       1.0000 0.66700  0.00000  0.25080  Biso   1.000  H
  H8       1.0000 0.66700  0.00000  0.74920  Biso   1.000  H
  H9       1.0000 0.50000  0.83300  0.75080  Biso   1.000  H
  H10      1.0000 0.50000  0.16700  0.24920  Biso   1.000  H
  H11      1.0000 0.50000  0.16700  0.75080  Biso   1.000  H
  H12      1.0000 0.50000  0.83300  0.24920  Biso   1.000  H
  H13      1.0000 0.83300  0.50000  0.24920  Biso   1.000  H
  H14      1.0000 0.83300  0.50000  0.75080  Biso   1.000  H
  H15      1.0000 0.16700  0.50000  0.75080  Biso   1.000  H
  H16      1.0000 0.16700  0.50000  0.24920  Biso   1.000  H
  C17      1.0000 0.00000  0.19780  0.36240  Biso   1.000  C
  C18      1.0000 0.00000  0.80220  0.63760  Biso   1.000  C
  C19      1.0000 0.00000  0.80220  0.36240  Biso   1.000  C
  C20      1.0000 0.00000  0.19780  0.63760  Biso   1.000  C
  C21      1.0000 0.19780  0.00000  0.63760  Biso   1.000  C
  C22      1.0000 0.19780  0.00000  0.36240  Biso   1.000  C
  C23      1.0000 0.80220  0.00000  0.36240  Biso   1.000  C
  C24      1.0000 0.80220  0.00000  0.63760  Biso   1.000  C
  C25      1.0000 0.50000  0.69780  0.86240  Biso   1.000  C
  C26      1.0000 0.50000  0.30220  0.13760  Biso   1.000  C
  C27      1.0000 0.50000  0.30220  0.86240  Biso   1.000  C
  C28      1.0000 0.50000  0.69780  0.13760  Biso   1.000  C
  C29      1.0000 0.69780  0.50000  0.13760  Biso   1.000  C
  C30      1.0000 0.69780  0.50000  0.86240  Biso   1.000  C
  C31      1.0000 0.30220  0.50000  0.86240  Biso   1.000  C
  C32      1.0000 0.30220  0.50000  0.13760  Biso   1.000  C
  H17      1.0000 0.00000  0.16240  0.26130  Biso   1.000  H
  H18      1.0000 0.00000  0.83760  0.73870  Biso   1.000  H
  H19      1.0000 0.00000  0.83760  0.26130  Biso   1.000  H
  H20      1.0000 0.00000  0.16240  0.73870  Biso   1.000  H
  H21      1.0000 0.16240  0.00000  0.73870  Biso   1.000  H
  H22      1.0000 0.16240  0.00000  0.26130  Biso   1.000  H
  H23      1.0000 0.83760  0.00000  0.26130  Biso   1.000  H
  H24      1.0000 0.83760  0.00000  0.73870  Biso   1.000  H
  H25      1.0000 0.50000  0.66240  0.76130  Biso   1.000  H
  H26      1.0000 0.50000  0.33760  0.23870  Biso   1.000  H
  H27      1.0000 0.50000  0.33760  0.76130  Biso   1.000  H
  H28      1.0000 0.50000  0.66240  0.23870  Biso   1.000  H
  H29      1.0000 0.66240  0.50000  0.23870  Biso   1.000  H
  H30      1.0000 0.66240  0.50000  0.76130  Biso   1.000  H
  H31      1.0000 0.33760  0.50000  0.76130  Biso   1.000  H
  H32      1.0000 0.33760  0.50000  0.23870  Biso   1.000  H
  C33      1.0000 0.23220  0.23220  0.03800  Biso   1.000  C
  C34      1.0000 0.23220  0.76780  0.96200  Biso   1.000  C
  C35      1.0000 0.76780  0.76780  0.03800  Biso   1.000  C
  C36      1.0000 0.76780  0.23220  0.96200  Biso   1.000  C
  C37      1.0000 0.23220  0.23220  0.96200  Biso   1.000  C
  C38      1.0000 0.23220  0.76780  0.03800  Biso   1.000  C
  C39      1.0000 0.76780  0.23220  0.03800  Biso   1.000  C
  C40      1.0000 0.76780  0.76780  0.96200  Biso   1.000  C
  C41      1.0000 0.73220  0.73220  0.53800  Biso   1.000  C
  C42      1.0000 0.73220  0.26780  0.46200  Biso   1.000  C
  C43      1.0000 0.26780  0.26780  0.53800  Biso   1.000  C
  C44      1.0000 0.26780  0.73220  0.46200  Biso   1.000  C
  C45      1.0000 0.73220  0.73220  0.46200  Biso   1.000  C
  C46      1.0000 0.73220  0.26780  0.53800  Biso   1.000  C
  C47      1.0000 0.26780  0.73220  0.53800  Biso   1.000  C
  C48      1.0000 0.26780  0.26780  0.46200  Biso   1.000  C
  H33      1.0000 0.18780  0.23270  0.13290  Biso   1.000  H
  H34      1.0000 0.18780  0.76730  0.86710  Biso   1.000  H
  H35      1.0000 0.81220  0.76730  0.13290  Biso   1.000  H
  H36      1.0000 0.81220  0.23270  0.86710  Biso   1.000  H
  H37      1.0000 0.23270  0.18780  0.86710  Biso   1.000  H
  H38      1.0000 0.23270  0.81220  0.13290  Biso   1.000  H
  H39      1.0000 0.76730  0.18780  0.13290  Biso   1.000  H
  H40      1.0000 0.76730  0.81220  0.86710  Biso   1.000  H
  H41      1.0000 0.68780  0.73270  0.63290  Biso   1.000  H
  H42      1.0000 0.68780  0.26730  0.36710  Biso   1.000  H
  H43      1.0000 0.31220  0.26730  0.63290  Biso   1.000  H
  H44      1.0000 0.31220  0.73270  0.36710  Biso   1.000  H
  H45      1.0000 0.73270  0.68780  0.36710  Biso   1.000  H
  H46      1.0000 0.73270  0.31220  0.63290  Biso   1.000  H
  H47      1.0000 0.26730  0.68780  0.63290  Biso   1.000  H
  H48      1.0000 0.26730  0.31220  0.36710  Biso   1.000  H
  H49      1.0000 0.81220  0.76730  0.86710  Biso   1.000  H
  H50      1.0000 0.81220  0.23270  0.13290  Biso   1.000  H
  H51      1.0000 0.18780  0.23270  0.86710  Biso   1.000  H
  H52      1.0000 0.18780  0.76730  0.13290  Biso   1.000  H
  H53      1.0000 0.76730  0.81220  0.13290  Biso   1.000  H
  H54      1.0000 0.76730  0.18780  0.86710  Biso   1.000  H
  H55      1.0000 0.23270  0.81220  0.86710  Biso   1.000  H
  H56      1.0000 0.23270  0.18780  0.13290  Biso   1.000  H
  H57      1.0000 0.31220  0.26730  0.36710  Biso   1.000  H
  H58      1.0000 0.31220  0.73270  0.63290  Biso   1.000  H
  H59      1.0000 0.68780  0.73270  0.36710  Biso   1.000  H
  H60      1.0000 0.68780  0.26730  0.63290  Biso   1.000  H
  H61      1.0000 0.26730  0.31220  0.63290  Biso   1.000  H
  H62      1.0000 0.26730  0.68780  0.36710  Biso   1.000  H
  H63      1.0000 0.73270  0.31220  0.36710  Biso   1.000  H
  H64      1.0000 0.73270  0.68780  0.63290  Biso   1.000  H
  H65      1.0000 0.19970  0.26260  0.94270  Biso   1.000  H
  H66      1.0000 0.19970  0.73740  0.05730  Biso   1.000  H
  H67      1.0000 0.80030  0.73740  0.94270  Biso   1.000  H
  H68      1.0000 0.80030  0.26260  0.05730  Biso   1.000  H
  H69      1.0000 0.26260  0.19970  0.05730  Biso   1.000  H
  H70      1.0000 0.26260  0.80030  0.94270  Biso   1.000  H
  H71      1.0000 0.73740  0.19970  0.94270  Biso   1.000  H
  H72      1.0000 0.73740  0.80030  0.05730  Biso   1.000  H
  H73      1.0000 0.69970  0.76260  0.44270  Biso   1.000  H
  H74      1.0000 0.69970  0.23740  0.55730  Biso   1.000  H
  H75      1.0000 0.30030  0.23740  0.44270  Biso   1.000  H
  H76      1.0000 0.30030  0.76260  0.55730  Biso   1.000  H
  H77      1.0000 0.76260  0.69970  0.55730  Biso   1.000  H
  H78      1.0000 0.76260  0.30030  0.44270  Biso   1.000  H
  H79      1.0000 0.23740  0.69970  0.44270  Biso   1.000  H
  H80      1.0000 0.23740  0.30030  0.55730  Biso   1.000  H
  H81      1.0000 0.80030  0.73740  0.05730  Biso   1.000  H
  H82      1.0000 0.80030  0.26260  0.94270  Biso   1.000  H
  H83      1.0000 0.19970  0.26260  0.05730  Biso   1.000  H
  H84      1.0000 0.19970  0.73740  0.94270  Biso   1.000  H
  H85      1.0000 0.73740  0.80030  0.94270  Biso   1.000  H
  H86      1.0000 0.73740  0.19970  0.05730  Biso   1.000  H
  H87      1.0000 0.26260  0.80030  0.05730  Biso   1.000  H
  H88      1.0000 0.26260  0.19970  0.94270  Biso   1.000  H
  H89      1.0000 0.30030  0.23740  0.55730  Biso   1.000  H
  H90      1.0000 0.30030  0.76260  0.44270  Biso   1.000  H
  H91      1.0000 0.69970  0.76260  0.55730  Biso   1.000  H
  H92      1.0000 0.69970  0.23740  0.44270  Biso   1.000  H
  H93      1.0000 0.23740  0.30030  0.44270  Biso   1.000  H
  H94      1.0000 0.23740  0.69970  0.55730  Biso   1.000  H
  H95      1.0000 0.76260  0.30030  0.55730  Biso   1.000  H
  H96      1.0000 0.76260  0.69970  0.44270  Biso   1.000  H
  H97      1.0000 0.29170  0.26900  0.06480  Biso   1.000  H
  H98      1.0000 0.29170  0.73100  0.93520  Biso   1.000  H
  H99      1.0000 0.70830  0.73100  0.06480  Biso   1.000  H
  H100     1.0000 0.70830  0.26900  0.93520  Biso   1.000  H
  H101     1.0000 0.26900  0.29170  0.93520  Biso   1.000  H
  H102     1.0000 0.26900  0.70830  0.06480  Biso   1.000  H
  H103     1.0000 0.73100  0.29170  0.06480  Biso   1.000  H
  H104     1.0000 0.73100  0.70830  0.93520  Biso   1.000  H
  H105     1.0000 0.79170  0.76900  0.56480  Biso   1.000  H
  H106     1.0000 0.79170  0.23100  0.43520  Biso   1.000  H
  H107     1.0000 0.20830  0.23100  0.56480  Biso   1.000  H
  H108     1.0000 0.20830  0.76900  0.43520  Biso   1.000  H
  H109     1.0000 0.76900  0.79170  0.43520  Biso   1.000  H
  H110     1.0000 0.76900  0.20830  0.56480  Biso   1.000  H
  H111     1.0000 0.23100  0.79170  0.56480  Biso   1.000  H
  H112     1.0000 0.23100  0.20830  0.43520  Biso   1.000  H
  H113     1.0000 0.70830  0.73100  0.93520  Biso   1.000  H
  H114     1.0000 0.70830  0.26900  0.06480  Biso   1.000  H
  H115     1.0000 0.29170  0.26900  0.93520  Biso   1.000  H
  H116     1.0000 0.29170  0.73100  0.06480  Biso   1.000  H
  H117     1.0000 0.73100  0.70830  0.06480  Biso   1.000  H
  H118     1.0000 0.73100  0.29170  0.93520  Biso   1.000  H
  H119     1.0000 0.26900  0.70830  0.93520  Biso   1.000  H
  H120     1.0000 0.26900  0.29170  0.06480  Biso   1.000  H
  H121     1.0000 0.20830  0.23100  0.43520  Biso   1.000  H
  H122     1.0000 0.20830  0.76900  0.56480  Biso   1.000  H
  H123     1.0000 0.79170  0.76900  0.43520  Biso   1.000  H
  H124     1.0000 0.79170  0.23100  0.56480  Biso   1.000  H
  H125     1.0000 0.23100  0.20830  0.56480  Biso   1.000  H
  H126     1.0000 0.23100  0.79170  0.43520  Biso   1.000  H
  H127     1.0000 0.76900  0.20830  0.43520  Biso   1.000  H
  H128     1.0000 0.76900  0.79170  0.56480  Biso   1.000  H
  O1       1.0000 0.25630  0.13820  0.00000  Biso   1.000  O
  O2       1.0000 0.25630  0.86180  0.00000  Biso   1.000  O
  O3       1.0000 0.74370  0.86180  0.00000  Biso   1.000  O
  O4       1.0000 0.74370  0.13820  0.00000  Biso   1.000  O
  O5       1.0000 0.13820  0.25630  0.00000  Biso   1.000  O
  O6       1.0000 0.13820  0.74370  0.00000  Biso   1.000  O
  O7       1.0000 0.86180  0.25630  0.00000  Biso   1.000  O
  O8       1.0000 0.86180  0.74370  0.00000  Biso   1.000  O
  O9       1.0000 0.75630  0.63820  0.50000  Biso   1.000  O
  O10      1.0000 0.75630  0.36180  0.50000  Biso   1.000  O
  O11      1.0000 0.24370  0.36180  0.50000  Biso   1.000  O
  O12      1.0000 0.24370  0.63820  0.50000  Biso   1.000  O
  O13      1.0000 0.63820  0.75630  0.50000  Biso   1.000  O
  O14      1.0000 0.63820  0.24370  0.50000  Biso   1.000  O
  O15      1.0000 0.36180  0.75630  0.50000  Biso   1.000  O
  O16      1.0000 0.36180  0.24370  0.50000  Biso   1.000  O
  H129     1.0000 0.20490  0.10540  0.98530  Biso   1.000  H
  H130     1.0000 0.20490  0.89460  0.01470  Biso   1.000  H
  H131     1.0000 0.79510  0.89460  0.98530  Biso   1.000  H
  H132     1.0000 0.79510  0.10540  0.01470  Biso   1.000  H
  H133     1.0000 0.10540  0.20490  0.01470  Biso   1.000  H
  H134     1.0000 0.10540  0.79510  0.98530  Biso   1.000  H
  H135     1.0000 0.89460  0.20490  0.98530  Biso   1.000  H
  H136     1.0000 0.89460  0.79510  0.01470  Biso   1.000  H
  H137     1.0000 0.70490  0.60540  0.48530  Biso   1.000  H
  H138     1.0000 0.70490  0.39460  0.51470  Biso   1.000  H
  H139     1.0000 0.29510  0.39460  0.48530  Biso   1.000  H
  H140     1.0000 0.29510  0.60540  0.51470  Biso   1.000  H
  H141     1.0000 0.60540  0.70490  0.51470  Biso   1.000  H
  H142     1.0000 0.60540  0.29510  0.48530  Biso   1.000  H
  H143     1.0000 0.39460  0.70490  0.48530  Biso   1.000  H
  H144     1.0000 0.39460  0.29510  0.51470  Biso   1.000  H
  H145     1.0000 0.79510  0.89460  0.01470  Biso   1.000  H
  H146     1.0000 0.79510  0.10540  0.98530  Biso   1.000  H
  H147     1.0000 0.20490  0.10540  0.01470  Biso   1.000  H
  H148     1.0000 0.20490  0.89460  0.98530  Biso   1.000  H
  H149     1.0000 0.89460  0.79510  0.98530  Biso   1.000  H
  H150     1.0000 0.89460  0.20490  0.01470  Biso   1.000  H
  H151     1.0000 0.10540  0.79510  0.01470  Biso   1.000  H
  H152     1.0000 0.10540  0.20490  0.98530  Biso   1.000  H
  H153     1.0000 0.29510  0.39460  0.51470  Biso   1.000  H
  H154     1.0000 0.29510  0.60540  0.48530  Biso   1.000  H
  H155     1.0000 0.70490  0.60540  0.51470  Biso   1.000  H
  H156     1.0000 0.70490  0.39460  0.48530  Biso   1.000  H
  H157     1.0000 0.39460  0.29510  0.48530  Biso   1.000  H
  H158     1.0000 0.39460  0.70490  0.51470  Biso   1.000  H
  H159     1.0000 0.60540  0.29510  0.51470  Biso   1.000  H
  H160     1.0000 0.60540  0.70490  0.48530  Biso   1.000  H
  Cu1      1.0000 0.00000  0.00000  0.50000  Biso   1.000  Cu
  Cu2      1.0000 0.50000  0.50000  0.00000  Biso   1.000  Cu
  Si1      1.0000 0.00000  0.00000  0.00000  Biso   1.000  Si
  Si2      1.0000 0.50000  0.50000  0.50000  Biso   1.000  Si
  N1       1.0000 0.00000  0.14760  0.50000  Biso   1.000  N
  N2       1.0000 0.00000  0.85240  0.50000  Biso   1.000  N
  N3       1.0000 0.14760  0.00000  0.50000  Biso   1.000  N
  N4       1.0000 0.85240  0.00000  0.50000  Biso   1.000  N
  N5       1.0000 0.50000  0.64760  0.00000  Biso   1.000  N
  N6       1.0000 0.50000  0.35240  0.00000  Biso   1.000  N
  N7       1.0000 0.64760  0.50000  0.00000  Biso   1.000  N
  N8       1.0000 0.35240  0.50000  0.00000  Biso   1.000  N
  C49      1.0000 0.00000  0.45690  0.50000  Biso   1.000  C
  C50      1.0000 0.00000  0.54310  0.50000  Biso   1.000  C
  C51      1.0000 0.45690  0.00000  0.50000  Biso   1.000  C
  C52      1.0000 0.54310  0.00000  0.50000  Biso   1.000  C
  C53      1.0000 0.50000  0.95690  0.00000  Biso   1.000  C
  C54      1.0000 0.50000  0.04310  0.00000  Biso   1.000  C
  C55      1.0000 0.95690  0.50000  0.00000  Biso   1.000  C
  C56      1.0000 0.04310  0.50000  0.00000  Biso   1.000  C
  C57      1.0000 0.00000  0.35190  0.50000  Biso   1.000  C
  C58      1.0000 0.00000  0.64810  0.50000  Biso   1.000  C
  C59      1.0000 0.35190  0.00000  0.50000  Biso   1.000  C
  C60      1.0000 0.64810  0.00000  0.50000  Biso   1.000  C
  C61      1.0000 0.50000  0.85190  0.00000  Biso   1.000  C
  C62      1.0000 0.50000  0.14810  0.00000  Biso   1.000  C
  C63      1.0000 0.85190  0.50000  0.00000  Biso   1.000  C
  C64      1.0000 0.14810  0.50000  0.00000  Biso   1.000  C
  F1       1.0000 0.00000  0.00000  0.79080  Biso   1.000  F
  F2       1.0000 0.00000  0.00000  0.20920  Biso   1.000  F
  F3       1.0000 0.50000  0.50000  0.29080  Biso   1.000  F
  F4       1.0000 0.50000  0.50000  0.70920  Biso   1.000  F
  F5       1.0000 0.11980  0.02780  0.00000  Biso   1.000  F
  F6       1.0000 0.11980  0.97220  0.00000  Biso   1.000  F
  F7       1.0000 0.88020  0.97220  0.00000  Biso   1.000  F
  F8       1.0000 0.88020  0.02780  0.00000  Biso   1.000  F
  F9       1.0000 0.02780  0.11980  0.00000  Biso   1.000  F
  F10      1.0000 0.02780  0.88020  0.00000  Biso   1.000  F
  F11      1.0000 0.97220  0.11980  0.00000  Biso   1.000  F
  F12      1.0000 0.97220  0.88020  0.00000  Biso   1.000  F
  F13      1.0000 0.61980  0.52780  0.50000  Biso   1.000  F
  F14      1.0000 0.61980  0.47220  0.50000  Biso   1.000  F
  F15      1.0000 0.38020  0.47220  0.50000  Biso   1.000  F
  F16      1.0000 0.38020  0.52780  0.50000  Biso   1.000  F
  F17      1.0000 0.52780  0.61980  0.50000  Biso   1.000  F
  F18      1.0000 0.52780  0.38020  0.50000  Biso   1.000  F
  F19      1.0000 0.47220  0.61980  0.50000  Biso   1.000  F
  F20      1.0000 0.47220  0.38020  0.50000  Biso   1.000  F
  F21      1.0000 0.89670  0.93320  0.00000  Biso   1.000  F
  F22      1.0000 0.89670  0.06680  0.00000  Biso   1.000  F
  F23      1.0000 0.10330  0.06680  0.00000  Biso   1.000  F
  F24      1.0000 0.10330  0.93320  0.00000  Biso   1.000  F
  F25      1.0000 0.93320  0.89670  0.00000  Biso   1.000  F
  F26      1.0000 0.93320  0.10330  0.00000  Biso   1.000  F
  F27      1.0000 0.06680  0.89670  0.00000  Biso   1.000  F
  F28      1.0000 0.06680  0.10330  0.00000  Biso   1.000  F
  F29      1.0000 0.39670  0.43320  0.50000  Biso   1.000  F
  F30      1.0000 0.39670  0.56680  0.50000  Biso   1.000  F
  F31      1.0000 0.60330  0.56680  0.50000  Biso   1.000  F
  F32      1.0000 0.60330  0.43320  0.50000  Biso   1.000  F
  F33      1.0000 0.43320  0.39670  0.50000  Biso   1.000  F
  F34      1.0000 0.43320  0.60330  0.50000  Biso   1.000  F
  F35      1.0000 0.56680  0.39670  0.50000  Biso   1.000  F
  F36      1.0000 0.56680  0.60330  0.50000  Biso   1.000  F
