data_image0
_cell_length_a       13.6316
_cell_length_b       13.6316
_cell_length_c       7.968
_cell_angle_alpha    90
_cell_angle_beta     90
_cell_angle_gamma    90

_symmetry_space_group_name_H-M    "P 1"
_symmetry_int_tables_number       1

loop_
  _symmetry_equiv_pos_as_xyz
  'x, y, z'

loop_
  _atom_site_label
  _atom_site_occupancy
  _atom_site_fract_x
  _atom_site_fract_y
  _atom_site_fract_z
  _atom_site_thermal_displace_type
  _atom_site_B_iso_or_equiv
  _atom_site_type_symbol
  Cu1      1.0000 0.50000  0.50000  0.00000  Biso   1.000  Cu
  Si1      1.0000 0.50000  0.50000  0.50000  Biso   1.000  Si
  F1       1.0000 0.50000  0.50000  0.28870  Biso   1.000  F
  F2       1.0000 0.50000  0.50000  0.71130  Biso   1.000  F
  C1       1.0000 0.50000  0.14860  0.00000  Biso   1.000  C
  C2       1.0000 0.50000  0.85140  0.00000  Biso   1.000  C
  C3       1.0000 0.85140  0.50000  0.00000  Biso   1.000  C
  C4       1.0000 0.14860  0.50000  0.00000  Biso   1.000  C
  N1       1.0000 0.50000  0.35130  0.00000  Biso   1.000  N
  N2       1.0000 0.50000  0.64870  0.00000  Biso   1.000  N
  N3       1.0000 0.64870  0.50000  0.00000  Biso   1.000  N
  N4       1.0000 0.35130  0.50000  0.00000  Biso   1.000  N
  F3       1.0000 0.61990  0.47120  0.50000  Biso   1.000  F
  F4       1.0000 0.38010  0.52880  0.50000  Biso   1.000  F
  F5       1.0000 0.61990  0.52880  0.50000  Biso   1.000  F
  F6       1.0000 0.38010  0.47120  0.50000  Biso   1.000  F
  F7       1.0000 0.52880  0.38010  0.50000  Biso   1.000  F
  F8       1.0000 0.47120  0.61990  0.50000  Biso   1.000  F
  F9       1.0000 0.47120  0.38010  0.50000  Biso   1.000  F
  F10      1.0000 0.52880  0.61990  0.50000  Biso   1.000  F
  C5       1.0000 0.50000  0.04420  0.00000  Biso   1.000  C
  C6       1.0000 0.50000  0.95580  0.00000  Biso   1.000  C
  C7       1.0000 0.95580  0.50000  0.00000  Biso   1.000  C
  C8       1.0000 0.04420  0.50000  0.00000  Biso   1.000  C
  C9       1.0000 0.45750  0.30170  0.87690  Biso   1.000  C
  C10      1.0000 0.54250  0.69830  0.87690  Biso   1.000  C
  C11      1.0000 0.45750  0.69830  0.12310  Biso   1.000  C
  C12      1.0000 0.54250  0.30170  0.12310  Biso   1.000  C
  C13      1.0000 0.69830  0.54250  0.12310  Biso   1.000  C
  C14      1.0000 0.30170  0.45750  0.12310  Biso   1.000  C
  C15      1.0000 0.30170  0.54250  0.87690  Biso   1.000  C
  C16      1.0000 0.69830  0.45750  0.87690  Biso   1.000  C
  C17      1.0000 0.54250  0.69830  0.12310  Biso   1.000  C
  C18      1.0000 0.45750  0.30170  0.12310  Biso   1.000  C
  C19      1.0000 0.54250  0.30170  0.87690  Biso   1.000  C
  C20      1.0000 0.45750  0.69830  0.87690  Biso   1.000  C
  C21      1.0000 0.30170  0.45750  0.87690  Biso   1.000  C
  C22      1.0000 0.69830  0.54250  0.87690  Biso   1.000  C
  C23      1.0000 0.69830  0.45750  0.12310  Biso   1.000  C
  C24      1.0000 0.30170  0.54250  0.12310  Biso   1.000  C
  H1       1.0000 0.42710  0.33720  0.78840  Biso   1.000  H
  H2       1.0000 0.57290  0.66280  0.78840  Biso   1.000  H
  H3       1.0000 0.42710  0.66280  0.21160  Biso   1.000  H
  H4       1.0000 0.57290  0.33720  0.21160  Biso   1.000  H
  H5       1.0000 0.66280  0.57290  0.21160  Biso   1.000  H
  H6       1.0000 0.33720  0.42710  0.21160  Biso   1.000  H
  H7       1.0000 0.33720  0.57290  0.78840  Biso   1.000  H
  H8       1.0000 0.66280  0.42710  0.78840  Biso   1.000  H
  H9       1.0000 0.57290  0.66280  0.21160  Biso   1.000  H
  H10      1.0000 0.42710  0.33720  0.21160  Biso   1.000  H
  H11      1.0000 0.57290  0.33720  0.78840  Biso   1.000  H
  H12      1.0000 0.42710  0.66280  0.78840  Biso   1.000  H
  H13      1.0000 0.33720  0.42710  0.78840  Biso   1.000  H
  H14      1.0000 0.66280  0.57290  0.78840  Biso   1.000  H
  H15      1.0000 0.66280  0.42710  0.21160  Biso   1.000  H
  H16      1.0000 0.33720  0.57290  0.21160  Biso   1.000  H
  C25      1.0000 0.45580  0.20130  0.87240  Biso   1.000  C
  C26      1.0000 0.54420  0.79870  0.87240  Biso   1.000  C
  C27      1.0000 0.45580  0.79870  0.12760  Biso   1.000  C
  C28      1.0000 0.54420  0.20130  0.12760  Biso   1.000  C
  C29      1.0000 0.79870  0.54420  0.12760  Biso   1.000  C
  C30      1.0000 0.20130  0.45580  0.12760  Biso   1.000  C
  C31      1.0000 0.20130  0.54420  0.87240  Biso   1.000  C
  C32      1.0000 0.79870  0.45580  0.87240  Biso   1.000  C
  C33      1.0000 0.54420  0.79870  0.12760  Biso   1.000  C
  C34      1.0000 0.45580  0.20130  0.12760  Biso   1.000  C
  C35      1.0000 0.54420  0.20130  0.87240  Biso   1.000  C
  C36      1.0000 0.45580  0.79870  0.87240  Biso   1.000  C
  C37      1.0000 0.20130  0.45580  0.87240  Biso   1.000  C
  C38      1.0000 0.79870  0.54420  0.87240  Biso   1.000  C
  C39      1.0000 0.79870  0.45580  0.12760  Biso   1.000  C
  C40      1.0000 0.20130  0.54420  0.12760  Biso   1.000  C
  H17      1.0000 0.42440  0.16810  0.78240  Biso   1.000  H
  H18      1.0000 0.57560  0.83190  0.78240  Biso   1.000  H
  H19      1.0000 0.42440  0.83190  0.21760  Biso   1.000  H
  H20      1.0000 0.57560  0.16810  0.21760  Biso   1.000  H
  H21      1.0000 0.83190  0.57560  0.21760  Biso   1.000  H
  H22      1.0000 0.16810  0.42440  0.21760  Biso   1.000  H
  H23      1.0000 0.16810  0.57560  0.78240  Biso   1.000  H
  H24      1.0000 0.83190  0.42440  0.78240  Biso   1.000  H
  H25      1.0000 0.57560  0.83190  0.21760  Biso   1.000  H
  H26      1.0000 0.42440  0.16810  0.21760  Biso   1.000  H
  H27      1.0000 0.57560  0.16810  0.78240  Biso   1.000  H
  H28      1.0000 0.42440  0.83190  0.78240  Biso   1.000  H
  H29      1.0000 0.16810  0.42440  0.78240  Biso   1.000  H
  H30      1.0000 0.83190  0.57560  0.78240  Biso   1.000  H
  H31      1.0000 0.83190  0.42440  0.21760  Biso   1.000  H
  H32      1.0000 0.16810  0.57560  0.21760  Biso   1.000  H
  F11      1.0000 0.39650  0.43230  0.50000  Biso   1.000  F
  F12      1.0000 0.60350  0.56770  0.50000  Biso   1.000  F
  F13      1.0000 0.39650  0.56770  0.50000  Biso   1.000  F
  F14      1.0000 0.60350  0.43230  0.50000  Biso   1.000  F
  F15      1.0000 0.56770  0.60350  0.50000  Biso   1.000  F
  F16      1.0000 0.43230  0.39650  0.50000  Biso   1.000  F
  F17      1.0000 0.43230  0.60350  0.50000  Biso   1.000  F
  F18      1.0000 0.56770  0.39650  0.50000  Biso   1.000  F
