data_image0
_cell_length_a       8.6873
_cell_length_b       11.049
_cell_length_c       11.3581
_cell_angle_alpha    91.465
_cell_angle_beta     94.945
_cell_angle_gamma    108.08

_symmetry_space_group_name_H-M    "P 1"
_symmetry_int_tables_number       1

loop_
  _symmetry_equiv_pos_as_xyz
  'x, y, z'

loop_
  _atom_site_label
  _atom_site_occupancy
  _atom_site_fract_x
  _atom_site_fract_y
  _atom_site_fract_z
  _atom_site_thermal_displace_type
  _atom_site_B_iso_or_equiv
  _atom_site_type_symbol
  Cu1      1.0000 0.50000  0.00000  0.50000  Biso   1.000  Cu
  C1       1.0000 0.29830  0.77610  0.34550  Biso   1.000  C
  C2       1.0000 0.70170  0.22390  0.65450  Biso   1.000  C
  H1       1.0000 0.23080  0.82250  0.31820  Biso   1.000  H
  H2       1.0000 0.76920  0.17750  0.68180  Biso   1.000  H
  C3       1.0000 0.40400  0.62230  0.36560  Biso   1.000  C
  C4       1.0000 0.59600  0.37770  0.63440  Biso   1.000  C
  H3       1.0000 0.42510  0.54520  0.35650  Biso   1.000  H
  H4       1.0000 0.57490  0.45480  0.64350  Biso   1.000  H
  C5       1.0000 0.48750  0.72250  0.44100  Biso   1.000  C
  C6       1.0000 0.51250  0.27750  0.55900  Biso   1.000  C
  H5       1.0000 0.57670  0.72530  0.49370  Biso   1.000  H
  H6       1.0000 0.42330  0.27470  0.50630  Biso   1.000  H
  C7       1.0000 0.16810  0.58300  0.20890  Biso   1.000  C
  C8       1.0000 0.83190  0.41700  0.79110  Biso   1.000  C
  H7       1.0000 0.08300  0.62170  0.19230  Biso   1.000  H
  H8       1.0000 0.91700  0.37830  0.80770  Biso   1.000  H
  H9       1.0000 0.11760  0.49750  0.23360  Biso   1.000  H
  H10      1.0000 0.88240  0.50250  0.76640  Biso   1.000  H
  C9       1.0000 0.24730  0.57470  0.09730  Biso   1.000  C
  C10      1.0000 0.75270  0.42530  0.90270  Biso   1.000  C
  C11      1.0000 0.19290  0.46430  0.02510  Biso   1.000  C
  C12      1.0000 0.80710  0.53570  0.97490  Biso   1.000  C
  H11      1.0000 0.11000  0.39490  0.04670  Biso   1.000  H
  H12      1.0000 0.89000  0.60510  0.95330  Biso   1.000  H
  C13      1.0000 0.26180  0.45670  0.92080  Biso   1.000  C
  C14      1.0000 0.73820  0.54330  0.07920  Biso   1.000  C
  H13      1.0000 0.22440  0.38240  0.87230  Biso   1.000  H
  H14      1.0000 0.77560  0.61760  0.12770  Biso   1.000  H
  C15      1.0000 0.38450  0.55830  0.88890  Biso   1.000  C
  C16      1.0000 0.61550  0.44170  0.11110  Biso   1.000  C
  H15      1.0000 0.43010  0.55220  0.81870  Biso   1.000  H
  H16      1.0000 0.56990  0.44780  0.18130  Biso   1.000  H
  C17      1.0000 0.44140  0.66940  0.95960  Biso   1.000  C
  C18      1.0000 0.55860  0.33060  0.04040  Biso   1.000  C
  C19      1.0000 0.37250  0.67750  0.06350  Biso   1.000  C
  C20      1.0000 0.62750  0.32250  0.93650  Biso   1.000  C
  H17      1.0000 0.41000  0.75230  0.11150  Biso   1.000  H
  H18      1.0000 0.59000  0.24770  0.88850  Biso   1.000  H
  C21      1.0000 0.57630  0.78150  0.92370  Biso   1.000  C
  C22      1.0000 0.42370  0.21850  0.07630  Biso   1.000  C
  H19      1.0000 0.62670  0.83770  0.99280  Biso   1.000  H
  H20      1.0000 0.37330  0.16230  0.00720  Biso   1.000  H
  H21      1.0000 0.65870  0.75110  0.89220  Biso   1.000  H
  H22      1.0000 0.34130  0.24890  0.10780  Biso   1.000  H
  C23      1.0000 0.55930  0.87150  0.72410  Biso   1.000  C
  C24      1.0000 0.44070  0.12850  0.27590  Biso   1.000  C
  H23      1.0000 0.63630  0.84050  0.69320  Biso   1.000  H
  H24      1.0000 0.36370  0.15950  0.30680  Biso   1.000  H
  C25      1.0000 0.38110  0.96610  0.74250  Biso   1.000  C
  C26      1.0000 0.61890  0.03390  0.25750  Biso   1.000  C
  H25      1.0000 0.31110  0.01370  0.72590  Biso   1.000  H
  H26      1.0000 0.68890  0.98630  0.27410  Biso   1.000  H
  C27      1.0000 0.40090  0.91280  0.84660  Biso   1.000  C
  C28      1.0000 0.59910  0.08720  0.15340  Biso   1.000  C
  H27      1.0000 0.34730  0.91620  0.91340  Biso   1.000  H
  H28      1.0000 0.65270  0.08380  0.08660  Biso   1.000  H
  N1       1.0000 0.42090  0.81900  0.42820  Biso   1.000  N
  N2       1.0000 0.57910  0.18100  0.57180  Biso   1.000  N
  N3       1.0000 0.28290  0.65720  0.30560  Biso   1.000  N
  N4       1.0000 0.71710  0.34280  0.69440  Biso   1.000  N
  N5       1.0000 0.51480  0.85340  0.83380  Biso   1.000  N
  N6       1.0000 0.48520  0.14660  0.16620  Biso   1.000  N
  N7       1.0000 0.48040  0.93880  0.66560  Biso   1.000  N
  N8       1.0000 0.51960  0.06120  0.33440  Biso   1.000  N
  O1       1.0000 0.78260  0.99740  0.52170  Biso   1.000  O
  O2       1.0000 0.21740  0.00260  0.47830  Biso   1.000  O
  H29      1.0000 0.82380  0.93700  0.52650  Biso   1.000  H
  H30      1.0000 0.17620  0.06300  0.47350  Biso   1.000  H
  H31      1.0000 0.85390  0.06470  0.50360  Biso   1.000  H
  H32      1.0000 0.14610  0.93530  0.49640  Biso   1.000  H
  F1       1.0000 0.27140  0.46275  0.60673  Biso   1.000  F
  F2       1.0000 0.72860  0.53725  0.39327  Biso   1.000  F
  F3       1.0000 0.18370  0.66311  0.67746  Biso   1.000  F
  F4       1.0000 0.81630  0.33689  0.32254  Biso   1.000  F
  C29      1.0000 0.09880  0.28240  0.42210  Biso   1.000  C
  C30      1.0000 0.90120  0.71760  0.57790  Biso   1.000  C
  C31      1.0000 0.04530  0.39410  0.46310  Biso   1.000  C
  C32      1.0000 0.95470  0.60590  0.53690  Biso   1.000  C
  C33      1.0000 0.13510  0.48020  0.55350  Biso   1.000  C
  C34      1.0000 0.86490  0.51980  0.44650  Biso   1.000  C
  C35      1.0000 0.09080  0.58340  0.58880  Biso   1.000  C
  C36      1.0000 0.90920  0.41660  0.41120  Biso   1.000  C
  O3       1.0000 0.16510  0.29260  0.33050  Biso   1.000  O
  O4       1.0000 0.83490  0.70740  0.66950  Biso   1.000  O
  O5       1.0000 0.07490  0.19200  0.48920  Biso   1.000  O
  O6       1.0000 0.92510  0.80800  0.51080  Biso   1.000  O
  O7       1.0000 0.02510  0.07990  0.16550  Biso   1.000  O
  O8       1.0000 0.97490  0.92010  0.83450  Biso   1.000  O
  H33      1.0000 0.03800  0.14100  0.20200  Biso   1.000  H
  H34      1.0000 0.96200  0.85900  0.79800  Biso   1.000  H
  H35      1.0000 0.98400  0.12300  0.13400  Biso   1.000  H
  H36      1.0000 0.01600  0.87700  0.86600  Biso   1.000  H
  O9       1.0000 0.12840  0.88690  0.05960  Biso   1.000  O
  O10      1.0000 0.87160  0.11310  0.94040  Biso   1.000  O
  H37      1.0000 0.09100  0.94000  0.06800  Biso   1.000  H
  H38      1.0000 0.90900  0.06000  0.93200  Biso   1.000  H
  H39      1.0000 0.05900  0.86900  0.10000  Biso   1.000  H
  H40      1.0000 0.94100  0.13100  0.90000  Biso   1.000  H
  O11      1.0000 0.09300  0.17660  0.74490  Biso   1.000  O
  O12      1.0000 0.90700  0.82340  0.25510  Biso   1.000  O
  H41      1.0000 0.06100  0.13000  0.68100  Biso   1.000  H
  H42      1.0000 0.93900  0.87000  0.31900  Biso   1.000  H
  H43      1.0000 0.05100  0.08200  0.75500  Biso   1.000  H
  H44      1.0000 0.94900  0.91800  0.24500  Biso   1.000  H
