data_image0
_cell_length_a       7.0597
_cell_length_b       7.4506
_cell_length_c       7.612
_cell_angle_alpha    85.291
_cell_angle_beta     78.141
_cell_angle_gamma    81.338

_symmetry_space_group_name_H-M    "P 1"
_symmetry_int_tables_number       1

loop_
  _symmetry_equiv_pos_as_xyz
  'x, y, z'

loop_
  _atom_site_label
  _atom_site_occupancy
  _atom_site_fract_x
  _atom_site_fract_y
  _atom_site_fract_z
  _atom_site_thermal_displace_type
  _atom_site_B_iso_or_equiv
  _atom_site_type_symbol
  Cu1      1.0000 0.00000  0.00000  0.50000  Biso   1.000  Cu
  C1       1.0000 0.99810  0.80440  0.85300  Biso   1.000  C
  C2       1.0000 0.00190  0.19560  0.14700  Biso   1.000  C
  H1       1.0000 0.87150  0.77960  0.85930  Biso   1.000  H
  H2       1.0000 0.12850  0.22040  0.14070  Biso   1.000  H
  C3       1.0000 0.27540  0.82160  0.92760  Biso   1.000  C
  C4       1.0000 0.72460  0.17840  0.07240  Biso   1.000  C
  H3       1.0000 0.37540  0.81200  0.99190  Biso   1.000  H
  H4       1.0000 0.62460  0.18800  0.00810  Biso   1.000  H
  C5       1.0000 0.27740  0.89700  0.75990  Biso   1.000  C
  C6       1.0000 0.72260  0.10300  0.24010  Biso   1.000  C
  H5       1.0000 0.38100  0.94820  0.68810  Biso   1.000  H
  H6       1.0000 0.61900  0.05180  0.31190  Biso   1.000  H
  C7       1.0000 0.17770  0.28290  0.53790  Biso   1.000  C
  C8       1.0000 0.82230  0.71710  0.46210  Biso   1.000  C
  C9       1.0000 0.34180  0.39810  0.51740  Biso   1.000  C
  C10      1.0000 0.65820  0.60190  0.48260  Biso   1.000  C
  C11      1.0000 0.42230  0.47910  0.35280  Biso   1.000  C
  C12      1.0000 0.57770  0.52090  0.64720  Biso   1.000  C
  C13      1.0000 0.57590  0.57720  0.33770  Biso   1.000  C
  C14      1.0000 0.42410  0.42280  0.66230  Biso   1.000  C
  N1       1.0000 0.10220  0.88620  0.71220  Biso   1.000  N
  N2       1.0000 0.89780  0.11380  0.28780  Biso   1.000  N
  N3       1.0000 0.09910  0.76260  0.98410  Biso   1.000  N
  N4       1.0000 0.90090  0.23740  0.01590  Biso   1.000  N
  H7       1.0000 0.05890  0.70820  0.08600  Biso   1.000  H
  H8       1.0000 0.94110  0.29180  0.91400  Biso   1.000  H
  O1       1.0000 0.21780  0.14740  0.43880  Biso   1.000  O
  O2       1.0000 0.78220  0.85260  0.56120  Biso   1.000  O
  O3       1.0000 0.02540  0.32270  0.64660  Biso   1.000  O
  O4       1.0000 0.97460  0.67730  0.35340  Biso   1.000  O
  F1       1.0000 0.35100  0.46150  0.20550  Biso   1.000  F
  F2       1.0000 0.64900  0.53850  0.79450  Biso   1.000  F
  F3       1.0000 0.64570  0.65540  0.17390  Biso   1.000  F
  F4       1.0000 0.35430  0.34460  0.82610  Biso   1.000  F
