data_image0
_cell_length_a       11.085
_cell_length_b       16.039
_cell_length_c       17.426
_cell_angle_alpha    94.13
_cell_angle_beta     106.592
_cell_angle_gamma    98.85

_symmetry_space_group_name_H-M    "P 1"
_symmetry_int_tables_number       1

loop_
  _symmetry_equiv_pos_as_xyz
  'x, y, z'

loop_
  _atom_site_label
  _atom_site_occupancy
  _atom_site_fract_x
  _atom_site_fract_y
  _atom_site_fract_z
  _atom_site_thermal_displace_type
  _atom_site_B_iso_or_equiv
  _atom_site_type_symbol
  Cu1      1.0000 0.51664  0.27202  0.01924  Biso   1.000  Cu
  Cu2      1.0000 0.48336  0.72798  0.98076  Biso   1.000  Cu
  N1       1.0000 0.41010  0.33770  0.93600  Biso   1.000  N
  N2       1.0000 0.58990  0.66230  0.06400  Biso   1.000  N
  C1       1.0000 0.28660  0.32020  0.89440  Biso   1.000  C
  C2       1.0000 0.71340  0.67980  0.10560  Biso   1.000  C
  H1       1.0000 0.23620  0.27120  0.90170  Biso   1.000  H
  H2       1.0000 0.76380  0.72880  0.09830  Biso   1.000  H
  C3       1.0000 0.22970  0.37340  0.83960  Biso   1.000  C
  C4       1.0000 0.77030  0.62660  0.16040  Biso   1.000  C
  H3       1.0000 0.14260  0.36020  0.81200  Biso   1.000  H
  H4       1.0000 0.85740  0.63980  0.18800  Biso   1.000  H
  C5       1.0000 0.30220  0.44380  0.82760  Biso   1.000  C
  C6       1.0000 0.69780  0.55620  0.17240  Biso   1.000  C
  H5       1.0000 0.26490  0.47920  0.79150  Biso   1.000  H
  H6       1.0000 0.73510  0.52080  0.20850  Biso   1.000  H
  C7       1.0000 0.43430  0.46390  0.86930  Biso   1.000  C
  C8       1.0000 0.56570  0.53610  0.13070  Biso   1.000  C
  C9       1.0000 0.52110  0.53520  0.85990  Biso   1.000  C
  C10      1.0000 0.47890  0.46480  0.14010  Biso   1.000  C
  H7       1.0000 0.49060  0.57230  0.82340  Biso   1.000  H
  H8       1.0000 0.50940  0.42770  0.17660  Biso   1.000  H
  C11      1.0000 0.64420  0.54990  0.90170  Biso   1.000  C
  C12      1.0000 0.35580  0.45010  0.09830  Biso   1.000  C
  H9       1.0000 0.69740  0.59750  0.89460  Biso   1.000  H
  H10      1.0000 0.30260  0.40250  0.10540  Biso   1.000  H
  C13      1.0000 0.69780  0.49430  0.95780  Biso   1.000  C
  C14      1.0000 0.30220  0.50570  0.04220  Biso   1.000  C
  C15      1.0000 0.82630  0.50510  0.00430  Biso   1.000  C
  C16      1.0000 0.17370  0.49490  0.99570  Biso   1.000  C
  H11      1.0000 0.88490  0.55130  0.00010  Biso   1.000  H
  H12      1.0000 0.11510  0.44870  0.99990  Biso   1.000  H
  C17      1.0000 0.86590  0.44740  0.05600  Biso   1.000  C
  C18      1.0000 0.13410  0.55260  0.94400  Biso   1.000  C
  H13      1.0000 0.95140  0.45400  0.08640  Biso   1.000  H
  H14      1.0000 0.04860  0.54600  0.91360  Biso   1.000  H
  C19      1.0000 0.77790  0.37920  0.06260  Biso   1.000  C
  C20      1.0000 0.22210  0.62080  0.93740  Biso   1.000  C
  H15      1.0000 0.80580  0.34050  0.09790  Biso   1.000  H
  H16      1.0000 0.19420  0.65950  0.90210  Biso   1.000  H
  N3       1.0000 0.65480  0.36720  0.02010  Biso   1.000  N
  N4       1.0000 0.34520  0.63280  0.97990  Biso   1.000  N
  C21      1.0000 0.48310  0.40770  0.92320  Biso   1.000  C
  C22      1.0000 0.51690  0.59230  0.07680  Biso   1.000  C
  C23      1.0000 0.61550  0.42410  0.96800  Biso   1.000  C
  C24      1.0000 0.38450  0.57590  0.03200  Biso   1.000  C
  C25      1.0000 0.27330  0.18450  0.04160  Biso   1.000  C
  C26      1.0000 0.72670  0.81550  0.95840  Biso   1.000  C
  H17      1.0000 0.27340  0.23500  0.07140  Biso   1.000  H
  H18      1.0000 0.72660  0.76500  0.92860  Biso   1.000  H
  N5       1.0000 0.36900  0.17940  0.00960  Biso   1.000  N
  N6       1.0000 0.63100  0.82060  0.99040  Biso   1.000  N
  C27      1.0000 0.17450  0.11650  0.03130  Biso   1.000  C
  C28      1.0000 0.82550  0.88350  0.96870  Biso   1.000  C
  H19      1.0000 0.10880  0.12160  0.05370  Biso   1.000  H
  H20      1.0000 0.89120  0.87840  0.94630  Biso   1.000  H
  C29      1.0000 0.17350  0.04210  0.98830  Biso   1.000  C
  C30      1.0000 0.82650  0.95790  0.01170  Biso   1.000  C
  H21      1.0000 0.10760  0.99620  0.98200  Biso   1.000  H
  H22      1.0000 0.89240  0.00380  0.01800  Biso   1.000  H
  C31      1.0000 0.27110  0.03400  0.95360  Biso   1.000  C
  C32      1.0000 0.72890  0.96600  0.04640  Biso   1.000  C
  C33      1.0000 0.28150  0.95860  0.91000  Biso   1.000  C
  C34      1.0000 0.71850  0.04140  0.09000  Biso   1.000  C
  H23      1.0000 0.21820  0.91070  0.90160  Biso   1.000  H
  H24      1.0000 0.78180  0.08930  0.09840  Biso   1.000  H
  C35      1.0000 0.37880  0.95450  0.88080  Biso   1.000  C
  C36      1.0000 0.62120  0.04550  0.11920  Biso   1.000  C
  H25      1.0000 0.38190  0.90370  0.85270  Biso   1.000  H
  H26      1.0000 0.61810  0.09630  0.14730  Biso   1.000  H
  C37      1.0000 0.47990  0.02650  0.89120  Biso   1.000  C
  C38      1.0000 0.52010  0.97350  0.10880  Biso   1.000  C
  C39      1.0000 0.58580  0.02630  0.86340  Biso   1.000  C
  C40      1.0000 0.41420  0.97370  0.13660  Biso   1.000  C
  H27      1.0000 0.59440  0.97720  0.83510  Biso   1.000  H
  H28      1.0000 0.40560  0.02280  0.16490  Biso   1.000  H
  C41      1.0000 0.67630  0.09750  0.87730  Biso   1.000  C
  C42      1.0000 0.32370  0.90250  0.12270  Biso   1.000  C
  H29      1.0000 0.74690  0.09760  0.85860  Biso   1.000  H
  H30      1.0000 0.25310  0.90240  0.14140  Biso   1.000  H
  C43      1.0000 0.66260  0.17050  0.92010  Biso   1.000  C
  C44      1.0000 0.33740  0.82950  0.07990  Biso   1.000  C
  H31      1.0000 0.72510  0.21910  0.92940  Biso   1.000  H
  H32      1.0000 0.27490  0.78090  0.07060  Biso   1.000  H
  N7       1.0000 0.56460  0.17320  0.94780  Biso   1.000  N
  N8       1.0000 0.43540  0.82680  0.05220  Biso   1.000  N
  C45      1.0000 0.47390  0.10240  0.93350  Biso   1.000  C
  C46      1.0000 0.52610  0.89760  0.06650  Biso   1.000  C
  C47      1.0000 0.36880  0.10580  0.96620  Biso   1.000  C
  C48      1.0000 0.63120  0.89420  0.03380  Biso   1.000  C
  Cu3      1.0000 0.44916  0.22458  0.47813  Biso   1.000  Cu
  Cu4      1.0000 0.55084  0.77542  0.52187  Biso   1.000  Cu
  N9       1.0000 0.55310  0.16080  0.56450  Biso   1.000  N
  N10      1.0000 0.44690  0.83920  0.43550  Biso   1.000  N
  C49      1.0000 0.67200  0.18250  0.61210  Biso   1.000  C
  C50      1.0000 0.32800  0.81750  0.38790  Biso   1.000  C
  H33      1.0000 0.71980  0.23480  0.60980  Biso   1.000  H
  H34      1.0000 0.28020  0.76520  0.39020  Biso   1.000  H
  C51      1.0000 0.72850  0.12820  0.66630  Biso   1.000  C
  C52      1.0000 0.27150  0.87180  0.33370  Biso   1.000  C
  H35      1.0000 0.81330  0.14410  0.69810  Biso   1.000  H
  H36      1.0000 0.18670  0.85590  0.30190  Biso   1.000  H
  C53      1.0000 0.65920  0.05310  0.67210  Biso   1.000  C
  C54      1.0000 0.34080  0.94690  0.32790  Biso   1.000  C
  H37      1.0000 0.69600  0.01730  0.70790  Biso   1.000  H
  H38      1.0000 0.30400  0.98270  0.29210  Biso   1.000  H
  C55      1.0000 0.53210  0.02970  0.62380  Biso   1.000  C
  C56      1.0000 0.46790  0.97030  0.37620  Biso   1.000  C
  C57      1.0000 0.45010  0.95280  0.62680  Biso   1.000  C
  C58      1.0000 0.54990  0.04720  0.37320  Biso   1.000  C
  H39      1.0000 0.48160  0.91490  0.66200  Biso   1.000  H
  H40      1.0000 0.51840  0.08510  0.33800  Biso   1.000  H
  C59      1.0000 0.32910  0.93490  0.57970  Biso   1.000  C
  C60      1.0000 0.67090  0.06510  0.42030  Biso   1.000  C
  H41      1.0000 0.27780  0.88470  0.58350  Biso   1.000  H
  H42      1.0000 0.72220  0.11530  0.41650  Biso   1.000  H
  C61      1.0000 0.27430  0.99060  0.52290  Biso   1.000  C
  C62      1.0000 0.72570  0.00940  0.47710  Biso   1.000  C
  C63      1.0000 0.15020  0.97560  0.47090  Biso   1.000  C
  C64      1.0000 0.84980  0.02440  0.52910  Biso   1.000  C
  H43      1.0000 0.09370  0.92650  0.47120  Biso   1.000  H
  H44      1.0000 0.90630  0.07350  0.52880  Biso   1.000  H
  C65      1.0000 0.11090  0.03320  0.41920  Biso   1.000  C
  C66      1.0000 0.88910  0.96680  0.58080  Biso   1.000  C
  H45      1.0000 0.02770  0.02400  0.38460  Biso   1.000  H
  H46      1.0000 0.97230  0.97600  0.61540  Biso   1.000  H
  C67      1.0000 0.19760  0.10560  0.41940  Biso   1.000  C
  C68      1.0000 0.80240  0.89440  0.58060  Biso   1.000  C
  H47      1.0000 0.17080  0.14370  0.38320  Biso   1.000  H
  H48      1.0000 0.82920  0.85630  0.61680  Biso   1.000  H
  N11      1.0000 0.31510  0.12310  0.46780  Biso   1.000  N
  N12      1.0000 0.68490  0.87690  0.53220  Biso   1.000  N
  C69      1.0000 0.35500  0.06610  0.51970  Biso   1.000  C
  C70      1.0000 0.64500  0.93390  0.48030  Biso   1.000  C
  C71      1.0000 0.48340  0.08610  0.57070  Biso   1.000  C
  C72      1.0000 0.51660  0.91390  0.42930  Biso   1.000  C
  C73      1.0000 0.28000  0.31680  0.56800  Biso   1.000  C
  C74      1.0000 0.72000  0.68320  0.43200  Biso   1.000  C
  H49      1.0000 0.21680  0.26820  0.55210  Biso   1.000  H
  H50      1.0000 0.78320  0.73180  0.44790  Biso   1.000  H
  N13      1.0000 0.38510  0.31770  0.54710  Biso   1.000  N
  N14      1.0000 0.61490  0.68230  0.45290  Biso   1.000  N
  C75      1.0000 0.25910  0.38600  0.61310  Biso   1.000  C
  C76      1.0000 0.74090  0.61400  0.38690  Biso   1.000  C
  H51      1.0000 0.18360  0.38280  0.62690  Biso   1.000  H
  H52      1.0000 0.81640  0.61720  0.37310  Biso   1.000  H
  C77      1.0000 0.34820  0.45690  0.63600  Biso   1.000  C
  C78      1.0000 0.65180  0.54310  0.36400  Biso   1.000  C
  H53      1.0000 0.33400  0.50340  0.66510  Biso   1.000  H
  H54      1.0000 0.66600  0.49660  0.33490  Biso   1.000  H
  C79      1.0000 0.46250  0.46110  0.61650  Biso   1.000  C
  C80      1.0000 0.53750  0.53890  0.38350  Biso   1.000  C
  C81      1.0000 0.56440  0.53370  0.63760  Biso   1.000  C
  C82      1.0000 0.43560  0.46630  0.36240  Biso   1.000  C
  H55      1.0000 0.55730  0.58120  0.66860  Biso   1.000  H
  H56      1.0000 0.44270  0.41880  0.33140  Biso   1.000  H
  C83      1.0000 0.67020  0.53510  0.61380  Biso   1.000  C
  C84      1.0000 0.32980  0.46490  0.38620  Biso   1.000  C
  H57      1.0000 0.73480  0.58300  0.62930  Biso   1.000  H
  H58      1.0000 0.26520  0.41700  0.37070  Biso   1.000  H
  C85      1.0000 0.68420  0.46420  0.56520  Biso   1.000  C
  C86      1.0000 0.31580  0.53580  0.43480  Biso   1.000  C
  C87      1.0000 0.78990  0.46300  0.53540  Biso   1.000  C
  C88      1.0000 0.21010  0.53700  0.46460  Biso   1.000  C
  H59      1.0000 0.85690  0.50930  0.54900  Biso   1.000  H
  H60      1.0000 0.14310  0.49070  0.45100  Biso   1.000  H
  C89      1.0000 0.79280  0.39420  0.48730  Biso   1.000  C
  C90      1.0000 0.20720  0.60580  0.51270  Biso   1.000  C
  H61      1.0000 0.86150  0.39350  0.46680  Biso   1.000  H
  H62      1.0000 0.13850  0.60650  0.53320  Biso   1.000  H
  C91      1.0000 0.69290  0.32380  0.46800  Biso   1.000  C
  C92      1.0000 0.30710  0.67620  0.53200  Biso   1.000  C
  H63      1.0000 0.69670  0.27680  0.43470  Biso   1.000  H
  H64      1.0000 0.30330  0.72320  0.56530  Biso   1.000  H
  N15      1.0000 0.59230  0.32240  0.49610  Biso   1.000  N
  N16      1.0000 0.40770  0.67760  0.50390  Biso   1.000  N
  C93      1.0000 0.58710  0.39130  0.54390  Biso   1.000  C
  C94      1.0000 0.41290  0.60870  0.45610  Biso   1.000  C
  C95      1.0000 0.47580  0.38930  0.56990  Biso   1.000  C
  C96      1.0000 0.52420  0.61070  0.43010  Biso   1.000  C
  V1       1.0000 0.05132  0.26144  0.18398  Biso   1.000  V
  V2       1.0000 0.94868  0.73856  0.81602  Biso   1.000  V
  V3       1.0000 0.92513  0.39321  0.29365  Biso   1.000  V
  V4       1.0000 0.07487  0.60679  0.70635  Biso   1.000  V
  V5       1.0000 0.63138  0.27640  0.22885  Biso   1.000  V
  V6       1.0000 0.36862  0.72360  0.77115  Biso   1.000  V
  V7       1.0000 0.35300  0.23634  0.26929  Biso   1.000  V
  V8       1.0000 0.64700  0.76366  0.73071  Biso   1.000  V
  O1       1.0000 0.00950  0.25600  0.09100  Biso   1.000  O
  O2       1.0000 0.99050  0.74400  0.90900  Biso   1.000  O
  O3       1.0000 0.00060  0.16700  0.21180  Biso   1.000  O
  O4       1.0000 0.99940  0.83300  0.78820  Biso   1.000  O
  O5       1.0000 0.98210  0.34110  0.22150  Biso   1.000  O
  O6       1.0000 0.01790  0.65890  0.77850  Biso   1.000  O
  O7       1.0000 0.96620  0.49460  0.29650  Biso   1.000  O
  O8       1.0000 0.03380  0.50540  0.70350  Biso   1.000  O
  O9       1.0000 0.98880  0.36710  0.38270  Biso   1.000  O
  O10      1.0000 0.01120  0.63290  0.61730  Biso   1.000  O
  O11      1.0000 0.75060  0.36920  0.26310  Biso   1.000  O
  O12      1.0000 0.24940  0.63080  0.73690  Biso   1.000  O
  O13      1.0000 0.67770  0.19660  0.27390  Biso   1.000  O
  O14      1.0000 0.32230  0.80340  0.72610  Biso   1.000  O
  O15      1.0000 0.60020  0.25270  0.12998  Biso   1.000  O
  O16      1.0000 0.39980  0.74730  0.87002  Biso   1.000  O
  O17      1.0000 0.48910  0.29630  0.24980  Biso   1.000  O
  O18      1.0000 0.51090  0.70370  0.75020  Biso   1.000  O
  O19      1.0000 0.37710  0.24480  0.36780  Biso   1.000  O
  O20      1.0000 0.62290  0.75520  0.63220  Biso   1.000  O
  O21      1.0000 0.33110  0.13750  0.23320  Biso   1.000  O
  O22      1.0000 0.66890  0.86250  0.76680  Biso   1.000  O
  O23      1.0000 0.22030  0.28160  0.22190  Biso   1.000  O
  O24      1.0000 0.77970  0.71840  0.77810  Biso   1.000  O
  O25      1.0000 0.86570  0.09850  0.30230  Biso   1.000  O
  O26      1.0000 0.13430  0.90150  0.69770  Biso   1.000  O
  O27      1.0000 0.96810  0.21730  0.44840  Biso   1.000  O
  O28      1.0000 0.03190  0.78270  0.55160  Biso   1.000  O
  O29      1.0000 0.98690  0.26850  0.93180  Biso   1.000  O
  O30      1.0000 0.01310  0.73150  0.06820  Biso   1.000  O
  O31      1.0000 0.00740  0.22410  0.61270  Biso   1.000  O
  O32      1.0000 0.99260  0.77590  0.38730  Biso   1.000  O
  O33      1.0000 0.02110  0.14250  0.82500  Biso   1.000  O
  O34      1.0000 0.97890  0.85750  0.17500  Biso   1.000  O
  O35      1.0000 0.08380  0.65910  0.30850  Biso   1.000  O
  O36      1.0000 0.91620  0.34090  0.69150  Biso   1.000  O
  O37      1.0000 0.08890  0.02750  0.18450  Biso   1.000  O
  O38      1.0000 0.91110  0.97250  0.81550  Biso   1.000  O
  O39      1.0000 0.16520  0.49080  0.19680  Biso   1.000  O
  O40      1.0000 0.83480  0.50920  0.80320  Biso   1.000  O
  O41      1.0000 0.58200  0.81000  0.26550  Biso   1.000  O
  O42      1.0000 0.41800  0.19000  0.73450  Biso   1.000  O
  O43      1.0000 0.18010  0.65900  0.17440  Biso   1.000  O
  O44      1.0000 0.81990  0.34100  0.82560  Biso   1.000  O
  O45      1.0000 0.83510  0.88130  0.28140  Biso   1.000  O
  O46      1.0000 0.16490  0.11870  0.71860  Biso   1.000  O
  O47      1.0000 0.43190  0.67940  0.23320  Biso   1.000  O
  O48      1.0000 0.56810  0.32060  0.76680  Biso   1.000  O
