data_image0
_cell_length_a       9.517
_cell_length_b       13.406
_cell_length_c       10.877
_cell_angle_alpha    90
_cell_angle_beta     106.2
_cell_angle_gamma    90

_symmetry_space_group_name_H-M    "P 1"
_symmetry_int_tables_number       1

loop_
  _symmetry_equiv_pos_as_xyz
  'x, y, z'

loop_
  _atom_site_label
  _atom_site_occupancy
  _atom_site_fract_x
  _atom_site_fract_y
  _atom_site_fract_z
  _atom_site_thermal_displace_type
  _atom_site_B_iso_or_equiv
  _atom_site_type_symbol
  Cu1      1.0000 0.00000  0.52967  0.25000  Biso   1.000  Cu
  Cu2      1.0000 0.50000  0.02967  0.25000  Biso   1.000  Cu
  Cu3      1.0000 0.00000  0.47033  0.75000  Biso   1.000  Cu
  Cu4      1.0000 0.50000  0.97033  0.75000  Biso   1.000  Cu
  C1       1.0000 0.91420  0.50240  0.47330  Biso   1.000  C
  C2       1.0000 0.41420  0.00240  0.47330  Biso   1.000  C
  C3       1.0000 0.08580  0.50240  0.02670  Biso   1.000  C
  C4       1.0000 0.58580  0.00240  0.02670  Biso   1.000  C
  C5       1.0000 0.08580  0.49760  0.52670  Biso   1.000  C
  C6       1.0000 0.58580  0.99760  0.52670  Biso   1.000  C
  C7       1.0000 0.91420  0.49760  0.97330  Biso   1.000  C
  C8       1.0000 0.41420  0.99760  0.97330  Biso   1.000  C
  O1       1.0000 0.86390  0.52775  0.35770  Biso   1.000  O
  O2       1.0000 0.36390  0.02775  0.35770  Biso   1.000  O
  O3       1.0000 0.13610  0.52775  0.14230  Biso   1.000  O
  O4       1.0000 0.63610  0.02775  0.14230  Biso   1.000  O
  O5       1.0000 0.13610  0.47225  0.64230  Biso   1.000  O
  O6       1.0000 0.63610  0.97225  0.64230  Biso   1.000  O
  O7       1.0000 0.86390  0.47225  0.85770  Biso   1.000  O
  O8       1.0000 0.36390  0.97225  0.85770  Biso   1.000  O
  O9       1.0000 0.15990  0.51820  0.45330  Biso   1.000  O
  O10      1.0000 0.65990  0.01820  0.45330  Biso   1.000  O
  O11      1.0000 0.84010  0.51820  0.04670  Biso   1.000  O
  O12      1.0000 0.34010  0.01820  0.04670  Biso   1.000  O
  O13      1.0000 0.84010  0.48180  0.54670  Biso   1.000  O
  O14      1.0000 0.34010  0.98180  0.54670  Biso   1.000  O
  O15      1.0000 0.15990  0.48180  0.95330  Biso   1.000  O
  O16      1.0000 0.65990  0.98180  0.95330  Biso   1.000  O
  N1       1.0000 0.99750  0.68170  0.26110  Biso   1.000  N
  N2       1.0000 0.49750  0.18170  0.26110  Biso   1.000  N
  N3       1.0000 0.00250  0.68170  0.23890  Biso   1.000  N
  N4       1.0000 0.50250  0.18170  0.23890  Biso   1.000  N
  N5       1.0000 0.00250  0.31830  0.73890  Biso   1.000  N
  N6       1.0000 0.50250  0.81830  0.73890  Biso   1.000  N
  N7       1.0000 0.99750  0.31830  0.76110  Biso   1.000  N
  N8       1.0000 0.49750  0.81830  0.76110  Biso   1.000  N
  C9       1.0000 0.04700  0.73290  0.36780  Biso   1.000  C
  C10      1.0000 0.54700  0.23290  0.36780  Biso   1.000  C
  C11      1.0000 0.95300  0.73290  0.13220  Biso   1.000  C
  C12      1.0000 0.45300  0.23290  0.13220  Biso   1.000  C
  C13      1.0000 0.95300  0.26710  0.63220  Biso   1.000  C
  C14      1.0000 0.45300  0.76710  0.63220  Biso   1.000  C
  C15      1.0000 0.04700  0.26710  0.86780  Biso   1.000  C
  C16      1.0000 0.54700  0.76710  0.86780  Biso   1.000  C
  H1       1.0000 0.08250  0.69540  0.44190  Biso   1.000  H
  H2       1.0000 0.58250  0.19540  0.44190  Biso   1.000  H
  H3       1.0000 0.91750  0.69540  0.05810  Biso   1.000  H
  H4       1.0000 0.41750  0.19540  0.05810  Biso   1.000  H
  H5       1.0000 0.91750  0.30460  0.55810  Biso   1.000  H
  H6       1.0000 0.41750  0.80460  0.55810  Biso   1.000  H
  H7       1.0000 0.08250  0.30460  0.94190  Biso   1.000  H
  H8       1.0000 0.58250  0.80460  0.94190  Biso   1.000  H
  C17      1.0000 0.05280  0.83170  0.38300  Biso   1.000  C
  C18      1.0000 0.55280  0.33170  0.38300  Biso   1.000  C
  C19      1.0000 0.94720  0.83170  0.11700  Biso   1.000  C
  C20      1.0000 0.44720  0.33170  0.11700  Biso   1.000  C
  C21      1.0000 0.94720  0.16830  0.61700  Biso   1.000  C
  C22      1.0000 0.44720  0.66830  0.61700  Biso   1.000  C
  C23      1.0000 0.05280  0.16830  0.88300  Biso   1.000  C
  C24      1.0000 0.55280  0.66830  0.88300  Biso   1.000  C
  H9       1.0000 0.09420  0.85970  0.46320  Biso   1.000  H
  H10      1.0000 0.59420  0.35970  0.46320  Biso   1.000  H
  H11      1.0000 0.90580  0.85970  0.03680  Biso   1.000  H
  H12      1.0000 0.40580  0.35970  0.03680  Biso   1.000  H
  H13      1.0000 0.90580  0.14030  0.53680  Biso   1.000  H
  H14      1.0000 0.40580  0.64030  0.53680  Biso   1.000  H
  H15      1.0000 0.09420  0.14030  0.96320  Biso   1.000  H
  H16      1.0000 0.59420  0.64030  0.96320  Biso   1.000  H
  C25      1.0000 0.99820  0.88950  0.28100  Biso   1.000  C
  C26      1.0000 0.49820  0.38950  0.28100  Biso   1.000  C
  C27      1.0000 0.00180  0.88950  0.21900  Biso   1.000  C
  C28      1.0000 0.50180  0.38950  0.21900  Biso   1.000  C
  C29      1.0000 0.00180  0.11050  0.71900  Biso   1.000  C
  C30      1.0000 0.50180  0.61050  0.71900  Biso   1.000  C
  C31      1.0000 0.99820  0.11050  0.78100  Biso   1.000  C
  C32      1.0000 0.49820  0.61050  0.78100  Biso   1.000  C
  C33      1.0000 0.99200  0.00100  0.29490  Biso   1.000  C
  C34      1.0000 0.49200  0.50100  0.29490  Biso   1.000  C
  C35      1.0000 0.00800  0.00100  0.20510  Biso   1.000  C
  C36      1.0000 0.50800  0.50100  0.20510  Biso   1.000  C
  C37      1.0000 0.00800  0.99900  0.70510  Biso   1.000  C
  C38      1.0000 0.50800  0.49900  0.70510  Biso   1.000  C
  C39      1.0000 0.99200  0.99900  0.79490  Biso   1.000  C
  C40      1.0000 0.49200  0.49900  0.79490  Biso   1.000  C
  H17      1.0000 0.07080  0.02110  0.36860  Biso   1.000  H
  H18      1.0000 0.57080  0.52110  0.36860  Biso   1.000  H
  H19      1.0000 0.92920  0.02110  0.13140  Biso   1.000  H
  H20      1.0000 0.42920  0.52110  0.13140  Biso   1.000  H
  H21      1.0000 0.92920  0.97890  0.63140  Biso   1.000  H
  H22      1.0000 0.42920  0.47890  0.63140  Biso   1.000  H
  H23      1.0000 0.07080  0.97890  0.86860  Biso   1.000  H
  H24      1.0000 0.57080  0.47890  0.86860  Biso   1.000  H
  H25      1.0000 0.90050  0.01810  0.31260  Biso   1.000  H
  H26      1.0000 0.40050  0.51810  0.31260  Biso   1.000  H
  H27      1.0000 0.09950  0.01810  0.18740  Biso   1.000  H
  H28      1.0000 0.59950  0.51810  0.18740  Biso   1.000  H
  H29      1.0000 0.09950  0.98190  0.68740  Biso   1.000  H
  H30      1.0000 0.59950  0.48190  0.68740  Biso   1.000  H
  H31      1.0000 0.90050  0.98190  0.81260  Biso   1.000  H
  H32      1.0000 0.40050  0.48190  0.81260  Biso   1.000  H
  C41      1.0000 0.93250  0.73650  0.15830  Biso   1.000  C
  C42      1.0000 0.43250  0.23650  0.15830  Biso   1.000  C
  C43      1.0000 0.06750  0.73650  0.34170  Biso   1.000  C
  C44      1.0000 0.56750  0.23650  0.34170  Biso   1.000  C
  C45      1.0000 0.06750  0.26350  0.84170  Biso   1.000  C
  C46      1.0000 0.56750  0.76350  0.84170  Biso   1.000  C
  C47      1.0000 0.93250  0.26350  0.65830  Biso   1.000  C
  C48      1.0000 0.43250  0.76350  0.65830  Biso   1.000  C
  H33      1.0000 0.88450  0.70490  0.08200  Biso   1.000  H
  H34      1.0000 0.38450  0.20490  0.08200  Biso   1.000  H
  H35      1.0000 0.11550  0.70490  0.41800  Biso   1.000  H
  H36      1.0000 0.61550  0.20490  0.41800  Biso   1.000  H
  H37      1.0000 0.11550  0.29510  0.91800  Biso   1.000  H
  H38      1.0000 0.61550  0.79510  0.91800  Biso   1.000  H
  H39      1.0000 0.88450  0.29510  0.58200  Biso   1.000  H
  H40      1.0000 0.38450  0.79510  0.58200  Biso   1.000  H
  C49      1.0000 0.93560  0.84150  0.16390  Biso   1.000  C
  C50      1.0000 0.43560  0.34150  0.16390  Biso   1.000  C
  C51      1.0000 0.06440  0.84150  0.33610  Biso   1.000  C
  C52      1.0000 0.56440  0.34150  0.33610  Biso   1.000  C
  C53      1.0000 0.06440  0.15850  0.83610  Biso   1.000  C
  C54      1.0000 0.56440  0.65850  0.83610  Biso   1.000  C
  C55      1.0000 0.93560  0.15850  0.66390  Biso   1.000  C
  C56      1.0000 0.43560  0.65850  0.66390  Biso   1.000  C
  H41      1.0000 0.89640  0.87890  0.09020  Biso   1.000  H
  H42      1.0000 0.39640  0.37890  0.09020  Biso   1.000  H
  H43      1.0000 0.10360  0.87890  0.40980  Biso   1.000  H
  H44      1.0000 0.60360  0.37890  0.40980  Biso   1.000  H
  H45      1.0000 0.10360  0.12110  0.90980  Biso   1.000  H
  H46      1.0000 0.60360  0.62110  0.90980  Biso   1.000  H
  H47      1.0000 0.89640  0.12110  0.59020  Biso   1.000  H
  H48      1.0000 0.39640  0.62110  0.59020  Biso   1.000  H
  N9       1.0000 0.99700  0.37670  0.24170  Biso   1.000  N
  N10      1.0000 0.49700  0.87670  0.24170  Biso   1.000  N
  N11      1.0000 0.00300  0.37670  0.25830  Biso   1.000  N
  N12      1.0000 0.50300  0.87670  0.25830  Biso   1.000  N
  N13      1.0000 0.00300  0.62330  0.75830  Biso   1.000  N
  N14      1.0000 0.50300  0.12330  0.75830  Biso   1.000  N
  N15      1.0000 0.99700  0.62330  0.74170  Biso   1.000  N
  N16      1.0000 0.49700  0.12330  0.74170  Biso   1.000  N
  C57      1.0000 0.87500  0.32410  0.18500  Biso   1.000  C
  C58      1.0000 0.37500  0.82410  0.18500  Biso   1.000  C
  C59      1.0000 0.12500  0.32410  0.31500  Biso   1.000  C
  C60      1.0000 0.62500  0.82410  0.31500  Biso   1.000  C
  C61      1.0000 0.12500  0.67590  0.81500  Biso   1.000  C
  C62      1.0000 0.62500  0.17590  0.81500  Biso   1.000  C
  C63      1.0000 0.87500  0.67590  0.68500  Biso   1.000  C
  C64      1.0000 0.37500  0.17590  0.68500  Biso   1.000  C
  H49      1.0000 0.78770  0.35890  0.15420  Biso   1.000  H
  H50      1.0000 0.28770  0.85890  0.15420  Biso   1.000  H
  H51      1.0000 0.21230  0.35890  0.34580  Biso   1.000  H
  H52      1.0000 0.71230  0.85890  0.34580  Biso   1.000  H
  H53      1.0000 0.21230  0.64110  0.84580  Biso   1.000  H
  H54      1.0000 0.71230  0.14110  0.84580  Biso   1.000  H
  H55      1.0000 0.78770  0.64110  0.65420  Biso   1.000  H
  H56      1.0000 0.28770  0.14110  0.65420  Biso   1.000  H
  C65      1.0000 0.87240  0.22350  0.17060  Biso   1.000  C
  C66      1.0000 0.37240  0.72350  0.17060  Biso   1.000  C
  C67      1.0000 0.12760  0.22350  0.32940  Biso   1.000  C
  C68      1.0000 0.62760  0.72350  0.32940  Biso   1.000  C
  C69      1.0000 0.12760  0.77650  0.82940  Biso   1.000  C
  C70      1.0000 0.62760  0.27650  0.82940  Biso   1.000  C
  C71      1.0000 0.87240  0.77650  0.67060  Biso   1.000  C
  C72      1.0000 0.37240  0.27650  0.67060  Biso   1.000  C
  H57      1.0000 0.78370  0.19060  0.13800  Biso   1.000  H
  H58      1.0000 0.28370  0.69060  0.13800  Biso   1.000  H
  H59      1.0000 0.21630  0.19060  0.36200  Biso   1.000  H
  H60      1.0000 0.71630  0.69060  0.36200  Biso   1.000  H
  H61      1.0000 0.21630  0.80940  0.86200  Biso   1.000  H
  H62      1.0000 0.71630  0.30940  0.86200  Biso   1.000  H
  H63      1.0000 0.78370  0.80940  0.63800  Biso   1.000  H
  H64      1.0000 0.28370  0.30940  0.63800  Biso   1.000  H
  C73      1.0000 0.00200  0.16980  0.20450  Biso   1.000  C
  C74      1.0000 0.50200  0.66980  0.20450  Biso   1.000  C
  C75      1.0000 0.99800  0.16980  0.29550  Biso   1.000  C
  C76      1.0000 0.49800  0.66980  0.29550  Biso   1.000  C
  C77      1.0000 0.99800  0.83020  0.79550  Biso   1.000  C
  C78      1.0000 0.49800  0.33020  0.79550  Biso   1.000  C
  C79      1.0000 0.00200  0.83020  0.70450  Biso   1.000  C
  C80      1.0000 0.50200  0.33020  0.70450  Biso   1.000  C
  C81      1.0000 0.00390  0.06090  0.17910  Biso   1.000  C
  C82      1.0000 0.50390  0.56090  0.17910  Biso   1.000  C
  C83      1.0000 0.99610  0.06090  0.32090  Biso   1.000  C
  C84      1.0000 0.49610  0.56090  0.32090  Biso   1.000  C
  C85      1.0000 0.99610  0.93910  0.82090  Biso   1.000  C
  C86      1.0000 0.49610  0.43910  0.82090  Biso   1.000  C
  C87      1.0000 0.00390  0.93910  0.67910  Biso   1.000  C
  C88      1.0000 0.50390  0.43910  0.67910  Biso   1.000  C
  H65      1.0000 0.90590  0.04370  0.34080  Biso   1.000  H
  H66      1.0000 0.40590  0.54370  0.34080  Biso   1.000  H
  H67      1.0000 0.09410  0.04370  0.15920  Biso   1.000  H
  H68      1.0000 0.59410  0.54370  0.15920  Biso   1.000  H
  H69      1.0000 0.09410  0.95630  0.65920  Biso   1.000  H
  H70      1.0000 0.59410  0.45630  0.65920  Biso   1.000  H
  H71      1.0000 0.90590  0.95630  0.84080  Biso   1.000  H
  H72      1.0000 0.40590  0.45630  0.84080  Biso   1.000  H
  H73      1.0000 0.92290  0.04410  0.10560  Biso   1.000  H
  H74      1.0000 0.42290  0.54410  0.10560  Biso   1.000  H
  H75      1.0000 0.07710  0.04410  0.39440  Biso   1.000  H
  H76      1.0000 0.57710  0.54410  0.39440  Biso   1.000  H
  H77      1.0000 0.07710  0.95590  0.89440  Biso   1.000  H
  H78      1.0000 0.57710  0.45590  0.89440  Biso   1.000  H
  H79      1.0000 0.92290  0.95590  0.60560  Biso   1.000  H
  H80      1.0000 0.42290  0.45590  0.60560  Biso   1.000  H
  C89      1.0000 0.12270  0.32520  0.27240  Biso   1.000  C
  C90      1.0000 0.62270  0.82520  0.27240  Biso   1.000  C
  C91      1.0000 0.87730  0.32520  0.22760  Biso   1.000  C
  C92      1.0000 0.37730  0.82520  0.22760  Biso   1.000  C
  C93      1.0000 0.87730  0.67480  0.72760  Biso   1.000  C
  C94      1.0000 0.37730  0.17480  0.72760  Biso   1.000  C
  C95      1.0000 0.12270  0.67480  0.77240  Biso   1.000  C
  C96      1.0000 0.62270  0.17480  0.77240  Biso   1.000  C
  H81      1.0000 0.78970  0.35970  0.19660  Biso   1.000  H
  H82      1.0000 0.28970  0.85970  0.19660  Biso   1.000  H
  H83      1.0000 0.21030  0.35970  0.30340  Biso   1.000  H
  H84      1.0000 0.71030  0.85970  0.30340  Biso   1.000  H
  H85      1.0000 0.21030  0.64030  0.80340  Biso   1.000  H
  H86      1.0000 0.71030  0.14030  0.80340  Biso   1.000  H
  H87      1.0000 0.78970  0.64030  0.69660  Biso   1.000  H
  H88      1.0000 0.28970  0.14030  0.69660  Biso   1.000  H
  C97      1.0000 0.87280  0.22350  0.23980  Biso   1.000  C
  C98      1.0000 0.37280  0.72350  0.23980  Biso   1.000  C
  C99      1.0000 0.12720  0.22350  0.26020  Biso   1.000  C
  C100     1.0000 0.62720  0.72350  0.26020  Biso   1.000  C
  C101     1.0000 0.12720  0.77650  0.76020  Biso   1.000  C
  C102     1.0000 0.62720  0.27650  0.76020  Biso   1.000  C
  C103     1.0000 0.87280  0.77650  0.73980  Biso   1.000  C
  C104     1.0000 0.37280  0.27650  0.73980  Biso   1.000  C
  H89      1.0000 0.78400  0.19030  0.21020  Biso   1.000  H
  H90      1.0000 0.28400  0.69030  0.21020  Biso   1.000  H
  H91      1.0000 0.21600  0.19030  0.28980  Biso   1.000  H
  H92      1.0000 0.71600  0.69030  0.28980  Biso   1.000  H
  H93      1.0000 0.21600  0.80970  0.78980  Biso   1.000  H
  H94      1.0000 0.71600  0.30970  0.78980  Biso   1.000  H
  H95      1.0000 0.78400  0.80970  0.71020  Biso   1.000  H
  H96      1.0000 0.28400  0.30970  0.71020  Biso   1.000  H
