data_image0
_cell_length_a       5.51
_cell_length_b       10.242
_cell_length_c       13.436
_cell_angle_alpha    90
_cell_angle_beta     90
_cell_angle_gamma    90

_symmetry_space_group_name_H-M    "P 1"
_symmetry_int_tables_number       1

loop_
  _symmetry_equiv_pos_as_xyz
  'x, y, z'

loop_
  _atom_site_label
  _atom_site_occupancy
  _atom_site_fract_x
  _atom_site_fract_y
  _atom_site_fract_z
  _atom_site_thermal_displace_type
  _atom_site_B_iso_or_equiv
  _atom_site_type_symbol
  Cu1      1.0000 0.00000  0.00000  0.50000  Biso   1.000  Cu
  Cu2      1.0000 0.50000  0.50000  0.00000  Biso   1.000  Cu
  O1       1.0000 0.70020  0.86720  0.50000  Biso   1.000  O
  O2       1.0000 0.20020  0.36720  0.00000  Biso   1.000  O
  O3       1.0000 0.29980  0.13280  0.50000  Biso   1.000  O
  O4       1.0000 0.70020  0.13280  0.50000  Biso   1.000  O
  O5       1.0000 0.29980  0.86720  0.50000  Biso   1.000  O
  O6       1.0000 0.79980  0.63280  0.00000  Biso   1.000  O
  O7       1.0000 0.20020  0.63280  0.00000  Biso   1.000  O
  O8       1.0000 0.79980  0.36720  0.00000  Biso   1.000  O
  C1       1.0000 0.50000  0.92420  0.50000  Biso   1.000  C
  C2       1.0000 0.00000  0.42420  0.00000  Biso   1.000  C
  C3       1.0000 0.50000  0.07580  0.50000  Biso   1.000  C
  C4       1.0000 0.00000  0.57580  0.00000  Biso   1.000  C
  N1       1.0000 0.00000  0.01590  0.65050  Biso   1.000  N
  N2       1.0000 0.50000  0.51590  0.15050  Biso   1.000  N
  N3       1.0000 0.00000  0.98410  0.65050  Biso   1.000  N
  N4       1.0000 0.00000  0.98410  0.34950  Biso   1.000  N
  N5       1.0000 0.00000  0.01590  0.34950  Biso   1.000  N
  N6       1.0000 0.50000  0.48410  0.15050  Biso   1.000  N
  N7       1.0000 0.50000  0.48410  0.84950  Biso   1.000  N
  N8       1.0000 0.50000  0.51590  0.84950  Biso   1.000  N
  C5       1.0000 0.00000  0.12870  0.69670  Biso   1.000  C
  C6       1.0000 0.50000  0.62870  0.19670  Biso   1.000  C
  C7       1.0000 0.00000  0.87130  0.69670  Biso   1.000  C
  C8       1.0000 0.00000  0.87130  0.30330  Biso   1.000  C
  C9       1.0000 0.00000  0.12870  0.30330  Biso   1.000  C
  C10      1.0000 0.50000  0.37130  0.19670  Biso   1.000  C
  C11      1.0000 0.50000  0.37130  0.80330  Biso   1.000  C
  C12      1.0000 0.50000  0.62870  0.80330  Biso   1.000  C
  H1       1.0000 0.00000  0.20400  0.65810  Biso   1.000  H
  H2       1.0000 0.50000  0.70400  0.15810  Biso   1.000  H
  H3       1.0000 0.00000  0.79600  0.65810  Biso   1.000  H
  H4       1.0000 0.00000  0.79600  0.34190  Biso   1.000  H
  H5       1.0000 0.00000  0.20400  0.34190  Biso   1.000  H
  H6       1.0000 0.50000  0.29600  0.15810  Biso   1.000  H
  H7       1.0000 0.50000  0.29600  0.84190  Biso   1.000  H
  H8       1.0000 0.50000  0.70400  0.84190  Biso   1.000  H
  C13      1.0000 0.00000  0.14310  0.79940  Biso   1.000  C
  C14      1.0000 0.50000  0.64310  0.29940  Biso   1.000  C
  C15      1.0000 0.00000  0.85690  0.79940  Biso   1.000  C
  C16      1.0000 0.00000  0.85690  0.20060  Biso   1.000  C
  C17      1.0000 0.00000  0.14310  0.20060  Biso   1.000  C
  C18      1.0000 0.50000  0.35690  0.29940  Biso   1.000  C
  C19      1.0000 0.50000  0.35690  0.70060  Biso   1.000  C
  C20      1.0000 0.50000  0.64310  0.70060  Biso   1.000  C
  H9       1.0000 0.00000  0.22530  0.82880  Biso   1.000  H
  H10      1.0000 0.50000  0.72530  0.32880  Biso   1.000  H
  H11      1.0000 0.00000  0.77470  0.82880  Biso   1.000  H
  H12      1.0000 0.00000  0.77470  0.17120  Biso   1.000  H
  H13      1.0000 0.00000  0.22530  0.17120  Biso   1.000  H
  H14      1.0000 0.50000  0.27470  0.32880  Biso   1.000  H
  H15      1.0000 0.50000  0.27470  0.67120  Biso   1.000  H
  H16      1.0000 0.50000  0.72530  0.67120  Biso   1.000  H
  C21      1.0000 0.00000  0.02860  0.85740  Biso   1.000  C
  C22      1.0000 0.50000  0.52860  0.35740  Biso   1.000  C
  C23      1.0000 0.00000  0.97140  0.85740  Biso   1.000  C
  C24      1.0000 0.00000  0.97140  0.14260  Biso   1.000  C
  C25      1.0000 0.00000  0.02860  0.14260  Biso   1.000  C
  C26      1.0000 0.50000  0.47140  0.35740  Biso   1.000  C
  C27      1.0000 0.50000  0.47140  0.64260  Biso   1.000  C
  C28      1.0000 0.50000  0.52860  0.64260  Biso   1.000  C
  C29      1.0000 0.00000  0.09240  0.80950  Biso   1.000  C
  C30      1.0000 0.50000  0.59240  0.30950  Biso   1.000  C
  C31      1.0000 0.00000  0.90760  0.80950  Biso   1.000  C
  C32      1.0000 0.00000  0.90760  0.19050  Biso   1.000  C
  C33      1.0000 0.00000  0.09240  0.19050  Biso   1.000  C
  C34      1.0000 0.50000  0.40760  0.30950  Biso   1.000  C
  C35      1.0000 0.50000  0.40760  0.69050  Biso   1.000  C
  C36      1.0000 0.50000  0.59240  0.69050  Biso   1.000  C
  H17      1.0000 0.00000  0.17000  0.84540  Biso   1.000  H
  H18      1.0000 0.50000  0.67000  0.34540  Biso   1.000  H
  H19      1.0000 0.00000  0.83000  0.84540  Biso   1.000  H
  H20      1.0000 0.00000  0.83000  0.15460  Biso   1.000  H
  H21      1.0000 0.00000  0.17000  0.15460  Biso   1.000  H
  H22      1.0000 0.50000  0.33000  0.34540  Biso   1.000  H
  H23      1.0000 0.50000  0.33000  0.65460  Biso   1.000  H
  H24      1.0000 0.50000  0.67000  0.65460  Biso   1.000  H
  C37      1.0000 0.00000  0.90780  0.70410  Biso   1.000  C
  C38      1.0000 0.50000  0.40780  0.20410  Biso   1.000  C
  C39      1.0000 0.00000  0.09220  0.70410  Biso   1.000  C
  C40      1.0000 0.00000  0.09220  0.29590  Biso   1.000  C
  C41      1.0000 0.00000  0.90780  0.29590  Biso   1.000  C
  C42      1.0000 0.50000  0.59220  0.20410  Biso   1.000  C
  C43      1.0000 0.50000  0.59220  0.79590  Biso   1.000  C
  C44      1.0000 0.50000  0.40780  0.79590  Biso   1.000  C
  H25      1.0000 0.00000  0.82800  0.67110  Biso   1.000  H
  H26      1.0000 0.50000  0.32800  0.17110  Biso   1.000  H
  H27      1.0000 0.00000  0.17200  0.67110  Biso   1.000  H
  H28      1.0000 0.00000  0.17200  0.32890  Biso   1.000  H
  H29      1.0000 0.00000  0.82800  0.32890  Biso   1.000  H
  H30      1.0000 0.50000  0.67200  0.17110  Biso   1.000  H
  H31      1.0000 0.50000  0.67200  0.82890  Biso   1.000  H
  H32      1.0000 0.50000  0.32800  0.82890  Biso   1.000  H
  C45      1.0000 0.00000  0.04840  0.96870  Biso   1.000  C
  C46      1.0000 0.50000  0.54840  0.46870  Biso   1.000  C
  C47      1.0000 0.00000  0.95160  0.96870  Biso   1.000  C
  C48      1.0000 0.00000  0.95160  0.03130  Biso   1.000  C
  C49      1.0000 0.00000  0.04840  0.03130  Biso   1.000  C
  C50      1.0000 0.50000  0.45160  0.46870  Biso   1.000  C
  C51      1.0000 0.50000  0.45160  0.53130  Biso   1.000  C
  C52      1.0000 0.50000  0.54840  0.53130  Biso   1.000  C
  H33      1.0000 0.00000  0.14950  0.00000  Biso   1.000  H
  H34      1.0000 0.50000  0.64950  0.50000  Biso   1.000  H
  H35      1.0000 0.00000  0.85050  0.00000  Biso   1.000  H
  H36      1.0000 0.50000  0.35050  0.50000  Biso   1.000  H
