data_image0
_cell_length_a       8.9701
_cell_length_b       9.2486
_cell_length_c       9.2555
_cell_angle_alpha    89.314
_cell_angle_beta     68.834
_cell_angle_gamma    85.487

_symmetry_space_group_name_H-M    "P 1"
_symmetry_int_tables_number       1

loop_
  _symmetry_equiv_pos_as_xyz
  'x, y, z'

loop_
  _atom_site_label
  _atom_site_occupancy
  _atom_site_fract_x
  _atom_site_fract_y
  _atom_site_fract_z
  _atom_site_thermal_displace_type
  _atom_site_B_iso_or_equiv
  _atom_site_type_symbol
  Cu1      1.0000 0.00000  0.00000  0.00000  Biso   1.000  Cu
  N1       1.0000 0.03977  0.18633  0.08742  Biso   1.000  N
  N2       1.0000 0.96023  0.81367  0.91258  Biso   1.000  N
  H1       1.0000 0.10900  0.16900  0.12800  Biso   1.000  H
  H2       1.0000 0.89100  0.83100  0.87200  Biso   1.000  H
  N3       1.0000 0.18294  0.01045  0.79317  Biso   1.000  N
  N4       1.0000 0.81706  0.98955  0.20683  Biso   1.000  N
  H3       1.0000 0.25800  0.97500  0.82300  Biso   1.000  H
  H4       1.0000 0.74200  0.02500  0.17700  Biso   1.000  H
  C1       1.0000 0.09540  0.30330  0.97330  Biso   1.000  C
  C2       1.0000 0.90460  0.69670  0.02670  Biso   1.000  C
  H5       1.0000 0.11360  0.38890  0.02630  Biso   1.000  H
  H6       1.0000 0.88640  0.61110  0.97370  Biso   1.000  H
  H7       1.0000 0.01100  0.33280  0.93100  Biso   1.000  H
  H8       1.0000 0.98900  0.66720  0.06900  Biso   1.000  H
  C3       1.0000 0.24950  0.25400  0.84110  Biso   1.000  C
  C4       1.0000 0.75050  0.74600  0.15890  Biso   1.000  C
  H9       1.0000 0.32430  0.20460  0.88600  Biso   1.000  H
  H10      1.0000 0.67570  0.79540  0.11400  Biso   1.000  H
  H11      1.0000 0.29920  0.34130  0.78810  Biso   1.000  H
  H12      1.0000 0.70080  0.65870  0.21190  Biso   1.000  H
  C5       1.0000 0.23370  0.15290  0.71970  Biso   1.000  C
  C6       1.0000 0.76630  0.84710  0.28030  Biso   1.000  C
  H13      1.0000 0.34270  0.13420  0.63790  Biso   1.000  H
  H14      1.0000 0.65730  0.86580  0.36210  Biso   1.000  H
  C7       1.0000 0.12160  0.21660  0.64050  Biso   1.000  C
  C8       1.0000 0.87840  0.78340  0.35950  Biso   1.000  C
  H15      1.0000 0.13590  0.15770  0.54850  Biso   1.000  H
  H16      1.0000 0.86410  0.84230  0.45150  Biso   1.000  H
  H17      1.0000 0.14660  0.31620  0.60970  Biso   1.000  H
  H18      1.0000 0.85340  0.68380  0.39030  Biso   1.000  H
  H19      1.0000 0.01030  0.21680  0.71250  Biso   1.000  H
  H20      1.0000 0.98970  0.78320  0.28750  Biso   1.000  H
  C9       1.0000 0.16590  0.90138  0.68420  Biso   1.000  C
  C10      1.0000 0.83410  0.09862  0.31580  Biso   1.000  C
  H21      1.0000 0.08250  0.94200  0.64340  Biso   1.000  H
  H22      1.0000 0.91750  0.05800  0.35660  Biso   1.000  H
  C11      1.0000 0.89500  0.23390  0.22280  Biso   1.000  C
  C12      1.0000 0.10500  0.76610  0.77720  Biso   1.000  C
  H23      1.0000 0.81080  0.27560  0.18350  Biso   1.000  H
  H24      1.0000 0.18920  0.72440  0.81650  Biso   1.000  H
  C13      1.0000 0.92250  0.34800  0.32640  Biso   1.000  C
  C14      1.0000 0.07750  0.65200  0.67360  Biso   1.000  C
  H25      1.0000 0.00740  0.30950  0.36460  Biso   1.000  H
  H26      1.0000 0.99260  0.69050  0.63540  Biso   1.000  H
  H27      1.0000 0.95930  0.43550  0.26540  Biso   1.000  H
  H28      1.0000 0.04070  0.56450  0.73460  Biso   1.000  H
  C15      1.0000 0.76830  0.38890  0.46420  Biso   1.000  C
  C16      1.0000 0.23170  0.61110  0.53580  Biso   1.000  C
  H29      1.0000 0.79000  0.45910  0.53270  Biso   1.000  H
  H30      1.0000 0.21000  0.54090  0.46730  Biso   1.000  H
  H31      1.0000 0.68650  0.43590  0.42650  Biso   1.000  H
  H32      1.0000 0.31350  0.56410  0.57350  Biso   1.000  H
  C17      1.0000 0.70420  0.25420  0.55600  Biso   1.000  C
  C18      1.0000 0.29580  0.74580  0.44400  Biso   1.000  C
  H33      1.0000 0.60070  0.28210  0.64020  Biso   1.000  H
  H34      1.0000 0.39930  0.71790  0.35980  Biso   1.000  H
  H35      1.0000 0.78060  0.21440  0.60400  Biso   1.000  H
  H36      1.0000 0.21940  0.78560  0.39600  Biso   1.000  H
  C19      1.0000 0.32020  0.86250  0.54650  Biso   1.000  C
  C20      1.0000 0.67980  0.13750  0.45350  Biso   1.000  C
  H37      1.0000 0.35430  0.95020  0.48480  Biso   1.000  H
  H38      1.0000 0.64570  0.04980  0.51520  Biso   1.000  H
  H39      1.0000 0.40620  0.82710  0.58460  Biso   1.000  H
  H40      1.0000 0.59380  0.17290  0.41540  Biso   1.000  H
  O1       1.0000 0.24620  0.06822  0.24701  Biso   1.000  O
  O2       1.0000 0.75380  0.93178  0.75299  Biso   1.000  O
  H41      1.0000 0.25000  0.99900  0.20200  Biso   1.000  H
  H42      1.0000 0.75000  0.00100  0.79800  Biso   1.000  H
  H43      1.0000 0.34300  0.09100  0.21200  Biso   1.000  H
  H44      1.0000 0.65700  0.90900  0.78800  Biso   1.000  H
  O3       1.0000 0.44045  0.86928  0.86806  Biso   1.000  O
  O4       1.0000 0.55955  0.13072  0.13194  Biso   1.000  O
  O5       1.0000 0.22375  0.82921  0.07422  Biso   1.000  O
  O6       1.0000 0.77625  0.17079  0.92578  Biso   1.000  O
  C21      1.0000 0.58280  0.58930  0.88200  Biso   1.000  C
  C22      1.0000 0.41720  0.41070  0.11800  Biso   1.000  C
  H45      1.0000 0.64010  0.65010  0.80080  Biso   1.000  H
  H46      1.0000 0.35990  0.34990  0.19920  Biso   1.000  H
  C23      1.0000 0.35120  0.54880  0.10620  Biso   1.000  C
  C24      1.0000 0.64880  0.45120  0.89380  Biso   1.000  C
  H47      1.0000 0.24910  0.58170  0.17920  Biso   1.000  H
  H48      1.0000 0.75090  0.41830  0.82080  Biso   1.000  H
  C25      1.0000 0.43350  0.63998  0.98810  Biso   1.000  C
  C26      1.0000 0.56650  0.36002  0.01190  Biso   1.000  C
  C27      1.0000 0.36090  0.79160  0.97690  Biso   1.000  C
  C28      1.0000 0.63910  0.20840  0.02310  Biso   1.000  C
