data_image0
_cell_length_a       18.8779
_cell_length_b       19.863
_cell_length_c       19.323
_cell_angle_alpha    90
_cell_angle_beta     117.185
_cell_angle_gamma    90

_symmetry_space_group_name_H-M    "P 1"
_symmetry_int_tables_number       1

loop_
  _symmetry_equiv_pos_as_xyz
  'x, y, z'

loop_
  _atom_site_label
  _atom_site_occupancy
  _atom_site_fract_x
  _atom_site_fract_y
  _atom_site_fract_z
  _atom_site_thermal_displace_type
  _atom_site_B_iso_or_equiv
  _atom_site_type_symbol
  W1       1.0000 0.74491  0.80792  0.70658  Biso   1.000  W
  W2       1.0000 0.75509  0.30792  0.79342  Biso   1.000  W
  W3       1.0000 0.25509  0.19208  0.29342  Biso   1.000  W
  W4       1.0000 0.24491  0.69208  0.20658  Biso   1.000  W
  Cu1      1.0000 0.57419  0.74554  0.42999  Biso   1.000  Cu
  Cu2      1.0000 0.92581  0.24554  0.07001  Biso   1.000  Cu
  Cu3      1.0000 0.42581  0.25446  0.57001  Biso   1.000  Cu
  Cu4      1.0000 0.07419  0.75446  0.92999  Biso   1.000  Cu
  Mn1      1.0000 0.45140  0.80232  0.48741  Biso   1.000  Mn
  Mn2      1.0000 0.04860  0.30232  0.01259  Biso   1.000  Mn
  Mn3      1.0000 0.54860  0.19768  0.51259  Biso   1.000  Mn
  Mn4      1.0000 0.95140  0.69768  0.98741  Biso   1.000  Mn
  O1       1.0000 0.53700  0.71630  0.50370  Biso   1.000  O
  O2       1.0000 0.96300  0.21630  0.99630  Biso   1.000  O
  O3       1.0000 0.46300  0.28370  0.49630  Biso   1.000  O
  O4       1.0000 0.03700  0.78370  0.00370  Biso   1.000  O
  O5       1.0000 0.51190  0.82630  0.41510  Biso   1.000  O
  O6       1.0000 0.98810  0.32630  0.08490  Biso   1.000  O
  O7       1.0000 0.48810  0.17370  0.58490  Biso   1.000  O
  O8       1.0000 0.01190  0.67370  0.91510  Biso   1.000  O
  N1       1.0000 0.63700  0.66510  0.44310  Biso   1.000  N
  N2       1.0000 0.86300  0.16510  0.05690  Biso   1.000  N
  N3       1.0000 0.36300  0.33490  0.55690  Biso   1.000  N
  N4       1.0000 0.13700  0.83490  0.94310  Biso   1.000  N
  N5       1.0000 0.59090  0.76190  0.34080  Biso   1.000  N
  N6       1.0000 0.90910  0.26190  0.15920  Biso   1.000  N
  N7       1.0000 0.40910  0.23810  0.65920  Biso   1.000  N
  N8       1.0000 0.09090  0.73810  0.84080  Biso   1.000  N
  N9       1.0000 0.43590  0.74470  0.57510  Biso   1.000  N
  N10      1.0000 0.06410  0.24470  0.92490  Biso   1.000  N
  N11      1.0000 0.56410  0.25530  0.42490  Biso   1.000  N
  N12      1.0000 0.93590  0.75530  0.07510  Biso   1.000  N
  N13      1.0000 0.31100  0.82600  0.48190  Biso   1.000  N
  N14      1.0000 0.18900  0.32600  0.01810  Biso   1.000  N
  N15      1.0000 0.68900  0.17400  0.51810  Biso   1.000  N
  N16      1.0000 0.81100  0.67400  0.98190  Biso   1.000  N
  H1       1.0000 0.26840  0.80500  0.43580  Biso   1.000  H
  H2       1.0000 0.23160  0.30500  0.06420  Biso   1.000  H
  H3       1.0000 0.73160  0.19500  0.56420  Biso   1.000  H
  H4       1.0000 0.76840  0.69500  0.93580  Biso   1.000  H
  N17      1.0000 0.41730  0.90850  0.46290  Biso   1.000  N
  N18      1.0000 0.08270  0.40850  0.03710  Biso   1.000  N
  N19      1.0000 0.58270  0.09150  0.53710  Biso   1.000  N
  N20      1.0000 0.91730  0.59150  0.96290  Biso   1.000  N
  N21      1.0000 0.36900  0.74640  0.38220  Biso   1.000  N
  N22      1.0000 0.13100  0.24640  0.11780  Biso   1.000  N
  N23      1.0000 0.63100  0.25360  0.61780  Biso   1.000  N
  N24      1.0000 0.86900  0.75360  0.88220  Biso   1.000  N
  N25      1.0000 0.55660  0.84920  0.59880  Biso   1.000  N
  N26      1.0000 0.94340  0.34920  0.90120  Biso   1.000  N
  N27      1.0000 0.44340  0.15080  0.40120  Biso   1.000  N
  N28      1.0000 0.05660  0.65080  0.09880  Biso   1.000  N
  N29      1.0000 0.67510  0.74010  0.74380  Biso   1.000  N
  N30      1.0000 0.82490  0.24010  0.75620  Biso   1.000  N
  N31      1.0000 0.32490  0.25990  0.25620  Biso   1.000  N
  N32      1.0000 0.17510  0.75990  0.24380  Biso   1.000  N
  N33      1.0000 0.77110  0.70260  0.68770  Biso   1.000  N
  N34      1.0000 0.72890  0.20260  0.81230  Biso   1.000  N
  N35      1.0000 0.22890  0.29740  0.31230  Biso   1.000  N
  N36      1.0000 0.27110  0.79740  0.18770  Biso   1.000  N
  N37      1.0000 0.70230  0.80180  0.52100  Biso   1.000  N
  N38      1.0000 0.79770  0.30180  0.97900  Biso   1.000  N
  N39      1.0000 0.29770  0.19820  0.47900  Biso   1.000  N
  N40      1.0000 0.20230  0.69820  0.02100  Biso   1.000  N
  N41      1.0000 0.75710  0.96560  0.65940  Biso   1.000  N
  N42      1.0000 0.74290  0.46560  0.84060  Biso   1.000  N
  N43      1.0000 0.24290  0.03440  0.34060  Biso   1.000  N
  N44      1.0000 0.25710  0.53440  0.15940  Biso   1.000  N
  N45      1.0000 0.92410  0.83000  0.72060  Biso   1.000  N
  N46      1.0000 0.57590  0.33000  0.77940  Biso   1.000  N
  N47      1.0000 0.07590  0.17000  0.27940  Biso   1.000  N
  N48      1.0000 0.42410  0.67000  0.22060  Biso   1.000  N
  N49      1.0000 0.72340  0.90790  0.83170  Biso   1.000  N
  N50      1.0000 0.77660  0.40790  0.66830  Biso   1.000  N
  N51      1.0000 0.27660  0.09210  0.16830  Biso   1.000  N
  N52      1.0000 0.22340  0.59210  0.33170  Biso   1.000  N
  C1       1.0000 0.54630  0.65590  0.53470  Biso   1.000  C
  C2       1.0000 0.95370  0.15590  0.96530  Biso   1.000  C
  C3       1.0000 0.45370  0.34410  0.46530  Biso   1.000  C
  C4       1.0000 0.04630  0.84410  0.03470  Biso   1.000  C
  C5       1.0000 0.50630  0.63790  0.57940  Biso   1.000  C
  C6       1.0000 0.99370  0.13790  0.92060  Biso   1.000  C
  C7       1.0000 0.49370  0.36210  0.42060  Biso   1.000  C
  C8       1.0000 0.00630  0.86210  0.07940  Biso   1.000  C
  C9       1.0000 0.51430  0.57320  0.61150  Biso   1.000  C
  C10      1.0000 0.98570  0.07320  0.88850  Biso   1.000  C
  C11      1.0000 0.48570  0.42680  0.38850  Biso   1.000  C
  C12      1.0000 0.01430  0.92680  0.11150  Biso   1.000  C
  H5       1.0000 0.48670  0.56330  0.63960  Biso   1.000  H
  H6       1.0000 0.01330  0.06330  0.86040  Biso   1.000  H
  H7       1.0000 0.51330  0.43670  0.36040  Biso   1.000  H
  H8       1.0000 0.98670  0.93670  0.13960  Biso   1.000  H
  C13      1.0000 0.56180  0.52330  0.60310  Biso   1.000  C
  C14      1.0000 0.93820  0.02330  0.89690  Biso   1.000  C
  C15      1.0000 0.43820  0.47670  0.39690  Biso   1.000  C
  C16      1.0000 0.06180  0.97670  0.10310  Biso   1.000  C
  C17      1.0000 0.60190  0.54120  0.56010  Biso   1.000  C
  C18      1.0000 0.89810  0.04120  0.93990  Biso   1.000  C
  C19      1.0000 0.39810  0.45880  0.43990  Biso   1.000  C
  C20      1.0000 0.10190  0.95880  0.06010  Biso   1.000  C
  H9       1.0000 0.63430  0.50920  0.55350  Biso   1.000  H
  H10      1.0000 0.86570  0.00920  0.94650  Biso   1.000  H
  H11      1.0000 0.36570  0.49080  0.44650  Biso   1.000  H
  H12      1.0000 0.13430  0.99080  0.05350  Biso   1.000  H
  C21      1.0000 0.59540  0.60390  0.52690  Biso   1.000  C
  C22      1.0000 0.90460  0.10390  0.97310  Biso   1.000  C
  C23      1.0000 0.40460  0.39610  0.47310  Biso   1.000  C
  C24      1.0000 0.09540  0.89610  0.02690  Biso   1.000  C
  C25      1.0000 0.56910  0.45480  0.63920  Biso   1.000  C
  C26      1.0000 0.93090  0.95480  0.86080  Biso   1.000  C
  C27      1.0000 0.43090  0.54520  0.36080  Biso   1.000  C
  C28      1.0000 0.06910  0.04520  0.13920  Biso   1.000  C
  H13      1.0000 0.57790  0.42160  0.60780  Biso   1.000  H
  H14      1.0000 0.92210  0.92160  0.89220  Biso   1.000  H
  H15      1.0000 0.42210  0.57840  0.39220  Biso   1.000  H
  H16      1.0000 0.07790  0.07840  0.10780  Biso   1.000  H
  H17      1.0000 0.52080  0.44440  0.64210  Biso   1.000  H
  H18      1.0000 0.97920  0.94440  0.85790  Biso   1.000  H
  H19      1.0000 0.47920  0.55560  0.35790  Biso   1.000  H
  H20      1.0000 0.02080  0.05560  0.14210  Biso   1.000  H
  H21      1.0000 0.61300  0.45470  0.69050  Biso   1.000  H
  H22      1.0000 0.88700  0.95470  0.80950  Biso   1.000  H
  H23      1.0000 0.38700  0.54530  0.30950  Biso   1.000  H
  H24      1.0000 0.11300  0.04530  0.19050  Biso   1.000  H
  C29      1.0000 0.63900  0.61350  0.48190  Biso   1.000  C
  C30      1.0000 0.86100  0.11350  0.01810  Biso   1.000  C
  C31      1.0000 0.36100  0.38650  0.51810  Biso   1.000  C
  C32      1.0000 0.13900  0.88650  0.98190  Biso   1.000  C
  H25      1.0000 0.67140  0.57820  0.48190  Biso   1.000  H
  H26      1.0000 0.82860  0.07820  0.01810  Biso   1.000  H
  H27      1.0000 0.32860  0.42180  0.51810  Biso   1.000  H
  H28      1.0000 0.17140  0.92180  0.98190  Biso   1.000  H
  C33      1.0000 0.68190  0.66970  0.39830  Biso   1.000  C
  C34      1.0000 0.81810  0.16970  0.10170  Biso   1.000  C
  C35      1.0000 0.31810  0.33030  0.60170  Biso   1.000  C
  C36      1.0000 0.18190  0.83030  0.89830  Biso   1.000  C
  H29      1.0000 0.69670  0.62520  0.38900  Biso   1.000  H
  H30      1.0000 0.80330  0.12520  0.11100  Biso   1.000  H
  H31      1.0000 0.30330  0.37480  0.61100  Biso   1.000  H
  H32      1.0000 0.19670  0.87480  0.88900  Biso   1.000  H
  H33      1.0000 0.73000  0.69590  0.42650  Biso   1.000  H
  H34      1.0000 0.77000  0.19590  0.07350  Biso   1.000  H
  H35      1.0000 0.27000  0.30410  0.57350  Biso   1.000  H
  H36      1.0000 0.23000  0.80410  0.92650  Biso   1.000  H
  C37      1.0000 0.62840  0.70360  0.32190  Biso   1.000  C
  C38      1.0000 0.87160  0.20360  0.17810  Biso   1.000  C
  C39      1.0000 0.37160  0.29640  0.67810  Biso   1.000  C
  C40      1.0000 0.12840  0.79640  0.82190  Biso   1.000  C
  H37      1.0000 0.65920  0.71880  0.29620  Biso   1.000  H
  H38      1.0000 0.84080  0.21880  0.20380  Biso   1.000  H
  H39      1.0000 0.34080  0.28120  0.70380  Biso   1.000  H
  H40      1.0000 0.15920  0.78120  0.79620  Biso   1.000  H
  H41      1.0000 0.58790  0.67250  0.28770  Biso   1.000  H
  H42      1.0000 0.91210  0.17250  0.21230  Biso   1.000  H
  H43      1.0000 0.41210  0.32750  0.71230  Biso   1.000  H
  H44      1.0000 0.08790  0.82750  0.78770  Biso   1.000  H
  C41      1.0000 0.57550  0.81590  0.30170  Biso   1.000  C
  C42      1.0000 0.92450  0.31590  0.19830  Biso   1.000  C
  C43      1.0000 0.42450  0.18410  0.69830  Biso   1.000  C
  C44      1.0000 0.07550  0.68410  0.80170  Biso   1.000  C
  H45      1.0000 0.58860  0.81760  0.26080  Biso   1.000  H
  H46      1.0000 0.91140  0.31760  0.23920  Biso   1.000  H
  H47      1.0000 0.41140  0.18240  0.73920  Biso   1.000  H
  H48      1.0000 0.08860  0.68240  0.76080  Biso   1.000  H
  C45      1.0000 0.53920  0.87530  0.31580  Biso   1.000  C
  C46      1.0000 0.96080  0.37530  0.18420  Biso   1.000  C
  C47      1.0000 0.46080  0.12470  0.68420  Biso   1.000  C
  C48      1.0000 0.03920  0.62470  0.81580  Biso   1.000  C
  C49      1.0000 0.53650  0.93150  0.27090  Biso   1.000  C
  C50      1.0000 0.96350  0.43150  0.22910  Biso   1.000  C
  C51      1.0000 0.46350  0.06850  0.72910  Biso   1.000  C
  C52      1.0000 0.03650  0.56850  0.77090  Biso   1.000  C
  H49      1.0000 0.55810  0.92820  0.23630  Biso   1.000  H
  H50      1.0000 0.94190  0.42820  0.26370  Biso   1.000  H
  H51      1.0000 0.44190  0.07180  0.76370  Biso   1.000  H
  H52      1.0000 0.05810  0.57180  0.73630  Biso   1.000  H
  C53      1.0000 0.50270  0.99180  0.27640  Biso   1.000  C
  C54      1.0000 0.99730  0.49180  0.22360  Biso   1.000  C
  C55      1.0000 0.49730  0.00820  0.72360  Biso   1.000  C
  C56      1.0000 0.00270  0.50820  0.77640  Biso   1.000  C
  C57      1.0000 0.46930  0.99310  0.32630  Biso   1.000  C
  C58      1.0000 0.03070  0.49310  0.17370  Biso   1.000  C
  C59      1.0000 0.53070  0.00690  0.67370  Biso   1.000  C
  C60      1.0000 0.96930  0.50690  0.82630  Biso   1.000  C
  H53      1.0000 0.44470  0.03260  0.32970  Biso   1.000  H
  H54      1.0000 0.05530  0.53260  0.17030  Biso   1.000  H
  H55      1.0000 0.55530  0.96740  0.67030  Biso   1.000  H
  H56      1.0000 0.94470  0.46740  0.82970  Biso   1.000  H
  C61      1.0000 0.47010  0.93860  0.37220  Biso   1.000  C
  C62      1.0000 0.02990  0.43860  0.12780  Biso   1.000  C
  C63      1.0000 0.52990  0.06140  0.62780  Biso   1.000  C
  C64      1.0000 0.97010  0.56140  0.87220  Biso   1.000  C
  C65      1.0000 0.50810  0.87790  0.36990  Biso   1.000  C
  C66      1.0000 0.99190  0.37790  0.13010  Biso   1.000  C
  C67      1.0000 0.49190  0.12210  0.63010  Biso   1.000  C
  C68      1.0000 0.00810  0.62210  0.86990  Biso   1.000  C
  C69      1.0000 0.50220  0.05270  0.22890  Biso   1.000  C
  C70      1.0000 0.99780  0.55270  0.27110  Biso   1.000  C
  C71      1.0000 0.49780  0.94730  0.77110  Biso   1.000  C
  C72      1.0000 0.00220  0.44730  0.72890  Biso   1.000  C
  H57      1.0000 0.54930  0.07890  0.25790  Biso   1.000  H
  H58      1.0000 0.95070  0.57890  0.24210  Biso   1.000  H
  H59      1.0000 0.45070  0.92110  0.74210  Biso   1.000  H
  H60      1.0000 0.04930  0.42110  0.75790  Biso   1.000  H
  H61      1.0000 0.45600  0.07960  0.21790  Biso   1.000  H
  H62      1.0000 0.04400  0.57960  0.28210  Biso   1.000  H
  H63      1.0000 0.54400  0.92040  0.78210  Biso   1.000  H
  H64      1.0000 0.95600  0.42040  0.71790  Biso   1.000  H
  H65      1.0000 0.50090  0.03820  0.18100  Biso   1.000  H
  H66      1.0000 0.99910  0.53820  0.31900  Biso   1.000  H
  H67      1.0000 0.49910  0.96180  0.81900  Biso   1.000  H
  H68      1.0000 0.00090  0.46180  0.68100  Biso   1.000  H
  C73      1.0000 0.43060  0.95130  0.42040  Biso   1.000  C
  C74      1.0000 0.06940  0.45130  0.07960  Biso   1.000  C
  C75      1.0000 0.56940  0.04870  0.57960  Biso   1.000  C
  C76      1.0000 0.93060  0.54870  0.92040  Biso   1.000  C
  H69      1.0000 0.41320  0.99510  0.42050  Biso   1.000  H
  H70      1.0000 0.08680  0.49510  0.07950  Biso   1.000  H
  H71      1.0000 0.58680  0.00490  0.57950  Biso   1.000  H
  H72      1.0000 0.91320  0.50490  0.92050  Biso   1.000  H
  C77      1.0000 0.37500  0.93500  0.50500  Biso   1.000  C
  C78      1.0000 0.12500  0.43500  0.99500  Biso   1.000  C
  C79      1.0000 0.62500  0.06500  0.49500  Biso   1.000  C
  C80      1.0000 0.87500  0.56500  0.00500  Biso   1.000  C
  H73      1.0000 0.40790  0.93010  0.56060  Biso   1.000  H
  H74      1.0000 0.09210  0.43010  0.93940  Biso   1.000  H
  H75      1.0000 0.59210  0.06990  0.43940  Biso   1.000  H
  H76      1.0000 0.90790  0.56990  0.06060  Biso   1.000  H
  H77      1.0000 0.36350  0.98250  0.49350  Biso   1.000  H
  H78      1.0000 0.13650  0.48250  0.00650  Biso   1.000  H
  H79      1.0000 0.63650  0.01750  0.50650  Biso   1.000  H
  H80      1.0000 0.86350  0.51750  0.99350  Biso   1.000  H
  C81      1.0000 0.30010  0.89730  0.48050  Biso   1.000  C
  C82      1.0000 0.19990  0.39730  0.01950  Biso   1.000  C
  C83      1.0000 0.69990  0.10270  0.51950  Biso   1.000  C
  C84      1.0000 0.80010  0.60270  0.98050  Biso   1.000  C
  H81      1.0000 0.27690  0.90880  0.51450  Biso   1.000  H
  H82      1.0000 0.22310  0.40880  0.98550  Biso   1.000  H
  H83      1.0000 0.72310  0.09120  0.48550  Biso   1.000  H
  H84      1.0000 0.77690  0.59120  0.01450  Biso   1.000  H
  H85      1.0000 0.26290  0.91080  0.42810  Biso   1.000  H
  H86      1.0000 0.23710  0.41080  0.07190  Biso   1.000  H
  H87      1.0000 0.73710  0.08920  0.57190  Biso   1.000  H
  H88      1.0000 0.76290  0.58920  0.92810  Biso   1.000  H
  C85      1.0000 0.45750  0.68410  0.59810  Biso   1.000  C
  C86      1.0000 0.04250  0.18410  0.90190  Biso   1.000  C
  C87      1.0000 0.54250  0.31590  0.40190  Biso   1.000  C
  C88      1.0000 0.95750  0.81590  0.09810  Biso   1.000  C
  H89      1.0000 0.43930  0.66700  0.63190  Biso   1.000  H
  H90      1.0000 0.06070  0.16700  0.86810  Biso   1.000  H
  H91      1.0000 0.56070  0.33300  0.36810  Biso   1.000  H
  H92      1.0000 0.93930  0.83300  0.13190  Biso   1.000  H
  C89      1.0000 0.32970  0.72580  0.32280  Biso   1.000  C
  C90      1.0000 0.17030  0.22580  0.17720  Biso   1.000  C
  C91      1.0000 0.67030  0.27420  0.67720  Biso   1.000  C
  C92      1.0000 0.82970  0.77420  0.82280  Biso   1.000  C
  C93      1.0000 0.62350  0.83690  0.63700  Biso   1.000  C
  C94      1.0000 0.87650  0.33690  0.86300  Biso   1.000  C
  C95      1.0000 0.37650  0.16310  0.36300  Biso   1.000  C
  C96      1.0000 0.12350  0.66310  0.13700  Biso   1.000  C
  C97      1.0000 0.71840  0.80470  0.58540  Biso   1.000  C
  C98      1.0000 0.78160  0.30470  0.91460  Biso   1.000  C
  C99      1.0000 0.28160  0.19530  0.41460  Biso   1.000  C
  C100     1.0000 0.21840  0.69530  0.08540  Biso   1.000  C
  C101     1.0000 0.75240  0.91080  0.67560  Biso   1.000  C
  C102     1.0000 0.74760  0.41080  0.82440  Biso   1.000  C
  C103     1.0000 0.24760  0.08920  0.32440  Biso   1.000  C
  C104     1.0000 0.25240  0.58920  0.17560  Biso   1.000  C
  C105     1.0000 0.86180  0.82350  0.71530  Biso   1.000  C
  C106     1.0000 0.63820  0.32350  0.78470  Biso   1.000  C
  C107     1.0000 0.13820  0.17650  0.28470  Biso   1.000  C
  C108     1.0000 0.36180  0.67650  0.21530  Biso   1.000  C
  C109     1.0000 0.73020  0.87370  0.78750  Biso   1.000  C
  C110     1.0000 0.76980  0.37370  0.71250  Biso   1.000  C
  C111     1.0000 0.26980  0.12630  0.21250  Biso   1.000  C
  C112     1.0000 0.23020  0.62630  0.28750  Biso   1.000  C
  C113     1.0000 0.81730  0.68490  0.65340  Biso   1.000  C
  C114     1.0000 0.68270  0.18490  0.84660  Biso   1.000  C
  C115     1.0000 0.18270  0.31510  0.34660  Biso   1.000  C
  C116     1.0000 0.31730  0.81510  0.15340  Biso   1.000  C
  H93      1.0000 0.83620  0.71880  0.63290  Biso   1.000  H
  H94      1.0000 0.66380  0.21880  0.86710  Biso   1.000  H
  H95      1.0000 0.16380  0.28120  0.36710  Biso   1.000  H
  H96      1.0000 0.33620  0.78120  0.13290  Biso   1.000  H
  C117     1.0000 0.83730  0.61970  0.64750  Biso   1.000  C
  C118     1.0000 0.66270  0.11970  0.85250  Biso   1.000  C
  C119     1.0000 0.16270  0.38030  0.35250  Biso   1.000  C
  C120     1.0000 0.33730  0.88030  0.14750  Biso   1.000  C
  H97      1.0000 0.86800  0.60960  0.62260  Biso   1.000  H
  H98      1.0000 0.63200  0.10960  0.87740  Biso   1.000  H
  H99      1.0000 0.13200  0.39040  0.37740  Biso   1.000  H
  H100     1.0000 0.36800  0.89040  0.12260  Biso   1.000  H
  C121     1.0000 0.81090  0.56890  0.67920  Biso   1.000  C
  C122     1.0000 0.68910  0.06890  0.82080  Biso   1.000  C
  C123     1.0000 0.18910  0.43110  0.32080  Biso   1.000  C
  C124     1.0000 0.31090  0.93110  0.17920  Biso   1.000  C
  H101     1.0000 0.82470  0.52430  0.67690  Biso   1.000  H
  H102     1.0000 0.67530  0.02430  0.82310  Biso   1.000  H
  H103     1.0000 0.17530  0.47570  0.32310  Biso   1.000  H
  H104     1.0000 0.32470  0.97570  0.17690  Biso   1.000  H
  C125     1.0000 0.76430  0.58510  0.71410  Biso   1.000  C
  C126     1.0000 0.73570  0.08510  0.78590  Biso   1.000  C
  C127     1.0000 0.23570  0.41490  0.28590  Biso   1.000  C
  C128     1.0000 0.26430  0.91490  0.21410  Biso   1.000  C
  H105     1.0000 0.74600  0.55160  0.73560  Biso   1.000  H
  H106     1.0000 0.75400  0.05160  0.76440  Biso   1.000  H
  H107     1.0000 0.25400  0.44840  0.26440  Biso   1.000  H
  H108     1.0000 0.24600  0.94840  0.23560  Biso   1.000  H
  C129     1.0000 0.74470  0.65170  0.71720  Biso   1.000  C
  C130     1.0000 0.75530  0.15170  0.78280  Biso   1.000  C
  C131     1.0000 0.25530  0.34830  0.28280  Biso   1.000  C
  C132     1.0000 0.24470  0.84830  0.21720  Biso   1.000  C
  C133     1.0000 0.69130  0.67270  0.74800  Biso   1.000  C
  C134     1.0000 0.80870  0.17270  0.75200  Biso   1.000  C
  C135     1.0000 0.30870  0.32730  0.25200  Biso   1.000  C
  C136     1.0000 0.19130  0.82730  0.24800  Biso   1.000  C
  C137     1.0000 0.65550  0.62860  0.77950  Biso   1.000  C
  C138     1.0000 0.84450  0.12860  0.72050  Biso   1.000  C
  C139     1.0000 0.34450  0.37140  0.22050  Biso   1.000  C
  C140     1.0000 0.15550  0.87140  0.27950  Biso   1.000  C
  H109     1.0000 0.66720  0.58280  0.78320  Biso   1.000  H
  H110     1.0000 0.83280  0.08280  0.71680  Biso   1.000  H
  H111     1.0000 0.33280  0.41720  0.21680  Biso   1.000  H
  H112     1.0000 0.16720  0.91720  0.28320  Biso   1.000  H
  C141     1.0000 0.60330  0.65270  0.80500  Biso   1.000  C
  C142     1.0000 0.89670  0.15270  0.69500  Biso   1.000  C
  C143     1.0000 0.39670  0.34730  0.19500  Biso   1.000  C
  C144     1.0000 0.10330  0.84730  0.30500  Biso   1.000  C
  H113     1.0000 0.58040  0.62340  0.82660  Biso   1.000  H
  H114     1.0000 0.91960  0.12340  0.67340  Biso   1.000  H
  H115     1.0000 0.41960  0.37660  0.17340  Biso   1.000  H
  H116     1.0000 0.08040  0.87660  0.32660  Biso   1.000  H
  C145     1.0000 0.58510  0.71920  0.79880  Biso   1.000  C
  C146     1.0000 0.91490  0.21920  0.70120  Biso   1.000  C
  C147     1.0000 0.41490  0.28080  0.20120  Biso   1.000  C
  C148     1.0000 0.08510  0.78080  0.29880  Biso   1.000  C
  H117     1.0000 0.54870  0.73590  0.81450  Biso   1.000  H
  H118     1.0000 0.95130  0.23590  0.68550  Biso   1.000  H
  H119     1.0000 0.45130  0.26410  0.18550  Biso   1.000  H
  H120     1.0000 0.04870  0.76410  0.31450  Biso   1.000  H
  C149     1.0000 0.62240  0.76210  0.76820  Biso   1.000  C
  C150     1.0000 0.87760  0.26210  0.73180  Biso   1.000  C
  C151     1.0000 0.37760  0.23790  0.23180  Biso   1.000  C
  C152     1.0000 0.12240  0.73790  0.26820  Biso   1.000  C
  H121     1.0000 0.61050  0.80780  0.76440  Biso   1.000  H
  H122     1.0000 0.88950  0.30780  0.73560  Biso   1.000  H
  H123     1.0000 0.38950  0.19220  0.23560  Biso   1.000  H
  H124     1.0000 0.11050  0.69220  0.26440  Biso   1.000  H
  C153     1.0000 0.31510  0.79580  0.55450  Biso   1.000  C
  C154     1.0000 0.18490  0.29580  0.94550  Biso   1.000  C
  C155     1.0000 0.68490  0.20420  0.44550  Biso   1.000  C
  C156     1.0000 0.81510  0.70420  0.05450  Biso   1.000  C
  H125     1.0000 0.28780  0.82520  0.57470  Biso   1.000  H
  H126     1.0000 0.21220  0.32520  0.92530  Biso   1.000  H
  H127     1.0000 0.71220  0.17480  0.42530  Biso   1.000  H
  H128     1.0000 0.78780  0.67480  0.07470  Biso   1.000  H
  H129     1.0000 0.28750  0.75290  0.54200  Biso   1.000  H
  H130     1.0000 0.21250  0.25290  0.95800  Biso   1.000  H
  H131     1.0000 0.71250  0.24710  0.45800  Biso   1.000  H
  H132     1.0000 0.78750  0.74710  0.04200  Biso   1.000  H
  C157     1.0000 0.39760  0.78540  0.61520  Biso   1.000  C
  C158     1.0000 0.10240  0.28540  0.88480  Biso   1.000  C
  C159     1.0000 0.60240  0.21460  0.38480  Biso   1.000  C
  C160     1.0000 0.89760  0.71460  0.11520  Biso   1.000  C
  H133     1.0000 0.39860  0.76100  0.65910  Biso   1.000  H
  H134     1.0000 0.10140  0.26100  0.84090  Biso   1.000  H
  H135     1.0000 0.60140  0.23900  0.34090  Biso   1.000  H
  H136     1.0000 0.89860  0.73900  0.15910  Biso   1.000  H
  H137     1.0000 0.42480  0.82810  0.63340  Biso   1.000  H
  H138     1.0000 0.07520  0.32810  0.86660  Biso   1.000  H
  H139     1.0000 0.57520  0.17190  0.36660  Biso   1.000  H
  H140     1.0000 0.92480  0.67190  0.13340  Biso   1.000  H
  W5       1.0000 0.32896  0.53126  0.79084  Biso   1.000  W
  W6       1.0000 0.17104  0.03126  0.70916  Biso   1.000  W
  W7       1.0000 0.67104  0.46874  0.20916  Biso   1.000  W
  W8       1.0000 0.82896  0.96874  0.29084  Biso   1.000  W
  N53      1.0000 0.45910  0.51530  0.85690  Biso   1.000  N
  N54      1.0000 0.04090  0.01530  0.64310  Biso   1.000  N
  N55      1.0000 0.54090  0.48470  0.14310  Biso   1.000  N
  N56      1.0000 0.95910  0.98470  0.35690  Biso   1.000  N
  N57      1.0000 0.37090  0.59170  0.89770  Biso   1.000  N
  N58      1.0000 0.12910  0.09170  0.60230  Biso   1.000  N
  N59      1.0000 0.62910  0.40830  0.10230  Biso   1.000  N
  N60      1.0000 0.87090  0.90830  0.39770  Biso   1.000  N
  N61      1.0000 0.40880  0.66740  0.75400  Biso   1.000  N
  N62      1.0000 0.09120  0.16740  0.74600  Biso   1.000  N
  N63      1.0000 0.59120  0.33260  0.24600  Biso   1.000  N
  N64      1.0000 0.90880  0.83260  0.25400  Biso   1.000  N
  N65      1.0000 0.36900  0.49420  0.64590  Biso   1.000  N
  N66      1.0000 0.13100  0.99420  0.85410  Biso   1.000  N
  N67      1.0000 0.63100  0.50580  0.35410  Biso   1.000  N
  N68      1.0000 0.86900  0.00580  0.14590  Biso   1.000  N
  N69      1.0000 0.19190  0.65000  0.72140  Biso   1.000  N
  N70      1.0000 0.30810  0.15000  0.77860  Biso   1.000  N
  N71      1.0000 0.80810  0.35000  0.27860  Biso   1.000  N
  N72      1.0000 0.69190  0.85000  0.22140  Biso   1.000  N
  N73      1.0000 0.35300  0.36870  0.82020  Biso   1.000  N
  N74      1.0000 0.14700  0.86870  0.67980  Biso   1.000  N
  N75      1.0000 0.64700  0.63130  0.17980  Biso   1.000  N
  N76      1.0000 0.85300  0.13130  0.32020  Biso   1.000  N
  N77      1.0000 0.21720  0.48460  0.87210  Biso   1.000  N
  N78      1.0000 0.28280  0.98460  0.62790  Biso   1.000  N
  N79      1.0000 0.78280  0.51540  0.12790  Biso   1.000  N
  N80      1.0000 0.71720  0.01540  0.37210  Biso   1.000  N
  N81      1.0000 0.16720  0.46800  0.64740  Biso   1.000  N
  N82      1.0000 0.33280  0.96800  0.85260  Biso   1.000  N
  N83      1.0000 0.83280  0.53200  0.35260  Biso   1.000  N
  N84      1.0000 0.66720  0.03200  0.14740  Biso   1.000  N
  C161     1.0000 0.50250  0.47390  0.83490  Biso   1.000  C
  C162     1.0000 0.99750  0.97390  0.66510  Biso   1.000  C
  C163     1.0000 0.49750  0.52610  0.16510  Biso   1.000  C
  C164     1.0000 0.00250  0.02610  0.33490  Biso   1.000  C
  H141     1.0000 0.47600  0.44870  0.78960  Biso   1.000  H
  H142     1.0000 0.02400  0.94870  0.71040  Biso   1.000  H
  H143     1.0000 0.52400  0.55130  0.21040  Biso   1.000  H
  H144     1.0000 0.97600  0.05130  0.28960  Biso   1.000  H
  C165     1.0000 0.58290  0.46760  0.87580  Biso   1.000  C
  C166     1.0000 0.91710  0.96760  0.62420  Biso   1.000  C
  C167     1.0000 0.41710  0.53240  0.12420  Biso   1.000  C
  C168     1.0000 0.08290  0.03240  0.37580  Biso   1.000  C
  H145     1.0000 0.61040  0.43890  0.85850  Biso   1.000  H
  H146     1.0000 0.88960  0.93890  0.64150  Biso   1.000  H
  H147     1.0000 0.38960  0.56110  0.14150  Biso   1.000  H
  H148     1.0000 0.11040  0.06110  0.35850  Biso   1.000  H
  C169     1.0000 0.62290  0.50390  0.94270  Biso   1.000  C
  C170     1.0000 0.87710  0.00390  0.55730  Biso   1.000  C
  C171     1.0000 0.37710  0.49610  0.05730  Biso   1.000  C
  C172     1.0000 0.12290  0.99610  0.44270  Biso   1.000  C
  H149     1.0000 0.67780  0.49960  0.97170  Biso   1.000  H
  H150     1.0000 0.82220  0.99960  0.52830  Biso   1.000  H
  H151     1.0000 0.32220  0.50040  0.02830  Biso   1.000  H
  H152     1.0000 0.17780  0.00040  0.47170  Biso   1.000  H
  C173     1.0000 0.58130  0.54700  0.96690  Biso   1.000  C
  C174     1.0000 0.91870  0.04700  0.53310  Biso   1.000  C
  C175     1.0000 0.41870  0.45300  0.03310  Biso   1.000  C
  C176     1.0000 0.08130  0.95300  0.46690  Biso   1.000  C
  H153     1.0000 0.60770  0.57180  0.01240  Biso   1.000  H
  H154     1.0000 0.89230  0.07180  0.48760  Biso   1.000  H
  H155     1.0000 0.39230  0.42820  0.98760  Biso   1.000  H
  H156     1.0000 0.10770  0.92820  0.51240  Biso   1.000  H
  C177     1.0000 0.49980  0.55290  0.92240  Biso   1.000  C
  C178     1.0000 0.00020  0.05290  0.57760  Biso   1.000  C
  C179     1.0000 0.50020  0.44710  0.07760  Biso   1.000  C
  C180     1.0000 0.99980  0.94710  0.42240  Biso   1.000  C
  C181     1.0000 0.45020  0.59620  0.94530  Biso   1.000  C
  C182     1.0000 0.04980  0.09620  0.55470  Biso   1.000  C
  C183     1.0000 0.54980  0.40380  0.05470  Biso   1.000  C
  C184     1.0000 0.95020  0.90380  0.44530  Biso   1.000  C
  C185     1.0000 0.48250  0.63670  0.01010  Biso   1.000  C
  C186     1.0000 0.01750  0.13670  0.48990  Biso   1.000  C
  C187     1.0000 0.51750  0.36330  0.98990  Biso   1.000  C
  C188     1.0000 0.98250  0.86330  0.51010  Biso   1.000  C
  H157     1.0000 0.53750  0.63860  0.04040  Biso   1.000  H
  H158     1.0000 0.96250  0.13860  0.45960  Biso   1.000  H
  H159     1.0000 0.46250  0.36140  0.95960  Biso   1.000  H
  H160     1.0000 0.03750  0.86140  0.54040  Biso   1.000  H
  C189     1.0000 0.43330  0.67450  0.02990  Biso   1.000  C
  C190     1.0000 0.06670  0.17450  0.47010  Biso   1.000  C
  C191     1.0000 0.56670  0.32550  0.97010  Biso   1.000  C
  C192     1.0000 0.93330  0.82550  0.52990  Biso   1.000  C
  H161     1.0000 0.45420  0.70160  0.07400  Biso   1.000  H
  H162     1.0000 0.04580  0.20160  0.42600  Biso   1.000  H
  H163     1.0000 0.54580  0.29840  0.92600  Biso   1.000  H
  H164     1.0000 0.95420  0.79840  0.57400  Biso   1.000  H
  C193     1.0000 0.35220  0.67110  0.98280  Biso   1.000  C
  C194     1.0000 0.14780  0.17110  0.51720  Biso   1.000  C
  C195     1.0000 0.64780  0.32890  0.01720  Biso   1.000  C
  C196     1.0000 0.85220  0.82890  0.48280  Biso   1.000  C
  H165     1.0000 0.31780  0.69640  0.99460  Biso   1.000  H
  H166     1.0000 0.18220  0.19640  0.50540  Biso   1.000  H
  H167     1.0000 0.68220  0.30360  0.00540  Biso   1.000  H
  H168     1.0000 0.81780  0.80360  0.49460  Biso   1.000  H
  C197     1.0000 0.32240  0.63020  0.91820  Biso   1.000  C
  C198     1.0000 0.17760  0.13020  0.58180  Biso   1.000  C
  C199     1.0000 0.67760  0.36980  0.08180  Biso   1.000  C
  C200     1.0000 0.82240  0.86980  0.41820  Biso   1.000  C
  H169     1.0000 0.26760  0.62840  0.88730  Biso   1.000  H
  H170     1.0000 0.23240  0.12840  0.61270  Biso   1.000  H
  H171     1.0000 0.73240  0.37160  0.11270  Biso   1.000  H
  H172     1.0000 0.76760  0.87160  0.38730  Biso   1.000  H
  C201     1.0000 0.37980  0.62020  0.76460  Biso   1.000  C
  C202     1.0000 0.12020  0.12020  0.73540  Biso   1.000  C
  C203     1.0000 0.62020  0.37980  0.23540  Biso   1.000  C
  C204     1.0000 0.87980  0.87980  0.26460  Biso   1.000  C
  C205     1.0000 0.35340  0.50680  0.69560  Biso   1.000  C
  C206     1.0000 0.14660  0.00680  0.80440  Biso   1.000  C
  C207     1.0000 0.64660  0.49320  0.30440  Biso   1.000  C
  C208     1.0000 0.85340  0.99320  0.19560  Biso   1.000  C
  C209     1.0000 0.23840  0.60730  0.74550  Biso   1.000  C
  C210     1.0000 0.26160  0.10730  0.75450  Biso   1.000  C
  C211     1.0000 0.76160  0.39270  0.25450  Biso   1.000  C
  C212     1.0000 0.73840  0.89270  0.24550  Biso   1.000  C
  C213     1.0000 0.34310  0.42620  0.80850  Biso   1.000  C
  C214     1.0000 0.15690  0.92620  0.69150  Biso   1.000  C
  C215     1.0000 0.65690  0.57380  0.19150  Biso   1.000  C
  C216     1.0000 0.84310  0.07380  0.30850  Biso   1.000  C
  C217     1.0000 0.25430  0.50210  0.84190  Biso   1.000  C
  C218     1.0000 0.24570  0.00210  0.65810  Biso   1.000  C
  C219     1.0000 0.74570  0.49790  0.15810  Biso   1.000  C
  C220     1.0000 0.75430  0.99790  0.34190  Biso   1.000  C
  C221     1.0000 0.22330  0.49070  0.69700  Biso   1.000  C
  C222     1.0000 0.27670  0.99070  0.80300  Biso   1.000  C
  C223     1.0000 0.77670  0.50930  0.30300  Biso   1.000  C
  C224     1.0000 0.72330  0.00930  0.19700  Biso   1.000  C
  N85      1.0000 0.48540  0.80310  0.88630  Biso   1.000  N
  N86      1.0000 0.01460  0.30310  0.61370  Biso   1.000  N
  N87      1.0000 0.51460  0.19690  0.11370  Biso   1.000  N
  N88      1.0000 0.98540  0.69690  0.38630  Biso   1.000  N
  C225     1.0000 0.33390  0.80590  0.80040  Biso   1.000  C
  C226     1.0000 0.16610  0.30590  0.69960  Biso   1.000  C
  C227     1.0000 0.66610  0.19410  0.19960  Biso   1.000  C
  C228     1.0000 0.83390  0.69410  0.30040  Biso   1.000  C
  H173     1.0000 0.30780  0.81670  0.83150  Biso   1.000  H
  H174     1.0000 0.19220  0.31670  0.66850  Biso   1.000  H
  H175     1.0000 0.69220  0.18330  0.16850  Biso   1.000  H
  H176     1.0000 0.80780  0.68330  0.33150  Biso   1.000  H
  H177     1.0000 0.31630  0.76260  0.77670  Biso   1.000  H
  H178     1.0000 0.18370  0.26260  0.72330  Biso   1.000  H
  H179     1.0000 0.68370  0.23740  0.22330  Biso   1.000  H
  H180     1.0000 0.81630  0.73740  0.27670  Biso   1.000  H
  H181     1.0000 0.32110  0.83940  0.76060  Biso   1.000  H
  H182     1.0000 0.17890  0.33940  0.73940  Biso   1.000  H
  H183     1.0000 0.67890  0.16060  0.23940  Biso   1.000  H
  H184     1.0000 0.82110  0.66060  0.26060  Biso   1.000  H
  C229     1.0000 0.41480  0.80460  0.84660  Biso   1.000  C
  C230     1.0000 0.08520  0.30460  0.65340  Biso   1.000  C
  C231     1.0000 0.58520  0.19540  0.15340  Biso   1.000  C
  C232     1.0000 0.91480  0.69540  0.34660  Biso   1.000  C
  N89      1.0000 0.15780  0.49490  0.46890  Biso   1.000  N
  N90      1.0000 0.34220  0.99490  0.03110  Biso   1.000  N
  N91      1.0000 0.84220  0.50510  0.53110  Biso   1.000  N
  N92      1.0000 0.65780  0.00510  0.96890  Biso   1.000  N
  C233     1.0000 0.23440  0.61120  0.51170  Biso   1.000  C
  C234     1.0000 0.26560  0.11120  0.98830  Biso   1.000  C
  C235     1.0000 0.76560  0.38880  0.48830  Biso   1.000  C
  C236     1.0000 0.73440  0.88880  0.01170  Biso   1.000  C
  H185     1.0000 0.22800  0.62820  0.55510  Biso   1.000  H
  H186     1.0000 0.27200  0.12820  0.94490  Biso   1.000  H
  H187     1.0000 0.77200  0.37180  0.44490  Biso   1.000  H
  H188     1.0000 0.72800  0.87180  0.05510  Biso   1.000  H
  H189     1.0000 0.21520  0.64390  0.47060  Biso   1.000  H
  H190     1.0000 0.28480  0.14390  0.02940  Biso   1.000  H
  H191     1.0000 0.78480  0.35610  0.52940  Biso   1.000  H
  H192     1.0000 0.71520  0.85610  0.97060  Biso   1.000  H
  H193     1.0000 0.28970  0.60240  0.52770  Biso   1.000  H
  H194     1.0000 0.21030  0.10240  0.97230  Biso   1.000  H
  H195     1.0000 0.71030  0.39760  0.47230  Biso   1.000  H
  H196     1.0000 0.78970  0.89760  0.02770  Biso   1.000  H
  C237     1.0000 0.18880  0.54870  0.48370  Biso   1.000  C
  C238     1.0000 0.31120  0.04870  0.01630  Biso   1.000  C
  C239     1.0000 0.81120  0.45130  0.51630  Biso   1.000  C
  C240     1.0000 0.68880  0.95130  0.98370  Biso   1.000  C
  N93      1.0000 0.91810  0.66540  0.54020  Biso   1.000  N
  N94      1.0000 0.58190  0.16540  0.95980  Biso   1.000  N
  N95      1.0000 0.08190  0.33460  0.45980  Biso   1.000  N
  N96      1.0000 0.41810  0.83460  0.04020  Biso   1.000  N
  C241     1.0000 0.00450  0.58400  0.53200  Biso   1.000  C
  C242     1.0000 0.49550  0.08400  0.96800  Biso   1.000  C
  C243     1.0000 0.99550  0.41600  0.46800  Biso   1.000  C
  C244     1.0000 0.50450  0.91600  0.03200  Biso   1.000  C
  H197     1.0000 0.96920  0.56440  0.48270  Biso   1.000  H
  H198     1.0000 0.53080  0.06440  0.01730  Biso   1.000  H
  H199     1.0000 0.03080  0.43560  0.51730  Biso   1.000  H
  H200     1.0000 0.46920  0.93560  0.98270  Biso   1.000  H
  H201     1.0000 0.02150  0.55000  0.57160  Biso   1.000  H
  H202     1.0000 0.47850  0.05000  0.92840  Biso   1.000  H
  H203     1.0000 0.97850  0.45000  0.42840  Biso   1.000  H
  H204     1.0000 0.52150  0.95000  0.07160  Biso   1.000  H
  H205     1.0000 0.05010  0.60250  0.52920  Biso   1.000  H
  H206     1.0000 0.44990  0.10250  0.97080  Biso   1.000  H
  H207     1.0000 0.94990  0.39750  0.47080  Biso   1.000  H
  H208     1.0000 0.55010  0.89750  0.02920  Biso   1.000  H
  C245     1.0000 0.96540  0.63430  0.54980  Biso   1.000  C
  C246     1.0000 0.53460  0.13430  0.95020  Biso   1.000  C
  C247     1.0000 0.03460  0.36570  0.45020  Biso   1.000  C
  C248     1.0000 0.46540  0.86570  0.04980  Biso   1.000  C
  O9       1.0000 0.12770  0.77830  0.49280  Biso   1.000  O
  O10      1.0000 0.37230  0.27830  0.00720  Biso   1.000  O
  O11      1.0000 0.87230  0.22170  0.50720  Biso   1.000  O
  O12      1.0000 0.62770  0.72170  0.99280  Biso   1.000  O
  H209     1.0000 0.16470  0.78530  0.47810  Biso   1.000  H
  H210     1.0000 0.33530  0.28530  0.02190  Biso   1.000  H
  H211     1.0000 0.83530  0.21470  0.52190  Biso   1.000  H
  H212     1.0000 0.66470  0.71470  0.97810  Biso   1.000  H
  H213     1.0000 0.08170  0.75960  0.47140  Biso   1.000  H
  H214     1.0000 0.41830  0.25960  0.02860  Biso   1.000  H
  H215     1.0000 0.91830  0.24040  0.52860  Biso   1.000  H
  H216     1.0000 0.58170  0.74040  0.97140  Biso   1.000  H
  H217     1.0000 0.27780  0.81720  0.42640  Biso   1.000  H
  H218     1.0000 0.22220  0.31720  0.07360  Biso   1.000  H
  H219     1.0000 0.72220  0.18280  0.57360  Biso   1.000  H
  H220     1.0000 0.77780  0.68280  0.92640  Biso   1.000  H
  C249     1.0000 0.28580  0.76850  0.51300  Biso   1.000  C
  C250     1.0000 0.21420  0.26850  0.98700  Biso   1.000  C
  C251     1.0000 0.71420  0.23150  0.48700  Biso   1.000  C
  C252     1.0000 0.78580  0.73150  0.01300  Biso   1.000  C
  H221     1.0000 0.27270  0.72920  0.47950  Biso   1.000  H
  H222     1.0000 0.22730  0.22920  0.02050  Biso   1.000  H
  H223     1.0000 0.72730  0.27080  0.52050  Biso   1.000  H
  H224     1.0000 0.77270  0.77080  0.97950  Biso   1.000  H
  H225     1.0000 0.24240  0.77930  0.52470  Biso   1.000  H
  H226     1.0000 0.25760  0.27930  0.97530  Biso   1.000  H
  H227     1.0000 0.75760  0.22070  0.47530  Biso   1.000  H
  H228     1.0000 0.74240  0.72070  0.02470  Biso   1.000  H
  C253     1.0000 0.36330  0.76270  0.58300  Biso   1.000  C
  C254     1.0000 0.13670  0.26270  0.91700  Biso   1.000  C
  C255     1.0000 0.63670  0.23730  0.41700  Biso   1.000  C
  C256     1.0000 0.86330  0.73730  0.08300  Biso   1.000  C
  H229     1.0000 0.35730  0.72930  0.61650  Biso   1.000  H
  H230     1.0000 0.14270  0.22930  0.88350  Biso   1.000  H
  H231     1.0000 0.64270  0.27070  0.38350  Biso   1.000  H
  H232     1.0000 0.85730  0.77070  0.11650  Biso   1.000  H
  H233     1.0000 0.37370  0.80540  0.61000  Biso   1.000  H
  H234     1.0000 0.12630  0.30540  0.89000  Biso   1.000  H
  H235     1.0000 0.62630  0.19460  0.39000  Biso   1.000  H
  H236     1.0000 0.87370  0.69460  0.11000  Biso   1.000  H
  W9       1.0000 0.32290  0.54510  0.77520  Biso   1.000  W
  W10      1.0000 0.17710  0.04510  0.72480  Biso   1.000  W
  W11      1.0000 0.67710  0.45490  0.22480  Biso   1.000  W
  W12      1.0000 0.82290  0.95490  0.27520  Biso   1.000  W
  O13      1.0000 0.14250  0.73850  0.57910  Biso   1.000  O
  O14      1.0000 0.35750  0.23850  0.92090  Biso   1.000  O
  O15      1.0000 0.85750  0.26150  0.42090  Biso   1.000  O
  O16      1.0000 0.64250  0.76150  0.07910  Biso   1.000  O
  H237     1.0000 0.16430  0.71640  0.62200  Biso   1.000  H
  H238     1.0000 0.33570  0.21640  0.87800  Biso   1.000  H
  H239     1.0000 0.83570  0.28360  0.37800  Biso   1.000  H
  H240     1.0000 0.66430  0.78360  0.12200  Biso   1.000  H
  H241     1.0000 0.15830  0.77790  0.59810  Biso   1.000  H
  H242     1.0000 0.34170  0.27790  0.90190  Biso   1.000  H
  H243     1.0000 0.84170  0.22210  0.40190  Biso   1.000  H
  H244     1.0000 0.65830  0.72210  0.09810  Biso   1.000  H
