data_image0
_cell_length_a       14.576
_cell_length_b       9.808
_cell_length_c       13.428
_cell_angle_alpha    90
_cell_angle_beta     113.456
_cell_angle_gamma    90

_symmetry_space_group_name_H-M    "P 1"
_symmetry_int_tables_number       1

loop_
  _symmetry_equiv_pos_as_xyz
  'x, y, z'

loop_
  _atom_site_label
  _atom_site_occupancy
  _atom_site_fract_x
  _atom_site_fract_y
  _atom_site_fract_z
  _atom_site_thermal_displace_type
  _atom_site_B_iso_or_equiv
  _atom_site_type_symbol
  Cu1      1.0000 0.50000  0.50000  0.50000  Biso   1.000  Cu
  Cu2      1.0000 0.50000  0.50000  0.00000  Biso   1.000  Cu
  Cu3      1.0000 0.00000  0.00000  0.50000  Biso   1.000  Cu
  Cu4      1.0000 0.00000  0.00000  0.00000  Biso   1.000  Cu
  N1       1.0000 0.39343  0.39320  0.38270  Biso   1.000  N
  N2       1.0000 0.60657  0.39320  0.11730  Biso   1.000  N
  N3       1.0000 0.89343  0.89320  0.38270  Biso   1.000  N
  N4       1.0000 0.10657  0.89320  0.11730  Biso   1.000  N
  N5       1.0000 0.60657  0.60680  0.61730  Biso   1.000  N
  N6       1.0000 0.39343  0.60680  0.88270  Biso   1.000  N
  N7       1.0000 0.10657  0.10680  0.61730  Biso   1.000  N
  N8       1.0000 0.89343  0.10680  0.88270  Biso   1.000  N
  N9       1.0000 0.30550  0.30830  0.22100  Biso   1.000  N
  N10      1.0000 0.69450  0.30830  0.27900  Biso   1.000  N
  N11      1.0000 0.80550  0.80830  0.22100  Biso   1.000  N
  N12      1.0000 0.19450  0.80830  0.27900  Biso   1.000  N
  N13      1.0000 0.69450  0.69170  0.77900  Biso   1.000  N
  N14      1.0000 0.30550  0.69170  0.72100  Biso   1.000  N
  N15      1.0000 0.19450  0.19170  0.77900  Biso   1.000  N
  N16      1.0000 0.80550  0.19170  0.72100  Biso   1.000  N
  O1       1.0000 0.45303  0.67210  0.41556  Biso   1.000  O
  O2       1.0000 0.54697  0.67210  0.08444  Biso   1.000  O
  O3       1.0000 0.95303  0.17210  0.41556  Biso   1.000  O
  O4       1.0000 0.04697  0.17210  0.08444  Biso   1.000  O
  O5       1.0000 0.54697  0.32790  0.58444  Biso   1.000  O
  O6       1.0000 0.45303  0.32790  0.91556  Biso   1.000  O
  O7       1.0000 0.04697  0.82790  0.58444  Biso   1.000  O
  O8       1.0000 0.95303  0.82790  0.91556  Biso   1.000  O
  O9       1.0000 0.57172  0.60290  0.36451  Biso   1.000  O
  O10      1.0000 0.42828  0.60290  0.13549  Biso   1.000  O
  O11      1.0000 0.07172  0.10290  0.36451  Biso   1.000  O
  O12      1.0000 0.92828  0.10290  0.13549  Biso   1.000  O
  O13      1.0000 0.42828  0.39710  0.63549  Biso   1.000  O
  O14      1.0000 0.57172  0.39710  0.86451  Biso   1.000  O
  O15      1.0000 0.92828  0.89710  0.63549  Biso   1.000  O
  O16      1.0000 0.07172  0.89710  0.86451  Biso   1.000  O
  C1       1.0000 0.37770  0.39630  0.27860  Biso   1.000  C
  C2       1.0000 0.62230  0.39630  0.22140  Biso   1.000  C
  C3       1.0000 0.87770  0.89630  0.27860  Biso   1.000  C
  C4       1.0000 0.12230  0.89630  0.22140  Biso   1.000  C
  C5       1.0000 0.62230  0.60370  0.72140  Biso   1.000  C
  C6       1.0000 0.37770  0.60370  0.77860  Biso   1.000  C
  C7       1.0000 0.12230  0.10370  0.72140  Biso   1.000  C
  C8       1.0000 0.87770  0.10370  0.77860  Biso   1.000  C
  H1       1.0000 0.41210  0.45210  0.24920  Biso   1.000  H
  H2       1.0000 0.58790  0.45210  0.25080  Biso   1.000  H
  H3       1.0000 0.91210  0.95210  0.24920  Biso   1.000  H
  H4       1.0000 0.08790  0.95210  0.25080  Biso   1.000  H
  H5       1.0000 0.58790  0.54790  0.75080  Biso   1.000  H
  H6       1.0000 0.41210  0.54790  0.74920  Biso   1.000  H
  H7       1.0000 0.08790  0.04790  0.75080  Biso   1.000  H
  H8       1.0000 0.91210  0.04790  0.74920  Biso   1.000  H
  C9       1.0000 0.32720  0.29780  0.39160  Biso   1.000  C
  C10      1.0000 0.67280  0.29780  0.10840  Biso   1.000  C
  C11      1.0000 0.82720  0.79780  0.39160  Biso   1.000  C
  C12      1.0000 0.17280  0.79780  0.10840  Biso   1.000  C
  C13      1.0000 0.67280  0.70220  0.60840  Biso   1.000  C
  C14      1.0000 0.32720  0.70220  0.89160  Biso   1.000  C
  C15      1.0000 0.17280  0.20220  0.60840  Biso   1.000  C
  C16      1.0000 0.82720  0.20220  0.89160  Biso   1.000  C
  H9       1.0000 0.32130  0.27370  0.45580  Biso   1.000  H
  H10      1.0000 0.67870  0.27370  0.04420  Biso   1.000  H
  H11      1.0000 0.82130  0.77370  0.45580  Biso   1.000  H
  H12      1.0000 0.17870  0.77370  0.04420  Biso   1.000  H
  H13      1.0000 0.67870  0.72630  0.54420  Biso   1.000  H
  H14      1.0000 0.32130  0.72630  0.95580  Biso   1.000  H
  H15      1.0000 0.17870  0.22630  0.54420  Biso   1.000  H
  H16      1.0000 0.82130  0.22630  0.95580  Biso   1.000  H
  C17      1.0000 0.27210  0.24470  0.29210  Biso   1.000  C
  C18      1.0000 0.72790  0.24470  0.20790  Biso   1.000  C
  C19      1.0000 0.77210  0.74470  0.29210  Biso   1.000  C
  C20      1.0000 0.22790  0.74470  0.20790  Biso   1.000  C
  C21      1.0000 0.72790  0.75530  0.70790  Biso   1.000  C
  C22      1.0000 0.27210  0.75530  0.79210  Biso   1.000  C
  C23      1.0000 0.22790  0.25530  0.70790  Biso   1.000  C
  C24      1.0000 0.77210  0.25530  0.79210  Biso   1.000  C
  H17      1.0000 0.22220  0.17910  0.27540  Biso   1.000  H
  H18      1.0000 0.77780  0.17910  0.22460  Biso   1.000  H
  H19      1.0000 0.72220  0.67910  0.27540  Biso   1.000  H
  H20      1.0000 0.27780  0.67910  0.22460  Biso   1.000  H
  H21      1.0000 0.77780  0.82090  0.72460  Biso   1.000  H
  H22      1.0000 0.22220  0.82090  0.77540  Biso   1.000  H
  H23      1.0000 0.27780  0.32090  0.72460  Biso   1.000  H
  H24      1.0000 0.72220  0.32090  0.77540  Biso   1.000  H
  C25      1.0000 0.27540  0.27900  0.10760  Biso   1.000  C
  C26      1.0000 0.72460  0.27900  0.39240  Biso   1.000  C
  C27      1.0000 0.77540  0.77900  0.10760  Biso   1.000  C
  C28      1.0000 0.22460  0.77900  0.39240  Biso   1.000  C
  C29      1.0000 0.72460  0.72100  0.89240  Biso   1.000  C
  C30      1.0000 0.27540  0.72100  0.60760  Biso   1.000  C
  C31      1.0000 0.22460  0.22100  0.89240  Biso   1.000  C
  C32      1.0000 0.77540  0.22100  0.60760  Biso   1.000  C
  C33      1.0000 0.26300  0.14390  0.07340  Biso   1.000  C
  C34      1.0000 0.73700  0.14390  0.42660  Biso   1.000  C
  C35      1.0000 0.76300  0.64390  0.07340  Biso   1.000  C
  C36      1.0000 0.23700  0.64390  0.42660  Biso   1.000  C
  C37      1.0000 0.73700  0.85610  0.92660  Biso   1.000  C
  C38      1.0000 0.26300  0.85610  0.57340  Biso   1.000  C
  C39      1.0000 0.23700  0.35610  0.92660  Biso   1.000  C
  C40      1.0000 0.76300  0.35610  0.57340  Biso   1.000  C
  H25      1.0000 0.27190  0.07360  0.12290  Biso   1.000  H
  H26      1.0000 0.72810  0.07360  0.37710  Biso   1.000  H
  H27      1.0000 0.77190  0.57360  0.12290  Biso   1.000  H
  H28      1.0000 0.22810  0.57360  0.37710  Biso   1.000  H
  H29      1.0000 0.72810  0.92640  0.87710  Biso   1.000  H
  H30      1.0000 0.27190  0.92640  0.62290  Biso   1.000  H
  H31      1.0000 0.22810  0.42640  0.87710  Biso   1.000  H
  H32      1.0000 0.77190  0.42640  0.62290  Biso   1.000  H
  C41      1.0000 0.26290  0.38460  0.03600  Biso   1.000  C
  C42      1.0000 0.73710  0.38460  0.46400  Biso   1.000  C
  C43      1.0000 0.76290  0.88460  0.03600  Biso   1.000  C
  C44      1.0000 0.23710  0.88460  0.46400  Biso   1.000  C
  C45      1.0000 0.73710  0.61540  0.96400  Biso   1.000  C
  C46      1.0000 0.26290  0.61540  0.53600  Biso   1.000  C
  C47      1.0000 0.23710  0.11540  0.96400  Biso   1.000  C
  C48      1.0000 0.76290  0.11540  0.53600  Biso   1.000  C
  H33      1.0000 0.27160  0.47430  0.06040  Biso   1.000  H
  H34      1.0000 0.72840  0.47430  0.43960  Biso   1.000  H
  H35      1.0000 0.77160  0.97430  0.06040  Biso   1.000  H
  H36      1.0000 0.22840  0.97430  0.43960  Biso   1.000  H
  H37      1.0000 0.72840  0.52570  0.93960  Biso   1.000  H
  H38      1.0000 0.27160  0.52570  0.56040  Biso   1.000  H
  H39      1.0000 0.22840  0.02570  0.93960  Biso   1.000  H
  H40      1.0000 0.77160  0.02570  0.56040  Biso   1.000  H
  C49      1.0000 0.50780  0.68740  0.36240  Biso   1.000  C
  C50      1.0000 0.49220  0.68740  0.13760  Biso   1.000  C
  C51      1.0000 0.00780  0.18740  0.36240  Biso   1.000  C
  C52      1.0000 0.99220  0.18740  0.13760  Biso   1.000  C
  C53      1.0000 0.49220  0.31260  0.63760  Biso   1.000  C
  C54      1.0000 0.50780  0.31260  0.86240  Biso   1.000  C
  C55      1.0000 0.99220  0.81260  0.63760  Biso   1.000  C
  C56      1.0000 0.00780  0.81260  0.86240  Biso   1.000  C
  C57      1.0000 0.49770  0.81820  0.30100  Biso   1.000  C
  C58      1.0000 0.50230  0.81820  0.19900  Biso   1.000  C
  C59      1.0000 0.99770  0.31820  0.30100  Biso   1.000  C
  C60      1.0000 0.00230  0.31820  0.19900  Biso   1.000  C
  C61      1.0000 0.50230  0.18180  0.69900  Biso   1.000  C
  C62      1.0000 0.49770  0.18180  0.80100  Biso   1.000  C
  C63      1.0000 0.00230  0.68180  0.69900  Biso   1.000  C
  C64      1.0000 0.99770  0.68180  0.80100  Biso   1.000  C
  C65      1.0000 0.49350  0.94050  0.35030  Biso   1.000  C
  C66      1.0000 0.50650  0.94050  0.14970  Biso   1.000  C
  C67      1.0000 0.99350  0.44050  0.35030  Biso   1.000  C
  C68      1.0000 0.00650  0.44050  0.14970  Biso   1.000  C
  C69      1.0000 0.50650  0.05950  0.64970  Biso   1.000  C
  C70      1.0000 0.49350  0.05950  0.85030  Biso   1.000  C
  C71      1.0000 0.00650  0.55950  0.64970  Biso   1.000  C
  C72      1.0000 0.99350  0.55950  0.85030  Biso   1.000  C
  H41      1.0000 0.48880  0.94050  0.41740  Biso   1.000  H
  H42      1.0000 0.51120  0.94050  0.08260  Biso   1.000  H
  H43      1.0000 0.98880  0.44050  0.41740  Biso   1.000  H
  H44      1.0000 0.01120  0.44050  0.08260  Biso   1.000  H
  H45      1.0000 0.51120  0.05950  0.58260  Biso   1.000  H
  H46      1.0000 0.48880  0.05950  0.91740  Biso   1.000  H
  H47      1.0000 0.01120  0.55950  0.58260  Biso   1.000  H
  H48      1.0000 0.98880  0.55950  0.91740  Biso   1.000  H
  H49      1.0000 0.49320  0.14550  0.33330  Biso   1.000  H
  H50      1.0000 0.50680  0.14550  0.16670  Biso   1.000  H
  H51      1.0000 0.99320  0.64550  0.33330  Biso   1.000  H
  H52      1.0000 0.00680  0.64550  0.16670  Biso   1.000  H
  H53      1.0000 0.50680  0.85450  0.66670  Biso   1.000  H
  H54      1.0000 0.49320  0.85450  0.83330  Biso   1.000  H
  H55      1.0000 0.00680  0.35450  0.66670  Biso   1.000  H
  H56      1.0000 0.99320  0.35450  0.83330  Biso   1.000  H
  C73      1.0000 0.49630  0.06360  0.30000  Biso   1.000  C
  C74      1.0000 0.50370  0.06360  0.20000  Biso   1.000  C
  C75      1.0000 0.99630  0.56360  0.30000  Biso   1.000  C
  C76      1.0000 0.00370  0.56360  0.20000  Biso   1.000  C
  C77      1.0000 0.50370  0.93640  0.70000  Biso   1.000  C
  C78      1.0000 0.49630  0.93640  0.80000  Biso   1.000  C
  C79      1.0000 0.00370  0.43640  0.70000  Biso   1.000  C
  C80      1.0000 0.99630  0.43640  0.80000  Biso   1.000  C
