data_image0
_cell_length_a       10.669
_cell_length_b       7.34
_cell_length_c       19.851
_cell_angle_alpha    90
_cell_angle_beta     104.819
_cell_angle_gamma    90

_symmetry_space_group_name_H-M    "P 1"
_symmetry_int_tables_number       1

loop_
  _symmetry_equiv_pos_as_xyz
  'x, y, z'

loop_
  _atom_site_label
  _atom_site_occupancy
  _atom_site_fract_x
  _atom_site_fract_y
  _atom_site_fract_z
  _atom_site_thermal_displace_type
  _atom_site_B_iso_or_equiv
  _atom_site_type_symbol
  Cu1      1.0000 0.57399  0.59218  0.67099  Biso   1.000  Cu
  Cu2      1.0000 0.92601  0.09218  0.82901  Biso   1.000  Cu
  Cu3      1.0000 0.42601  0.40782  0.32901  Biso   1.000  Cu
  Cu4      1.0000 0.07399  0.90782  0.17099  Biso   1.000  Cu
  O1       1.0000 0.45198  0.68950  0.58779  Biso   1.000  O
  O2       1.0000 0.04802  0.18950  0.91221  Biso   1.000  O
  O3       1.0000 0.54802  0.31050  0.41221  Biso   1.000  O
  O4       1.0000 0.95198  0.81050  0.08779  Biso   1.000  O
  O5       1.0000 0.22250  0.78000  0.54397  Biso   1.000  O
  O6       1.0000 0.27750  0.28000  0.95603  Biso   1.000  O
  O7       1.0000 0.77750  0.22000  0.45603  Biso   1.000  O
  O8       1.0000 0.72250  0.72000  0.04397  Biso   1.000  O
  H1       1.0000 0.29580  0.74600  0.56950  Biso   1.000  H
  H2       1.0000 0.20420  0.24600  0.93050  Biso   1.000  H
  H3       1.0000 0.70420  0.25400  0.43050  Biso   1.000  H
  H4       1.0000 0.79580  0.75400  0.06950  Biso   1.000  H
  O9       1.0000 0.14760  0.86460  0.43600  Biso   1.000  O
  O10      1.0000 0.35240  0.36460  0.06400  Biso   1.000  O
  O11      1.0000 0.85240  0.13540  0.56400  Biso   1.000  O
  O12      1.0000 0.64760  0.63540  0.93600  Biso   1.000  O
  O13      1.0000 0.69983  0.43950  0.73826  Biso   1.000  O
  O14      1.0000 0.80017  0.93950  0.76174  Biso   1.000  O
  O15      1.0000 0.30017  0.56050  0.26174  Biso   1.000  O
  O16      1.0000 0.19983  0.06050  0.23826  Biso   1.000  O
  O17      1.0000 0.90706  0.35020  0.76554  Biso   1.000  O
  O18      1.0000 0.59294  0.85020  0.73446  Biso   1.000  O
  O19      1.0000 0.09294  0.64980  0.23446  Biso   1.000  O
  O20      1.0000 0.40706  0.14980  0.26554  Biso   1.000  O
  O21      1.0000 0.92930  0.77220  0.47990  Biso   1.000  O
  O22      1.0000 0.57070  0.27220  0.02010  Biso   1.000  O
  O23      1.0000 0.07070  0.22780  0.52010  Biso   1.000  O
  O24      1.0000 0.42930  0.72780  0.97990  Biso   1.000  O
  H5       1.0000 0.00200  0.75400  0.47000  Biso   1.000  H
  H6       1.0000 0.49800  0.25400  0.03000  Biso   1.000  H
  H7       1.0000 0.99800  0.24600  0.53000  Biso   1.000  H
  H8       1.0000 0.50200  0.74600  0.97000  Biso   1.000  H
  H9       1.0000 0.94400  0.81400  0.52100  Biso   1.000  H
  H10      1.0000 0.55600  0.31400  0.97900  Biso   1.000  H
  H11      1.0000 0.05600  0.18600  0.47900  Biso   1.000  H
  H12      1.0000 0.44400  0.68600  0.02100  Biso   1.000  H
  O25      1.0000 0.94070  0.60170  0.46610  Biso   1.000  O
  O26      1.0000 0.55930  0.10170  0.03390  Biso   1.000  O
  O27      1.0000 0.05930  0.39830  0.53390  Biso   1.000  O
  O28      1.0000 0.44070  0.89830  0.96610  Biso   1.000  O
  H13      1.0000 0.99800  0.63700  0.44500  Biso   1.000  H
  H14      1.0000 0.50200  0.13700  0.05500  Biso   1.000  H
  H15      1.0000 0.00200  0.36300  0.55500  Biso   1.000  H
  H16      1.0000 0.49800  0.86300  0.94500  Biso   1.000  H
  H17      1.0000 0.97900  0.54800  0.50400  Biso   1.000  H
  H18      1.0000 0.52100  0.04800  0.99600  Biso   1.000  H
  H19      1.0000 0.02100  0.45200  0.49600  Biso   1.000  H
  H20      1.0000 0.47900  0.95200  0.00400  Biso   1.000  H
  N1       1.0000 0.71710  0.62120  0.62814  Biso   1.000  N
  N2       1.0000 0.78290  0.12120  0.87186  Biso   1.000  N
  N3       1.0000 0.28290  0.37880  0.37186  Biso   1.000  N
  N4       1.0000 0.21710  0.87880  0.12814  Biso   1.000  N
  N5       1.0000 0.43160  0.52100  0.71570  Biso   1.000  N
  N6       1.0000 0.06840  0.02100  0.78430  Biso   1.000  N
  N7       1.0000 0.56840  0.47900  0.28430  Biso   1.000  N
  N8       1.0000 0.93160  0.97900  0.21570  Biso   1.000  N
  C1       1.0000 0.23960  0.81640  0.48181  Biso   1.000  C
  C2       1.0000 0.26040  0.31640  0.01819  Biso   1.000  C
  C3       1.0000 0.76040  0.18360  0.51819  Biso   1.000  C
  C4       1.0000 0.73960  0.68360  0.98181  Biso   1.000  C
  C5       1.0000 0.37030  0.79720  0.47227  Biso   1.000  C
  C6       1.0000 0.12970  0.29720  0.02773  Biso   1.000  C
  C7       1.0000 0.62970  0.20280  0.52773  Biso   1.000  C
  C8       1.0000 0.87030  0.70280  0.97227  Biso   1.000  C
  C9       1.0000 0.39130  0.84490  0.40839  Biso   1.000  C
  C10      1.0000 0.10870  0.34490  0.09161  Biso   1.000  C
  C11      1.0000 0.60870  0.15510  0.59161  Biso   1.000  C
  C12      1.0000 0.89130  0.65510  0.90839  Biso   1.000  C
  H21      1.0000 0.32190  0.88480  0.37290  Biso   1.000  H
  H22      1.0000 0.17810  0.38480  0.12710  Biso   1.000  H
  H23      1.0000 0.67810  0.11520  0.62710  Biso   1.000  H
  H24      1.0000 0.82190  0.61520  0.87290  Biso   1.000  H
  C13      1.0000 0.51100  0.83460  0.39644  Biso   1.000  C
  C14      1.0000 0.98900  0.33460  0.10356  Biso   1.000  C
  C15      1.0000 0.48900  0.16540  0.60356  Biso   1.000  C
  C16      1.0000 0.01100  0.66540  0.89644  Biso   1.000  C
  H25      1.0000 0.52300  0.86580  0.35310  Biso   1.000  H
  H26      1.0000 0.97700  0.36580  0.14690  Biso   1.000  H
  H27      1.0000 0.47700  0.13420  0.64690  Biso   1.000  H
  H28      1.0000 0.02300  0.63420  0.85310  Biso   1.000  H
  C17      1.0000 0.61430  0.77750  0.44927  Biso   1.000  C
  C18      1.0000 0.88570  0.27750  0.05073  Biso   1.000  C
  C19      1.0000 0.38570  0.22250  0.55073  Biso   1.000  C
  C20      1.0000 0.11430  0.72250  0.94927  Biso   1.000  C
  H29      1.0000 0.69640  0.77200  0.44130  Biso   1.000  H
  H30      1.0000 0.80360  0.27200  0.05870  Biso   1.000  H
  H31      1.0000 0.30360  0.22800  0.55870  Biso   1.000  H
  H32      1.0000 0.19640  0.72800  0.94130  Biso   1.000  H
  C21      1.0000 0.59840  0.72770  0.51441  Biso   1.000  C
  C22      1.0000 0.90160  0.22770  0.98559  Biso   1.000  C
  C23      1.0000 0.40160  0.27230  0.48559  Biso   1.000  C
  C24      1.0000 0.09840  0.77230  0.01441  Biso   1.000  C
  C25      1.0000 0.47440  0.73570  0.52715  Biso   1.000  C
  C26      1.0000 0.02560  0.23570  0.97285  Biso   1.000  C
  C27      1.0000 0.52560  0.26430  0.47285  Biso   1.000  C
  C28      1.0000 0.97440  0.76430  0.02715  Biso   1.000  C
  C29      1.0000 0.71230  0.67030  0.56577  Biso   1.000  C
  C30      1.0000 0.78770  0.17030  0.93423  Biso   1.000  C
  C31      1.0000 0.28770  0.32970  0.43423  Biso   1.000  C
  C32      1.0000 0.21230  0.82970  0.06577  Biso   1.000  C
  H33      1.0000 0.78970  0.66860  0.55240  Biso   1.000  H
  H34      1.0000 0.71030  0.16860  0.94760  Biso   1.000  H
  H35      1.0000 0.21030  0.33140  0.44760  Biso   1.000  H
  H36      1.0000 0.28970  0.83140  0.05240  Biso   1.000  H
  C33      1.0000 0.84020  0.56370  0.67451  Biso   1.000  C
  C34      1.0000 0.65980  0.06370  0.82549  Biso   1.000  C
  C35      1.0000 0.15980  0.43630  0.32549  Biso   1.000  C
  C36      1.0000 0.34020  0.93630  0.17451  Biso   1.000  C
  H37      1.0000 0.88880  0.66960  0.69590  Biso   1.000  H
  H38      1.0000 0.61120  0.16960  0.80410  Biso   1.000  H
  H39      1.0000 0.11120  0.33040  0.30410  Biso   1.000  H
  H40      1.0000 0.38880  0.83040  0.19590  Biso   1.000  H
  H41      1.0000 0.89130  0.49970  0.64800  Biso   1.000  H
  H42      1.0000 0.60870  0.99970  0.85200  Biso   1.000  H
  H43      1.0000 0.10870  0.50030  0.35200  Biso   1.000  H
  H44      1.0000 0.39130  0.00030  0.14800  Biso   1.000  H
  C37      1.0000 0.81460  0.43940  0.73058  Biso   1.000  C
  C38      1.0000 0.68540  0.93940  0.76942  Biso   1.000  C
  C39      1.0000 0.18540  0.56060  0.26942  Biso   1.000  C
  C40      1.0000 0.31460  0.06060  0.23058  Biso   1.000  C
  C41      1.0000 0.31030  0.48250  0.68086  Biso   1.000  C
  C42      1.0000 0.18970  0.98250  0.81914  Biso   1.000  C
  C43      1.0000 0.68970  0.51750  0.31914  Biso   1.000  C
  C44      1.0000 0.81030  0.01750  0.18086  Biso   1.000  C
  H45      1.0000 0.28930  0.48400  0.63240  Biso   1.000  H
  H46      1.0000 0.21070  0.98400  0.86760  Biso   1.000  H
  H47      1.0000 0.71070  0.51600  0.36760  Biso   1.000  H
  H48      1.0000 0.78930  0.01600  0.13240  Biso   1.000  H
  C45      1.0000 0.21460  0.44060  0.71360  Biso   1.000  C
  C46      1.0000 0.28540  0.94060  0.78640  Biso   1.000  C
  C47      1.0000 0.78540  0.55940  0.28640  Biso   1.000  C
  C48      1.0000 0.71460  0.05940  0.21360  Biso   1.000  C
  H49      1.0000 0.13070  0.41570  0.68760  Biso   1.000  H
  H50      1.0000 0.36930  0.91570  0.81240  Biso   1.000  H
  H51      1.0000 0.86930  0.58430  0.31240  Biso   1.000  H
  H52      1.0000 0.63070  0.08430  0.18760  Biso   1.000  H
  C49      1.0000 0.24420  0.43610  0.78480  Biso   1.000  C
  C50      1.0000 0.25580  0.93610  0.71520  Biso   1.000  C
  C51      1.0000 0.75580  0.56390  0.21520  Biso   1.000  C
  C52      1.0000 0.74420  0.06390  0.28480  Biso   1.000  C
  H53      1.0000 0.18120  0.40800  0.80790  Biso   1.000  H
  H54      1.0000 0.31880  0.90800  0.69210  Biso   1.000  H
  H55      1.0000 0.81880  0.59200  0.19210  Biso   1.000  H
  H56      1.0000 0.68120  0.09200  0.30790  Biso   1.000  H
  C53      1.0000 0.36890  0.47380  0.82131  Biso   1.000  C
  C54      1.0000 0.13110  0.97380  0.67869  Biso   1.000  C
  C55      1.0000 0.63110  0.52620  0.17869  Biso   1.000  C
  C56      1.0000 0.86890  0.02620  0.32131  Biso   1.000  C
  H57      1.0000 0.39200  0.47050  0.86980  Biso   1.000  H
  H58      1.0000 0.10800  0.97050  0.63020  Biso   1.000  H
  H59      1.0000 0.60800  0.52950  0.13020  Biso   1.000  H
  H60      1.0000 0.89200  0.02950  0.36980  Biso   1.000  H
  C57      1.0000 0.45910  0.51640  0.78551  Biso   1.000  C
  C58      1.0000 0.04090  0.01640  0.71449  Biso   1.000  C
  C59      1.0000 0.54090  0.48360  0.21449  Biso   1.000  C
  C60      1.0000 0.95910  0.98360  0.28551  Biso   1.000  C
  H61      1.0000 0.54310  0.54330  0.81080  Biso   1.000  H
  H62      1.0000 0.95690  0.04330  0.68920  Biso   1.000  H
  H63      1.0000 0.45690  0.45670  0.18920  Biso   1.000  H
  H64      1.0000 0.04310  0.95670  0.31080  Biso   1.000  H
