data_image0
_cell_length_a       17.07
_cell_length_b       10.78
_cell_length_c       17.74
_cell_angle_alpha    90
_cell_angle_beta     114.5
_cell_angle_gamma    90

_symmetry_space_group_name_H-M    "P 1"
_symmetry_int_tables_number       1

loop_
  _symmetry_equiv_pos_as_xyz
  'x, y, z'

loop_
  _atom_site_label
  _atom_site_occupancy
  _atom_site_fract_x
  _atom_site_fract_y
  _atom_site_fract_z
  _atom_site_thermal_displace_type
  _atom_site_B_iso_or_equiv
  _atom_site_type_symbol
  C1       1.0000 0.10230  0.31250  0.93740  Biso   1.000  C
  C2       1.0000 0.39770  0.81250  0.56260  Biso   1.000  C
  C3       1.0000 0.89770  0.68750  0.06260  Biso   1.000  C
  C4       1.0000 0.60230  0.18750  0.43740  Biso   1.000  C
  H1       1.0000 0.14050  0.30760  0.90880  Biso   1.000  H
  H2       1.0000 0.35950  0.80760  0.59120  Biso   1.000  H
  H3       1.0000 0.85950  0.69240  0.09120  Biso   1.000  H
  H4       1.0000 0.64050  0.19240  0.40880  Biso   1.000  H
  H5       1.0000 0.04220  0.31450  0.89650  Biso   1.000  H
  H6       1.0000 0.45780  0.81450  0.60350  Biso   1.000  H
  H7       1.0000 0.95780  0.68550  0.10350  Biso   1.000  H
  H8       1.0000 0.54220  0.18550  0.39650  Biso   1.000  H
  H9       1.0000 0.11500  0.38800  0.97120  Biso   1.000  H
  H10      1.0000 0.38500  0.88800  0.52880  Biso   1.000  H
  H11      1.0000 0.88500  0.61200  0.02880  Biso   1.000  H
  H12      1.0000 0.61500  0.11200  0.47120  Biso   1.000  H
  C5       1.0000 0.11590  0.20280  0.99140  Biso   1.000  C
  C6       1.0000 0.38410  0.70280  0.50860  Biso   1.000  C
  C7       1.0000 0.88410  0.79720  0.00860  Biso   1.000  C
  C8       1.0000 0.61590  0.29720  0.49140  Biso   1.000  C
  C9       1.0000 0.07180  0.17610  0.04360  Biso   1.000  C
  C10      1.0000 0.42820  0.67610  0.45640  Biso   1.000  C
  C11      1.0000 0.92820  0.82390  0.95640  Biso   1.000  C
  C12      1.0000 0.57180  0.32390  0.54360  Biso   1.000  C
  C13      1.0000 0.10370  0.06710  0.08260  Biso   1.000  C
  C14      1.0000 0.39630  0.56710  0.41740  Biso   1.000  C
  C15      1.0000 0.89630  0.93290  0.91740  Biso   1.000  C
  C16      1.0000 0.60370  0.43290  0.58260  Biso   1.000  C
  C17      1.0000 0.16850  0.02640  0.05460  Biso   1.000  C
  C18      1.0000 0.33150  0.52640  0.44540  Biso   1.000  C
  C19      1.0000 0.83150  0.97360  0.94540  Biso   1.000  C
  C20      1.0000 0.66850  0.47360  0.55460  Biso   1.000  C
  C21      1.0000 0.21880  0.92280  0.07840  Biso   1.000  C
  C22      1.0000 0.28120  0.42280  0.42160  Biso   1.000  C
  C23      1.0000 0.78120  0.07720  0.92160  Biso   1.000  C
  C24      1.0000 0.71880  0.57720  0.57840  Biso   1.000  C
  H13      1.0000 0.21020  0.87140  0.11780  Biso   1.000  H
  H14      1.0000 0.28980  0.37140  0.38220  Biso   1.000  H
  H15      1.0000 0.78980  0.12860  0.88220  Biso   1.000  H
  H16      1.0000 0.71020  0.62860  0.61780  Biso   1.000  H
  C25      1.0000 0.28180  0.88220  0.05220  Biso   1.000  C
  C26      1.0000 0.21820  0.38220  0.44780  Biso   1.000  C
  C27      1.0000 0.71820  0.11780  0.94780  Biso   1.000  C
  C28      1.0000 0.78180  0.61780  0.55220  Biso   1.000  C
  C29      1.0000 0.33060  0.77030  0.07530  Biso   1.000  C
  C30      1.0000 0.16940  0.27030  0.42470  Biso   1.000  C
  C31      1.0000 0.66940  0.22970  0.92470  Biso   1.000  C
  C32      1.0000 0.83060  0.72970  0.57530  Biso   1.000  C
  C33      1.0000 0.38200  0.76850  0.03210  Biso   1.000  C
  C34      1.0000 0.11800  0.26850  0.46790  Biso   1.000  C
  C35      1.0000 0.61800  0.23150  0.96790  Biso   1.000  C
  C36      1.0000 0.88200  0.73150  0.53210  Biso   1.000  C
  C37      1.0000 0.36430  0.87930  0.98460  Biso   1.000  C
  C38      1.0000 0.13570  0.37930  0.51540  Biso   1.000  C
  C39      1.0000 0.63570  0.12070  0.01540  Biso   1.000  C
  C40      1.0000 0.86430  0.62070  0.48460  Biso   1.000  C
  C41      1.0000 0.40320  0.91710  0.93170  Biso   1.000  C
  C42      1.0000 0.09680  0.41710  0.56830  Biso   1.000  C
  C43      1.0000 0.59680  0.08290  0.06830  Biso   1.000  C
  C44      1.0000 0.90320  0.58290  0.43170  Biso   1.000  C
  H17      1.0000 0.44640  0.86330  0.92970  Biso   1.000  H
  H18      1.0000 0.05360  0.36330  0.57030  Biso   1.000  H
  H19      1.0000 0.55360  0.13670  0.07030  Biso   1.000  H
  H20      1.0000 0.94640  0.63670  0.42970  Biso   1.000  H
  C45      1.0000 0.38680  0.02000  0.88340  Biso   1.000  C
  C46      1.0000 0.11320  0.52000  0.61660  Biso   1.000  C
  C47      1.0000 0.61320  0.98000  0.11660  Biso   1.000  C
  C48      1.0000 0.88680  0.48000  0.38340  Biso   1.000  C
  C49      1.0000 0.42780  0.05760  0.83010  Biso   1.000  C
  C50      1.0000 0.07220  0.55760  0.66990  Biso   1.000  C
  C51      1.0000 0.57220  0.94240  0.16990  Biso   1.000  C
  C52      1.0000 0.92780  0.44240  0.33010  Biso   1.000  C
  C53      1.0000 0.39190  0.16770  0.79570  Biso   1.000  C
  C54      1.0000 0.10810  0.66770  0.70430  Biso   1.000  C
  C55      1.0000 0.60810  0.83230  0.20430  Biso   1.000  C
  C56      1.0000 0.89190  0.33230  0.29570  Biso   1.000  C
  C57      1.0000 0.32840  0.19720  0.82680  Biso   1.000  C
  C58      1.0000 0.17160  0.69720  0.67320  Biso   1.000  C
  C59      1.0000 0.67160  0.80280  0.17320  Biso   1.000  C
  C60      1.0000 0.82840  0.30280  0.32680  Biso   1.000  C
  C61      1.0000 0.27230  0.31030  0.80530  Biso   1.000  C
  C62      1.0000 0.22770  0.81030  0.69470  Biso   1.000  C
  C63      1.0000 0.72770  0.68970  0.19470  Biso   1.000  C
  C64      1.0000 0.77230  0.18970  0.30530  Biso   1.000  C
  H21      1.0000 0.23480  0.30800  0.83480  Biso   1.000  H
  H22      1.0000 0.26520  0.80800  0.66520  Biso   1.000  H
  H23      1.0000 0.76520  0.69200  0.16520  Biso   1.000  H
  H24      1.0000 0.73480  0.19200  0.33480  Biso   1.000  H
  H25      1.0000 0.30840  0.38480  0.82160  Biso   1.000  H
  H26      1.0000 0.19160  0.88480  0.67840  Biso   1.000  H
  H27      1.0000 0.69160  0.61520  0.17840  Biso   1.000  H
  H28      1.0000 0.80840  0.11520  0.32160  Biso   1.000  H
  H29      1.0000 0.23690  0.31200  0.74550  Biso   1.000  H
  H30      1.0000 0.26310  0.81200  0.75450  Biso   1.000  H
  H31      1.0000 0.76310  0.68800  0.25450  Biso   1.000  H
  H32      1.0000 0.73690  0.18800  0.24550  Biso   1.000  H
  C65      1.0000 0.00500  0.25960  0.05190  Biso   1.000  C
  C66      1.0000 0.49500  0.75960  0.44810  Biso   1.000  C
  C67      1.0000 0.99500  0.74040  0.94810  Biso   1.000  C
  C68      1.0000 0.50500  0.24040  0.55190  Biso   1.000  C
  H33      1.0000 0.96860  0.29480  0.99680  Biso   1.000  H
  H34      1.0000 0.53140  0.79480  0.50320  Biso   1.000  H
  H35      1.0000 0.03140  0.70520  0.00320  Biso   1.000  H
  H36      1.0000 0.46860  0.20520  0.49680  Biso   1.000  H
  H37      1.0000 0.96750  0.20960  0.07020  Biso   1.000  H
  H38      1.0000 0.53250  0.70960  0.42980  Biso   1.000  H
  H39      1.0000 0.03250  0.79040  0.92980  Biso   1.000  H
  H40      1.0000 0.46750  0.29040  0.57020  Biso   1.000  H
  C69      1.0000 0.04360  0.36510  0.11260  Biso   1.000  C
  C70      1.0000 0.45640  0.86510  0.38740  Biso   1.000  C
  C71      1.0000 0.95640  0.63490  0.88740  Biso   1.000  C
  C72      1.0000 0.54360  0.13490  0.61260  Biso   1.000  C
  H41      1.0000 0.99730  0.41610  0.11520  Biso   1.000  H
  H42      1.0000 0.50270  0.91610  0.38480  Biso   1.000  H
  H43      1.0000 0.00270  0.58390  0.88480  Biso   1.000  H
  H44      1.0000 0.49730  0.08390  0.61520  Biso   1.000  H
  H45      1.0000 0.07860  0.33110  0.16760  Biso   1.000  H
  H46      1.0000 0.42140  0.83110  0.33240  Biso   1.000  H
  H47      1.0000 0.92140  0.66890  0.83240  Biso   1.000  H
  H48      1.0000 0.57860  0.16890  0.66760  Biso   1.000  H
  H49      1.0000 0.07990  0.41620  0.09420  Biso   1.000  H
  H50      1.0000 0.42010  0.91620  0.40580  Biso   1.000  H
  H51      1.0000 0.92010  0.58380  0.90580  Biso   1.000  H
  H52      1.0000 0.57990  0.08380  0.59420  Biso   1.000  H
  C73      1.0000 0.07890  0.99800  0.14300  Biso   1.000  C
  C74      1.0000 0.42110  0.49800  0.35700  Biso   1.000  C
  C75      1.0000 0.92110  0.00200  0.85700  Biso   1.000  C
  C76      1.0000 0.57890  0.50200  0.64300  Biso   1.000  C
  H53      1.0000 0.11370  0.92240  0.16100  Biso   1.000  H
  H54      1.0000 0.38630  0.42240  0.33900  Biso   1.000  H
  H55      1.0000 0.88630  0.07760  0.83900  Biso   1.000  H
  H56      1.0000 0.61370  0.57760  0.66100  Biso   1.000  H
  H57      1.0000 0.08900  0.05070  0.19110  Biso   1.000  H
  H58      1.0000 0.41100  0.55070  0.30890  Biso   1.000  H
  H59      1.0000 0.91100  0.94930  0.80890  Biso   1.000  H
  H60      1.0000 0.58900  0.44930  0.69110  Biso   1.000  H
  H61      1.0000 0.01780  0.97570  0.11610  Biso   1.000  H
  H62      1.0000 0.48220  0.47570  0.38390  Biso   1.000  H
  H63      1.0000 0.98220  0.02430  0.88390  Biso   1.000  H
  H64      1.0000 0.51780  0.52430  0.61610  Biso   1.000  H
  C77      1.0000 0.32360  0.67290  0.13260  Biso   1.000  C
  C78      1.0000 0.17640  0.17290  0.36740  Biso   1.000  C
  C79      1.0000 0.67640  0.32710  0.86740  Biso   1.000  C
  C80      1.0000 0.82360  0.82710  0.63260  Biso   1.000  C
  H65      1.0000 0.37760  0.62410  0.15520  Biso   1.000  H
  H66      1.0000 0.12240  0.12410  0.34480  Biso   1.000  H
  H67      1.0000 0.62240  0.37590  0.84480  Biso   1.000  H
  H68      1.0000 0.87760  0.87590  0.65520  Biso   1.000  H
  H69      1.0000 0.31730  0.71410  0.17960  Biso   1.000  H
  H70      1.0000 0.18270  0.21410  0.32040  Biso   1.000  H
  H71      1.0000 0.68270  0.28590  0.82040  Biso   1.000  H
  H72      1.0000 0.81730  0.78590  0.67960  Biso   1.000  H
  C81      1.0000 0.24790  0.58460  0.09070  Biso   1.000  C
  C82      1.0000 0.25210  0.08460  0.40930  Biso   1.000  C
  C83      1.0000 0.75210  0.41540  0.90930  Biso   1.000  C
  C84      1.0000 0.74790  0.91540  0.59070  Biso   1.000  C
  H73      1.0000 0.24690  0.52330  0.13110  Biso   1.000  H
  H74      1.0000 0.25310  0.02330  0.36890  Biso   1.000  H
  H75      1.0000 0.75310  0.47670  0.86890  Biso   1.000  H
  H76      1.0000 0.74690  0.97670  0.63110  Biso   1.000  H
  H77      1.0000 0.19400  0.63180  0.06940  Biso   1.000  H
  H78      1.0000 0.30600  0.13180  0.43060  Biso   1.000  H
  H79      1.0000 0.80600  0.36820  0.93060  Biso   1.000  H
  H80      1.0000 0.69400  0.86820  0.56940  Biso   1.000  H
  H81      1.0000 0.25430  0.54190  0.04480  Biso   1.000  H
  H82      1.0000 0.24570  0.04190  0.45520  Biso   1.000  H
  H83      1.0000 0.74570  0.45810  0.95520  Biso   1.000  H
  H84      1.0000 0.75430  0.95810  0.54480  Biso   1.000  H
  C85      1.0000 0.43910  0.66550  0.02680  Biso   1.000  C
  C86      1.0000 0.06090  0.16550  0.47320  Biso   1.000  C
  C87      1.0000 0.56090  0.33450  0.97320  Biso   1.000  C
  C88      1.0000 0.93910  0.83450  0.52680  Biso   1.000  C
  H85      1.0000 0.49190  0.70150  0.02550  Biso   1.000  H
  H86      1.0000 0.00810  0.20150  0.47450  Biso   1.000  H
  H87      1.0000 0.50810  0.29850  0.97450  Biso   1.000  H
  H88      1.0000 0.99190  0.79850  0.52550  Biso   1.000  H
  H89      1.0000 0.45650  0.61250  0.07670  Biso   1.000  H
  H90      1.0000 0.04350  0.11250  0.42330  Biso   1.000  H
  H91      1.0000 0.54350  0.38750  0.92330  Biso   1.000  H
  H92      1.0000 0.95650  0.88750  0.57670  Biso   1.000  H
  C89      1.0000 0.39340  0.58670  0.94990  Biso   1.000  C
  C90      1.0000 0.10660  0.08670  0.55010  Biso   1.000  C
  C91      1.0000 0.60660  0.41330  0.05010  Biso   1.000  C
  C92      1.0000 0.89340  0.91330  0.44990  Biso   1.000  C
  H93      1.0000 0.43210  0.52090  0.94800  Biso   1.000  H
  H94      1.0000 0.06790  0.02090  0.55200  Biso   1.000  H
  H95      1.0000 0.56790  0.47910  0.05200  Biso   1.000  H
  H96      1.0000 0.93210  0.97910  0.44800  Biso   1.000  H
  H97      1.0000 0.34180  0.54960  0.95170  Biso   1.000  H
  H98      1.0000 0.15820  0.04960  0.54830  Biso   1.000  H
  H99      1.0000 0.65820  0.45040  0.04830  Biso   1.000  H
  H100     1.0000 0.84180  0.95040  0.45170  Biso   1.000  H
  H101     1.0000 0.37680  0.63890  0.90050  Biso   1.000  H
  H102     1.0000 0.12320  0.13890  0.59950  Biso   1.000  H
  H103     1.0000 0.62320  0.36110  0.09950  Biso   1.000  H
  H104     1.0000 0.87680  0.86110  0.40050  Biso   1.000  H
  C93      1.0000 0.49640  0.98610  0.81760  Biso   1.000  C
  C94      1.0000 0.00360  0.48610  0.68240  Biso   1.000  C
  C95      1.0000 0.50360  0.01390  0.18240  Biso   1.000  C
  C96      1.0000 0.99640  0.51390  0.31760  Biso   1.000  C
  H105     1.0000 0.50900  0.91000  0.85070  Biso   1.000  H
  H106     1.0000 0.99100  0.41000  0.64930  Biso   1.000  H
  H107     1.0000 0.49100  0.09000  0.14930  Biso   1.000  H
  H108     1.0000 0.00900  0.59000  0.35070  Biso   1.000  H
  H109     1.0000 0.47650  0.96470  0.75890  Biso   1.000  H
  H110     1.0000 0.02350  0.46470  0.74110  Biso   1.000  H
  H111     1.0000 0.52350  0.03530  0.24110  Biso   1.000  H
  H112     1.0000 0.97650  0.53530  0.25890  Biso   1.000  H
  H113     1.0000 0.54860  0.03670  0.83490  Biso   1.000  H
  H114     1.0000 0.95140  0.53670  0.66510  Biso   1.000  H
  H115     1.0000 0.45140  0.96330  0.16510  Biso   1.000  H
  H116     1.0000 0.04860  0.46330  0.33490  Biso   1.000  H
  C97      1.0000 0.40970  0.24600  0.73460  Biso   1.000  C
  C98      1.0000 0.09030  0.74600  0.76540  Biso   1.000  C
  C99      1.0000 0.59030  0.75400  0.26540  Biso   1.000  C
  C100     1.0000 0.90970  0.25400  0.23460  Biso   1.000  C
  H117     1.0000 0.41050  0.33450  0.74990  Biso   1.000  H
  H118     1.0000 0.08950  0.83450  0.75010  Biso   1.000  H
  H119     1.0000 0.58950  0.66550  0.25010  Biso   1.000  H
  H120     1.0000 0.91050  0.16550  0.24990  Biso   1.000  H
  H121     1.0000 0.46730  0.22490  0.73740  Biso   1.000  H
  H122     1.0000 0.03270  0.72490  0.76260  Biso   1.000  H
  H123     1.0000 0.53270  0.77510  0.26260  Biso   1.000  H
  H124     1.0000 0.96730  0.27510  0.23740  Biso   1.000  H
  C101     1.0000 0.34300  0.22770  0.64650  Biso   1.000  C
  C102     1.0000 0.15700  0.72770  0.85350  Biso   1.000  C
  C103     1.0000 0.65700  0.77230  0.35350  Biso   1.000  C
  C104     1.0000 0.84300  0.27230  0.14650  Biso   1.000  C
  H125     1.0000 0.35740  0.28010  0.60890  Biso   1.000  H
  H126     1.0000 0.14260  0.78010  0.89110  Biso   1.000  H
  H127     1.0000 0.64260  0.71990  0.39110  Biso   1.000  H
  H128     1.0000 0.85740  0.21990  0.10890  Biso   1.000  H
  H129     1.0000 0.34260  0.14050  0.63070  Biso   1.000  H
  H130     1.0000 0.15740  0.64050  0.86930  Biso   1.000  H
  H131     1.0000 0.65740  0.85950  0.36930  Biso   1.000  H
  H132     1.0000 0.84260  0.35950  0.13070  Biso   1.000  H
  H133     1.0000 0.28610  0.25050  0.64300  Biso   1.000  H
  H134     1.0000 0.21390  0.75050  0.85700  Biso   1.000  H
  H135     1.0000 0.71390  0.74950  0.35700  Biso   1.000  H
  H136     1.0000 0.78610  0.24950  0.14300  Biso   1.000  H
  C105     1.0000 0.58040  0.39720  0.26700  Biso   1.000  C
  C106     1.0000 0.91960  0.89720  0.23300  Biso   1.000  C
  C107     1.0000 0.41960  0.60280  0.73300  Biso   1.000  C
  C108     1.0000 0.08040  0.10280  0.76700  Biso   1.000  C
  C109     1.0000 0.36620  0.31410  0.05700  Biso   1.000  C
  C110     1.0000 0.13380  0.81410  0.44300  Biso   1.000  C
  C111     1.0000 0.63380  0.68590  0.94300  Biso   1.000  C
  C112     1.0000 0.86620  0.18590  0.55700  Biso   1.000  C
  N1       1.0000 0.31180  0.27020  0.00300  Biso   1.000  N
  N2       1.0000 0.18820  0.77020  0.49700  Biso   1.000  N
  N3       1.0000 0.68820  0.72980  0.99700  Biso   1.000  N
  N4       1.0000 0.81180  0.22980  0.50300  Biso   1.000  N
  Ag1      1.0000 0.47168  0.36900  0.16065  Biso   1.000  Ag
  Ag2      1.0000 0.02832  0.86900  0.33935  Biso   1.000  Ag
  Ag3      1.0000 0.52832  0.63100  0.83935  Biso   1.000  Ag
  Ag4      1.0000 0.97168  0.13100  0.66065  Biso   1.000  Ag
  Cu1      1.0000 0.24917  0.10460  0.93879  Biso   1.000  Cu
  Cu2      1.0000 0.25083  0.60460  0.56121  Biso   1.000  Cu
  Cu3      1.0000 0.75083  0.89540  0.06121  Biso   1.000  Cu
  Cu4      1.0000 0.74917  0.39540  0.43879  Biso   1.000  Cu
  N5       1.0000 0.17200  0.11330  0.99770  Biso   1.000  N
  N6       1.0000 0.32800  0.61330  0.50230  Biso   1.000  N
  N7       1.0000 0.82800  0.88670  0.00230  Biso   1.000  N
  N8       1.0000 0.67200  0.38670  0.49770  Biso   1.000  N
  N9       1.0000 0.30370  0.94760  0.99740  Biso   1.000  N
  N10      1.0000 0.19630  0.44760  0.50260  Biso   1.000  N
  N11      1.0000 0.69630  0.05240  0.00260  Biso   1.000  N
  N12      1.0000 0.80370  0.55240  0.49740  Biso   1.000  N
  N13      1.0000 0.32510  0.11070  0.87830  Biso   1.000  N
  N14      1.0000 0.17490  0.61070  0.62170  Biso   1.000  N
  N15      1.0000 0.67490  0.88930  0.12170  Biso   1.000  N
  N16      1.0000 0.82510  0.38930  0.37830  Biso   1.000  N
  N17      1.0000 0.64080  0.39990  0.32630  Biso   1.000  N
  N18      1.0000 0.85920  0.89990  0.17370  Biso   1.000  N
  N19      1.0000 0.35920  0.60010  0.67370  Biso   1.000  N
  N20      1.0000 0.14080  0.10010  0.82630  Biso   1.000  N
