data_image0
_cell_length_a       18.3886
_cell_length_b       18.3886
_cell_length_c       23.7146
_cell_angle_alpha    90
_cell_angle_beta     90
_cell_angle_gamma    120

_symmetry_space_group_name_H-M    "P 1"
_symmetry_int_tables_number       1

loop_
  _symmetry_equiv_pos_as_xyz
  'x, y, z'

loop_
  _atom_site_label
  _atom_site_occupancy
  _atom_site_fract_x
  _atom_site_fract_y
  _atom_site_fract_z
  _atom_site_thermal_displace_type
  _atom_site_B_iso_or_equiv
  _atom_site_type_symbol
  Cu1      1.0000 0.52462  0.04925  0.45479  Biso   1.000  Cu
  Cu2      1.0000 0.95075  0.47537  0.45479  Biso   1.000  Cu
  Cu3      1.0000 0.52463  0.47538  0.45479  Biso   1.000  Cu
  Cu4      1.0000 0.47538  0.95075  0.95479  Biso   1.000  Cu
  Cu5      1.0000 0.04925  0.52463  0.95479  Biso   1.000  Cu
  Cu6      1.0000 0.47537  0.52462  0.95479  Biso   1.000  Cu
  Cu7      1.0000 0.04925  0.52462  0.54521  Biso   1.000  Cu
  Cu8      1.0000 0.47537  0.95075  0.54521  Biso   1.000  Cu
  Cu9      1.0000 0.47538  0.52463  0.54521  Biso   1.000  Cu
  Cu10     1.0000 0.95075  0.47538  0.04521  Biso   1.000  Cu
  Cu11     1.0000 0.52463  0.04925  0.04521  Biso   1.000  Cu
  Cu12     1.0000 0.52462  0.47537  0.04521  Biso   1.000  Cu
  O1       1.0000 0.62867  0.10995  0.49675  Biso   1.000  O
  O2       1.0000 0.89005  0.51872  0.49675  Biso   1.000  O
  O3       1.0000 0.48128  0.37133  0.49675  Biso   1.000  O
  O4       1.0000 0.37133  0.89005  0.99675  Biso   1.000  O
  O5       1.0000 0.10995  0.48128  0.99675  Biso   1.000  O
  O6       1.0000 0.51872  0.62867  0.99675  Biso   1.000  O
  O7       1.0000 0.10995  0.62867  0.50325  Biso   1.000  O
  O8       1.0000 0.51872  0.89005  0.50325  Biso   1.000  O
  O9       1.0000 0.37133  0.48128  0.50325  Biso   1.000  O
  O10      1.0000 0.89005  0.37133  0.00325  Biso   1.000  O
  O11      1.0000 0.48128  0.10995  0.00325  Biso   1.000  O
  O12      1.0000 0.62867  0.51872  0.00325  Biso   1.000  O
  O13      1.0000 0.37133  0.89005  0.50325  Biso   1.000  O
  O14      1.0000 0.10995  0.48128  0.50325  Biso   1.000  O
  O15      1.0000 0.51872  0.62867  0.50325  Biso   1.000  O
  O16      1.0000 0.62867  0.10995  0.00325  Biso   1.000  O
  O17      1.0000 0.89005  0.51872  0.00325  Biso   1.000  O
  O18      1.0000 0.48128  0.37133  0.00325  Biso   1.000  O
  O19      1.0000 0.89005  0.37133  0.49675  Biso   1.000  O
  O20      1.0000 0.48128  0.10995  0.49675  Biso   1.000  O
  O21      1.0000 0.62867  0.51872  0.49675  Biso   1.000  O
  O22      1.0000 0.10995  0.62867  0.99675  Biso   1.000  O
  O23      1.0000 0.51872  0.89005  0.99675  Biso   1.000  O
  O24      1.0000 0.37133  0.48128  0.99675  Biso   1.000  O
  O25      1.0000 0.58983  0.02696  0.57230  Biso   1.000  O
  O26      1.0000 0.97304  0.56287  0.57230  Biso   1.000  O
  O27      1.0000 0.43713  0.41017  0.57230  Biso   1.000  O
  O28      1.0000 0.41017  0.97304  0.07230  Biso   1.000  O
  O29      1.0000 0.02696  0.43713  0.07230  Biso   1.000  O
  O30      1.0000 0.56287  0.58983  0.07230  Biso   1.000  O
  O31      1.0000 0.02696  0.58983  0.42770  Biso   1.000  O
  O32      1.0000 0.56287  0.97304  0.42770  Biso   1.000  O
  O33      1.0000 0.41017  0.43713  0.42770  Biso   1.000  O
  O34      1.0000 0.97304  0.41017  0.92770  Biso   1.000  O
  O35      1.0000 0.43713  0.02696  0.92770  Biso   1.000  O
  O36      1.0000 0.58983  0.56287  0.92770  Biso   1.000  O
  O37      1.0000 0.41017  0.97304  0.42770  Biso   1.000  O
  O38      1.0000 0.02696  0.43713  0.42770  Biso   1.000  O
  O39      1.0000 0.56287  0.58983  0.42770  Biso   1.000  O
  O40      1.0000 0.58983  0.02696  0.92770  Biso   1.000  O
  O41      1.0000 0.97304  0.56287  0.92770  Biso   1.000  O
  O42      1.0000 0.43713  0.41017  0.92770  Biso   1.000  O
  O43      1.0000 0.97304  0.41017  0.57230  Biso   1.000  O
  O44      1.0000 0.43713  0.02696  0.57230  Biso   1.000  O
  O45      1.0000 0.58983  0.56287  0.57230  Biso   1.000  O
  O46      1.0000 0.02696  0.58983  0.07230  Biso   1.000  O
  O47      1.0000 0.56287  0.97304  0.07230  Biso   1.000  O
  O48      1.0000 0.41017  0.43713  0.07230  Biso   1.000  O
  O49      1.0000 0.56432  0.12860  0.38229  Biso   1.000  O
  O50      1.0000 0.87140  0.43572  0.38229  Biso   1.000  O
  O51      1.0000 0.56428  0.43568  0.38229  Biso   1.000  O
  O52      1.0000 0.43568  0.87140  0.88229  Biso   1.000  O
  O53      1.0000 0.12860  0.56428  0.88229  Biso   1.000  O
  O54      1.0000 0.43572  0.56432  0.88229  Biso   1.000  O
  O55      1.0000 0.12860  0.56432  0.61771  Biso   1.000  O
  O56      1.0000 0.43572  0.87140  0.61771  Biso   1.000  O
  O57      1.0000 0.43568  0.56428  0.61771  Biso   1.000  O
  O58      1.0000 0.87140  0.43568  0.11771  Biso   1.000  O
  O59      1.0000 0.56428  0.12860  0.11771  Biso   1.000  O
  O60      1.0000 0.56432  0.43572  0.11771  Biso   1.000  O
  H1       1.0000 0.52420  0.10900  0.35860  Biso   1.000  H
  H2       1.0000 0.89100  0.41520  0.35860  Biso   1.000  H
  H3       1.0000 0.58480  0.47580  0.35860  Biso   1.000  H
  H4       1.0000 0.47580  0.89100  0.85860  Biso   1.000  H
  H5       1.0000 0.10900  0.58480  0.85860  Biso   1.000  H
  H6       1.0000 0.41520  0.52420  0.85860  Biso   1.000  H
  H7       1.0000 0.10900  0.52420  0.64140  Biso   1.000  H
  H8       1.0000 0.41520  0.89100  0.64140  Biso   1.000  H
  H9       1.0000 0.47580  0.58480  0.64140  Biso   1.000  H
  H10      1.0000 0.89100  0.47580  0.14140  Biso   1.000  H
  H11      1.0000 0.58480  0.10900  0.14140  Biso   1.000  H
  H12      1.0000 0.52420  0.41520  0.14140  Biso   1.000  H
  H13      1.0000 0.47580  0.89100  0.64140  Biso   1.000  H
  H14      1.0000 0.10900  0.58480  0.64140  Biso   1.000  H
  H15      1.0000 0.41520  0.52420  0.64140  Biso   1.000  H
  H16      1.0000 0.52420  0.10900  0.14140  Biso   1.000  H
  H17      1.0000 0.89100  0.41520  0.14140  Biso   1.000  H
  H18      1.0000 0.58480  0.47580  0.14140  Biso   1.000  H
  H19      1.0000 0.89100  0.47580  0.35860  Biso   1.000  H
  H20      1.0000 0.58480  0.10900  0.35860  Biso   1.000  H
  H21      1.0000 0.52420  0.41520  0.35860  Biso   1.000  H
  H22      1.0000 0.10900  0.52420  0.85860  Biso   1.000  H
  H23      1.0000 0.41520  0.89100  0.85860  Biso   1.000  H
  H24      1.0000 0.47580  0.58480  0.85860  Biso   1.000  H
  C1       1.0000 0.64160  0.08870  0.54462  Biso   1.000  C
  C2       1.0000 0.91130  0.55290  0.54462  Biso   1.000  C
  C3       1.0000 0.44710  0.35840  0.54462  Biso   1.000  C
  C4       1.0000 0.35840  0.91130  0.04462  Biso   1.000  C
  C5       1.0000 0.08870  0.44710  0.04462  Biso   1.000  C
  C6       1.0000 0.55290  0.64160  0.04462  Biso   1.000  C
  C7       1.0000 0.08870  0.64160  0.45538  Biso   1.000  C
  C8       1.0000 0.55290  0.91130  0.45538  Biso   1.000  C
  C9       1.0000 0.35840  0.44710  0.45538  Biso   1.000  C
  C10      1.0000 0.91130  0.35840  0.95538  Biso   1.000  C
  C11      1.0000 0.44710  0.08870  0.95538  Biso   1.000  C
  C12      1.0000 0.64160  0.55290  0.95538  Biso   1.000  C
  C13      1.0000 0.35840  0.91130  0.45538  Biso   1.000  C
  C14      1.0000 0.08870  0.44710  0.45538  Biso   1.000  C
  C15      1.0000 0.55290  0.64160  0.45538  Biso   1.000  C
  C16      1.0000 0.64160  0.08870  0.95538  Biso   1.000  C
  C17      1.0000 0.91130  0.55290  0.95538  Biso   1.000  C
  C18      1.0000 0.44710  0.35840  0.95538  Biso   1.000  C
  C19      1.0000 0.91130  0.35840  0.54462  Biso   1.000  C
  C20      1.0000 0.44710  0.08870  0.54462  Biso   1.000  C
  C21      1.0000 0.64160  0.55290  0.54462  Biso   1.000  C
  C22      1.0000 0.08870  0.64160  0.04462  Biso   1.000  C
  C23      1.0000 0.55290  0.91130  0.04462  Biso   1.000  C
  C24      1.0000 0.35840  0.44710  0.04462  Biso   1.000  C
  C25      1.0000 0.72560  0.14350  0.57010  Biso   1.000  C
  C26      1.0000 0.85650  0.58210  0.57010  Biso   1.000  C
  C27      1.0000 0.41790  0.27440  0.57010  Biso   1.000  C
  C28      1.0000 0.27440  0.85650  0.07010  Biso   1.000  C
  C29      1.0000 0.14350  0.41790  0.07010  Biso   1.000  C
  C30      1.0000 0.58210  0.72560  0.07010  Biso   1.000  C
  C31      1.0000 0.14350  0.72560  0.42990  Biso   1.000  C
  C32      1.0000 0.58210  0.85650  0.42990  Biso   1.000  C
  C33      1.0000 0.27440  0.41790  0.42990  Biso   1.000  C
  C34      1.0000 0.85650  0.27440  0.92990  Biso   1.000  C
  C35      1.0000 0.41790  0.14350  0.92990  Biso   1.000  C
  C36      1.0000 0.72560  0.58210  0.92990  Biso   1.000  C
  C37      1.0000 0.27440  0.85650  0.42990  Biso   1.000  C
  C38      1.0000 0.14350  0.41790  0.42990  Biso   1.000  C
  C39      1.0000 0.58210  0.72560  0.42990  Biso   1.000  C
  C40      1.0000 0.72560  0.14350  0.92990  Biso   1.000  C
  C41      1.0000 0.85650  0.58210  0.92990  Biso   1.000  C
  C42      1.0000 0.41790  0.27440  0.92990  Biso   1.000  C
  C43      1.0000 0.85650  0.27440  0.57010  Biso   1.000  C
  C44      1.0000 0.41790  0.14350  0.57010  Biso   1.000  C
  C45      1.0000 0.72560  0.58210  0.57010  Biso   1.000  C
  C46      1.0000 0.14350  0.72560  0.07010  Biso   1.000  C
  C47      1.0000 0.58210  0.85650  0.07010  Biso   1.000  C
  C48      1.0000 0.27440  0.41790  0.07010  Biso   1.000  C
  C49      1.0000 0.77961  0.22039  0.54540  Biso   1.000  C
  C50      1.0000 0.77961  0.55922  0.54540  Biso   1.000  C
  C51      1.0000 0.44078  0.22039  0.54540  Biso   1.000  C
  C52      1.0000 0.22039  0.77961  0.04540  Biso   1.000  C
  C53      1.0000 0.22039  0.44078  0.04540  Biso   1.000  C
  C54      1.0000 0.55922  0.77961  0.04540  Biso   1.000  C
  C55      1.0000 0.22039  0.77961  0.45460  Biso   1.000  C
  C56      1.0000 0.55922  0.77961  0.45460  Biso   1.000  C
  C57      1.0000 0.22039  0.44078  0.45460  Biso   1.000  C
  C58      1.0000 0.77961  0.22039  0.95460  Biso   1.000  C
  C59      1.0000 0.44078  0.22039  0.95460  Biso   1.000  C
  C60      1.0000 0.77961  0.55922  0.95460  Biso   1.000  C
  H25      1.0000 0.76280  0.23720  0.51180  Biso   1.000  H
  H26      1.0000 0.76280  0.52560  0.51180  Biso   1.000  H
  H27      1.0000 0.47440  0.23720  0.51180  Biso   1.000  H
  H28      1.0000 0.23720  0.76280  0.01180  Biso   1.000  H
  H29      1.0000 0.23720  0.47440  0.01180  Biso   1.000  H
  H30      1.0000 0.52560  0.76280  0.01180  Biso   1.000  H
  H31      1.0000 0.23720  0.76280  0.48820  Biso   1.000  H
  H32      1.0000 0.52560  0.76280  0.48820  Biso   1.000  H
  H33      1.0000 0.23720  0.47440  0.48820  Biso   1.000  H
  H34      1.0000 0.76280  0.23720  0.98820  Biso   1.000  H
  H35      1.0000 0.47440  0.23720  0.98820  Biso   1.000  H
  H36      1.0000 0.76280  0.52560  0.98820  Biso   1.000  H
  C61      1.0000 0.74970  0.12120  0.62038  Biso   1.000  C
  C62      1.0000 0.87880  0.62850  0.62038  Biso   1.000  C
  C63      1.0000 0.37150  0.25030  0.62038  Biso   1.000  C
  C64      1.0000 0.25030  0.87880  0.12038  Biso   1.000  C
  C65      1.0000 0.12120  0.37150  0.12038  Biso   1.000  C
  C66      1.0000 0.62850  0.74970  0.12038  Biso   1.000  C
  C67      1.0000 0.12120  0.74970  0.37962  Biso   1.000  C
  C68      1.0000 0.62850  0.87880  0.37962  Biso   1.000  C
  C69      1.0000 0.25030  0.37150  0.37962  Biso   1.000  C
  C70      1.0000 0.87880  0.25030  0.87962  Biso   1.000  C
  C71      1.0000 0.37150  0.12120  0.87962  Biso   1.000  C
  C72      1.0000 0.74970  0.62850  0.87962  Biso   1.000  C
  C73      1.0000 0.25030  0.87880  0.37962  Biso   1.000  C
  C74      1.0000 0.12120  0.37150  0.37962  Biso   1.000  C
  C75      1.0000 0.62850  0.74970  0.37962  Biso   1.000  C
  C76      1.0000 0.74970  0.12120  0.87962  Biso   1.000  C
  C77      1.0000 0.87880  0.62850  0.87962  Biso   1.000  C
  C78      1.0000 0.37150  0.25030  0.87962  Biso   1.000  C
  C79      1.0000 0.87880  0.25030  0.62038  Biso   1.000  C
  C80      1.0000 0.37150  0.12120  0.62038  Biso   1.000  C
  C81      1.0000 0.74970  0.62850  0.62038  Biso   1.000  C
  C82      1.0000 0.12120  0.74970  0.12038  Biso   1.000  C
  C83      1.0000 0.62850  0.87880  0.12038  Biso   1.000  C
  C84      1.0000 0.25030  0.37150  0.12038  Biso   1.000  C
  H37      1.0000 0.71270  0.06830  0.63790  Biso   1.000  H
  H38      1.0000 0.93170  0.64440  0.63790  Biso   1.000  H
  H39      1.0000 0.35560  0.28730  0.63790  Biso   1.000  H
  H40      1.0000 0.28730  0.93170  0.13790  Biso   1.000  H
  H41      1.0000 0.06830  0.35560  0.13790  Biso   1.000  H
  H42      1.0000 0.64440  0.71270  0.13790  Biso   1.000  H
  H43      1.0000 0.06830  0.71270  0.36210  Biso   1.000  H
  H44      1.0000 0.64440  0.93170  0.36210  Biso   1.000  H
  H45      1.0000 0.28730  0.35560  0.36210  Biso   1.000  H
  H46      1.0000 0.93170  0.28730  0.86210  Biso   1.000  H
  H47      1.0000 0.35560  0.06830  0.86210  Biso   1.000  H
  H48      1.0000 0.71270  0.64440  0.86210  Biso   1.000  H
  H49      1.0000 0.28730  0.93170  0.36210  Biso   1.000  H
  H50      1.0000 0.06830  0.35560  0.36210  Biso   1.000  H
  H51      1.0000 0.64440  0.71270  0.36210  Biso   1.000  H
  H52      1.0000 0.71270  0.06830  0.86210  Biso   1.000  H
  H53      1.0000 0.93170  0.64440  0.86210  Biso   1.000  H
  H54      1.0000 0.35560  0.28730  0.86210  Biso   1.000  H
  H55      1.0000 0.93170  0.28730  0.63790  Biso   1.000  H
  H56      1.0000 0.35560  0.06830  0.63790  Biso   1.000  H
  H57      1.0000 0.71270  0.64440  0.63790  Biso   1.000  H
  H58      1.0000 0.06830  0.71270  0.13790  Biso   1.000  H
  H59      1.0000 0.64440  0.93170  0.13790  Biso   1.000  H
  H60      1.0000 0.28730  0.35560  0.13790  Biso   1.000  H
  C85      1.0000 0.82678  0.17322  0.64430  Biso   1.000  C
  C86      1.0000 0.82678  0.65356  0.64430  Biso   1.000  C
  C87      1.0000 0.34644  0.17322  0.64430  Biso   1.000  C
  C88      1.0000 0.17322  0.82678  0.14430  Biso   1.000  C
  C89      1.0000 0.17322  0.34644  0.14430  Biso   1.000  C
  C90      1.0000 0.65356  0.82678  0.14430  Biso   1.000  C
  C91      1.0000 0.17322  0.82678  0.35570  Biso   1.000  C
  C92      1.0000 0.65356  0.82678  0.35570  Biso   1.000  C
  C93      1.0000 0.17322  0.34644  0.35570  Biso   1.000  C
  C94      1.0000 0.82678  0.17322  0.85570  Biso   1.000  C
  C95      1.0000 0.34644  0.17322  0.85570  Biso   1.000  C
  C96      1.0000 0.82678  0.65356  0.85570  Biso   1.000  C
  C97      1.0000 0.85140  0.14860  0.69980  Biso   1.000  C
  C98      1.0000 0.85140  0.70280  0.69980  Biso   1.000  C
  C99      1.0000 0.29720  0.14860  0.69980  Biso   1.000  C
  C100     1.0000 0.14860  0.85140  0.19980  Biso   1.000  C
  C101     1.0000 0.14860  0.29720  0.19980  Biso   1.000  C
  C102     1.0000 0.70280  0.85140  0.19980  Biso   1.000  C
  C103     1.0000 0.14860  0.85140  0.30020  Biso   1.000  C
  C104     1.0000 0.70280  0.85140  0.30020  Biso   1.000  C
  C105     1.0000 0.14860  0.29720  0.30020  Biso   1.000  C
  C106     1.0000 0.85140  0.14860  0.80020  Biso   1.000  C
  C107     1.0000 0.29720  0.14860  0.80020  Biso   1.000  C
  C108     1.0000 0.85140  0.70280  0.80020  Biso   1.000  C
  C109     1.0000 0.82960  0.17040  0.75000  Biso   1.000  C
  C110     1.0000 0.82960  0.65920  0.75000  Biso   1.000  C
  C111     1.0000 0.34080  0.17040  0.75000  Biso   1.000  C
  C112     1.0000 0.17040  0.82960  0.25000  Biso   1.000  C
  C113     1.0000 0.17040  0.34080  0.25000  Biso   1.000  C
  C114     1.0000 0.65920  0.82960  0.25000  Biso   1.000  C
  C115     1.0000 0.78170  0.21830  0.75000  Biso   1.000  C
  C116     1.0000 0.78170  0.56340  0.75000  Biso   1.000  C
  C117     1.0000 0.43660  0.21830  0.75000  Biso   1.000  C
  C118     1.0000 0.21830  0.78170  0.25000  Biso   1.000  C
  C119     1.0000 0.21830  0.43660  0.25000  Biso   1.000  C
  C120     1.0000 0.56340  0.78170  0.25000  Biso   1.000  C
  H61      1.0000 0.77170  0.22830  0.78820  Biso   1.000  H
  H62      1.0000 0.77170  0.54340  0.78820  Biso   1.000  H
  H63      1.0000 0.45660  0.22830  0.78820  Biso   1.000  H
  H64      1.0000 0.22830  0.77170  0.28820  Biso   1.000  H
  H65      1.0000 0.22830  0.45660  0.28820  Biso   1.000  H
  H66      1.0000 0.54340  0.77170  0.28820  Biso   1.000  H
  H67      1.0000 0.22830  0.77170  0.21180  Biso   1.000  H
  H68      1.0000 0.54340  0.77170  0.21180  Biso   1.000  H
  H69      1.0000 0.22830  0.45660  0.21180  Biso   1.000  H
  H70      1.0000 0.77170  0.22830  0.71180  Biso   1.000  H
  H71      1.0000 0.45660  0.22830  0.71180  Biso   1.000  H
  H72      1.0000 0.77170  0.54340  0.71180  Biso   1.000  H
  H73      1.0000 0.81430  0.27130  0.73090  Biso   1.000  H
  H74      1.0000 0.72870  0.54300  0.73090  Biso   1.000  H
  H75      1.0000 0.45700  0.18570  0.73090  Biso   1.000  H
  H76      1.0000 0.18570  0.72870  0.23090  Biso   1.000  H
  H77      1.0000 0.27130  0.45700  0.23090  Biso   1.000  H
  H78      1.0000 0.54300  0.81430  0.23090  Biso   1.000  H
  H79      1.0000 0.27130  0.81430  0.26910  Biso   1.000  H
  H80      1.0000 0.54300  0.72870  0.26910  Biso   1.000  H
  H81      1.0000 0.18570  0.45700  0.26910  Biso   1.000  H
  H82      1.0000 0.72870  0.18570  0.76910  Biso   1.000  H
  H83      1.0000 0.45700  0.27130  0.76910  Biso   1.000  H
  H84      1.0000 0.81430  0.54300  0.76910  Biso   1.000  H
  H85      1.0000 0.18570  0.72870  0.26910  Biso   1.000  H
  H86      1.0000 0.27130  0.45700  0.26910  Biso   1.000  H
  H87      1.0000 0.54300  0.81430  0.26910  Biso   1.000  H
  H88      1.0000 0.81430  0.27130  0.76910  Biso   1.000  H
  H89      1.0000 0.72870  0.54300  0.76910  Biso   1.000  H
  H90      1.0000 0.45700  0.18570  0.76910  Biso   1.000  H
  H91      1.0000 0.72870  0.18570  0.73090  Biso   1.000  H
  H92      1.0000 0.45700  0.27130  0.73090  Biso   1.000  H
  H93      1.0000 0.81430  0.54300  0.73090  Biso   1.000  H
  H94      1.0000 0.27130  0.81430  0.23090  Biso   1.000  H
  H95      1.0000 0.54300  0.72870  0.23090  Biso   1.000  H
  H96      1.0000 0.18570  0.45700  0.23090  Biso   1.000  H
  C121     1.0000 0.89456  0.10544  0.69790  Biso   1.000  C
  C122     1.0000 0.89456  0.78912  0.69790  Biso   1.000  C
  C123     1.0000 0.21088  0.10544  0.69790  Biso   1.000  C
  C124     1.0000 0.10544  0.89456  0.19790  Biso   1.000  C
  C125     1.0000 0.10544  0.21088  0.19790  Biso   1.000  C
  C126     1.0000 0.78912  0.89456  0.19790  Biso   1.000  C
  C127     1.0000 0.10544  0.89456  0.30210  Biso   1.000  C
  C128     1.0000 0.78912  0.89456  0.30210  Biso   1.000  C
  C129     1.0000 0.10544  0.21088  0.30210  Biso   1.000  C
  C130     1.0000 0.89456  0.10544  0.80210  Biso   1.000  C
  C131     1.0000 0.21088  0.10544  0.80210  Biso   1.000  C
  C132     1.0000 0.89456  0.78912  0.80210  Biso   1.000  C
  C133     1.0000 0.91906  0.08094  0.64490  Biso   1.000  C
  C134     1.0000 0.91906  0.83812  0.64490  Biso   1.000  C
  C135     1.0000 0.16188  0.08094  0.64490  Biso   1.000  C
  C136     1.0000 0.08094  0.91906  0.14490  Biso   1.000  C
  C137     1.0000 0.08094  0.16188  0.14490  Biso   1.000  C
  C138     1.0000 0.83812  0.91906  0.14490  Biso   1.000  C
  C139     1.0000 0.08094  0.91906  0.35510  Biso   1.000  C
  C140     1.0000 0.83812  0.91906  0.35510  Biso   1.000  C
  C141     1.0000 0.08094  0.16188  0.35510  Biso   1.000  C
  C142     1.0000 0.91906  0.08094  0.85510  Biso   1.000  C
  C143     1.0000 0.16188  0.08094  0.85510  Biso   1.000  C
  C144     1.0000 0.91906  0.83812  0.85510  Biso   1.000  C
  H97      1.0000 0.90040  0.09960  0.61320  Biso   1.000  H
  H98      1.0000 0.90040  0.80080  0.61320  Biso   1.000  H
  H99      1.0000 0.19920  0.09960  0.61320  Biso   1.000  H
  H100     1.0000 0.09960  0.90040  0.11320  Biso   1.000  H
  H101     1.0000 0.09960  0.19920  0.11320  Biso   1.000  H
  H102     1.0000 0.80080  0.90040  0.11320  Biso   1.000  H
  H103     1.0000 0.09960  0.90040  0.38680  Biso   1.000  H
  H104     1.0000 0.80080  0.90040  0.38680  Biso   1.000  H
  H105     1.0000 0.09960  0.19920  0.38680  Biso   1.000  H
  H106     1.0000 0.90040  0.09960  0.88680  Biso   1.000  H
  H107     1.0000 0.19920  0.09960  0.88680  Biso   1.000  H
  H108     1.0000 0.90040  0.80080  0.88680  Biso   1.000  H
  H109     1.0000 0.97910  0.10510  0.64370  Biso   1.000  H
  H110     1.0000 0.89490  0.87400  0.64370  Biso   1.000  H
  H111     1.0000 0.12600  0.02090  0.64370  Biso   1.000  H
  H112     1.0000 0.02090  0.89490  0.14370  Biso   1.000  H
  H113     1.0000 0.10510  0.12600  0.14370  Biso   1.000  H
  H114     1.0000 0.87400  0.97910  0.14370  Biso   1.000  H
  H115     1.0000 0.10510  0.97910  0.35630  Biso   1.000  H
  H116     1.0000 0.87400  0.89490  0.35630  Biso   1.000  H
  H117     1.0000 0.02090  0.12600  0.35630  Biso   1.000  H
  H118     1.0000 0.89490  0.02090  0.85630  Biso   1.000  H
  H119     1.0000 0.12600  0.10510  0.85630  Biso   1.000  H
  H120     1.0000 0.97910  0.87400  0.85630  Biso   1.000  H
  H121     1.0000 0.02090  0.89490  0.35630  Biso   1.000  H
  H122     1.0000 0.10510  0.12600  0.35630  Biso   1.000  H
  H123     1.0000 0.87400  0.97910  0.35630  Biso   1.000  H
  H124     1.0000 0.97910  0.10510  0.85630  Biso   1.000  H
  H125     1.0000 0.89490  0.87400  0.85630  Biso   1.000  H
  H126     1.0000 0.12600  0.02090  0.85630  Biso   1.000  H
  H127     1.0000 0.89490  0.02090  0.64370  Biso   1.000  H
  H128     1.0000 0.12600  0.10510  0.64370  Biso   1.000  H
  H129     1.0000 0.97910  0.87400  0.64370  Biso   1.000  H
  H130     1.0000 0.10510  0.97910  0.14370  Biso   1.000  H
  H131     1.0000 0.87400  0.89490  0.14370  Biso   1.000  H
  H132     1.0000 0.02090  0.12600  0.14370  Biso   1.000  H
  C145     1.0000 0.91510  0.08490  0.75000  Biso   1.000  C
  C146     1.0000 0.91510  0.83020  0.75000  Biso   1.000  C
  C147     1.0000 0.16980  0.08490  0.75000  Biso   1.000  C
  C148     1.0000 0.08490  0.91510  0.25000  Biso   1.000  C
  C149     1.0000 0.08490  0.16980  0.25000  Biso   1.000  C
  C150     1.0000 0.83020  0.91510  0.25000  Biso   1.000  C
  H133     1.0000 0.94490  0.05510  0.75000  Biso   1.000  H
  H134     1.0000 0.94490  0.88980  0.75000  Biso   1.000  H
  H135     1.0000 0.11020  0.05510  0.75000  Biso   1.000  H
  H136     1.0000 0.05510  0.94490  0.25000  Biso   1.000  H
  H137     1.0000 0.05510  0.11020  0.25000  Biso   1.000  H
  H138     1.0000 0.88980  0.94490  0.25000  Biso   1.000  H
