data_image0
_cell_length_a       18.4124
_cell_length_b       18.4124
_cell_length_c       23.7198
_cell_angle_alpha    90
_cell_angle_beta     90
_cell_angle_gamma    120

_symmetry_space_group_name_H-M    "P 1"
_symmetry_int_tables_number       1

loop_
  _symmetry_equiv_pos_as_xyz
  'x, y, z'

loop_
  _atom_site_label
  _atom_site_occupancy
  _atom_site_fract_x
  _atom_site_fract_y
  _atom_site_fract_z
  _atom_site_thermal_displace_type
  _atom_site_B_iso_or_equiv
  _atom_site_type_symbol
  Cu1      1.0000 0.52447  0.04895  0.45493  Biso   1.000  Cu
  Cu2      1.0000 0.95105  0.47552  0.45493  Biso   1.000  Cu
  Cu3      1.0000 0.52448  0.47553  0.45493  Biso   1.000  Cu
  Cu4      1.0000 0.47553  0.95105  0.95493  Biso   1.000  Cu
  Cu5      1.0000 0.04895  0.52448  0.95493  Biso   1.000  Cu
  Cu6      1.0000 0.47552  0.52447  0.95493  Biso   1.000  Cu
  Cu7      1.0000 0.04895  0.52447  0.54507  Biso   1.000  Cu
  Cu8      1.0000 0.47552  0.95105  0.54507  Biso   1.000  Cu
  Cu9      1.0000 0.47553  0.52448  0.54507  Biso   1.000  Cu
  Cu10     1.0000 0.95105  0.47553  0.04507  Biso   1.000  Cu
  Cu11     1.0000 0.52448  0.04895  0.04507  Biso   1.000  Cu
  Cu12     1.0000 0.52447  0.47552  0.04507  Biso   1.000  Cu
  O1       1.0000 0.62896  0.11046  0.49631  Biso   1.000  O
  O2       1.0000 0.88954  0.51850  0.49631  Biso   1.000  O
  O3       1.0000 0.48150  0.37104  0.49631  Biso   1.000  O
  O4       1.0000 0.37104  0.88954  0.99631  Biso   1.000  O
  O5       1.0000 0.11046  0.48150  0.99631  Biso   1.000  O
  O6       1.0000 0.51850  0.62896  0.99631  Biso   1.000  O
  O7       1.0000 0.11046  0.62896  0.50369  Biso   1.000  O
  O8       1.0000 0.51850  0.88954  0.50369  Biso   1.000  O
  O9       1.0000 0.37104  0.48150  0.50369  Biso   1.000  O
  O10      1.0000 0.88954  0.37104  0.00369  Biso   1.000  O
  O11      1.0000 0.48150  0.11046  0.00369  Biso   1.000  O
  O12      1.0000 0.62896  0.51850  0.00369  Biso   1.000  O
  O13      1.0000 0.37104  0.88954  0.50369  Biso   1.000  O
  O14      1.0000 0.11046  0.48150  0.50369  Biso   1.000  O
  O15      1.0000 0.51850  0.62896  0.50369  Biso   1.000  O
  O16      1.0000 0.62896  0.11046  0.00369  Biso   1.000  O
  O17      1.0000 0.88954  0.51850  0.00369  Biso   1.000  O
  O18      1.0000 0.48150  0.37104  0.00369  Biso   1.000  O
  O19      1.0000 0.88954  0.37104  0.49631  Biso   1.000  O
  O20      1.0000 0.48150  0.11046  0.49631  Biso   1.000  O
  O21      1.0000 0.62896  0.51850  0.49631  Biso   1.000  O
  O22      1.0000 0.11046  0.62896  0.99631  Biso   1.000  O
  O23      1.0000 0.51850  0.88954  0.99631  Biso   1.000  O
  O24      1.0000 0.37104  0.48150  0.99631  Biso   1.000  O
  O25      1.0000 0.58938  0.02661  0.57232  Biso   1.000  O
  O26      1.0000 0.97339  0.56277  0.57232  Biso   1.000  O
  O27      1.0000 0.43723  0.41062  0.57232  Biso   1.000  O
  O28      1.0000 0.41062  0.97339  0.07232  Biso   1.000  O
  O29      1.0000 0.02661  0.43723  0.07232  Biso   1.000  O
  O30      1.0000 0.56277  0.58938  0.07232  Biso   1.000  O
  O31      1.0000 0.02661  0.58938  0.42768  Biso   1.000  O
  O32      1.0000 0.56277  0.97339  0.42768  Biso   1.000  O
  O33      1.0000 0.41062  0.43723  0.42768  Biso   1.000  O
  O34      1.0000 0.97339  0.41062  0.92768  Biso   1.000  O
  O35      1.0000 0.43723  0.02661  0.92768  Biso   1.000  O
  O36      1.0000 0.58938  0.56277  0.92768  Biso   1.000  O
  O37      1.0000 0.41062  0.97339  0.42768  Biso   1.000  O
  O38      1.0000 0.02661  0.43723  0.42768  Biso   1.000  O
  O39      1.0000 0.56277  0.58938  0.42768  Biso   1.000  O
  O40      1.0000 0.58938  0.02661  0.92768  Biso   1.000  O
  O41      1.0000 0.97339  0.56277  0.92768  Biso   1.000  O
  O42      1.0000 0.43723  0.41062  0.92768  Biso   1.000  O
  O43      1.0000 0.97339  0.41062  0.57232  Biso   1.000  O
  O44      1.0000 0.43723  0.02661  0.57232  Biso   1.000  O
  O45      1.0000 0.58938  0.56277  0.57232  Biso   1.000  O
  O46      1.0000 0.02661  0.58938  0.07232  Biso   1.000  O
  O47      1.0000 0.56277  0.97339  0.07232  Biso   1.000  O
  O48      1.0000 0.41062  0.43723  0.07232  Biso   1.000  O
  O49      1.0000 0.56420  0.12840  0.38250  Biso   1.000  O
  O50      1.0000 0.87160  0.43580  0.38250  Biso   1.000  O
  O51      1.0000 0.56420  0.43580  0.38250  Biso   1.000  O
  O52      1.0000 0.43580  0.87160  0.88250  Biso   1.000  O
  O53      1.0000 0.12840  0.56420  0.88250  Biso   1.000  O
  O54      1.0000 0.43580  0.56420  0.88250  Biso   1.000  O
  O55      1.0000 0.12840  0.56420  0.61750  Biso   1.000  O
  O56      1.0000 0.43580  0.87160  0.61750  Biso   1.000  O
  O57      1.0000 0.43580  0.56420  0.61750  Biso   1.000  O
  O58      1.0000 0.87160  0.43580  0.11750  Biso   1.000  O
  O59      1.0000 0.56420  0.12840  0.11750  Biso   1.000  O
  O60      1.0000 0.56420  0.43580  0.11750  Biso   1.000  O
  H1       1.0000 0.52410  0.10900  0.35890  Biso   1.000  H
  H2       1.0000 0.89100  0.41510  0.35890  Biso   1.000  H
  H3       1.0000 0.58490  0.47590  0.35890  Biso   1.000  H
  H4       1.0000 0.47590  0.89100  0.85890  Biso   1.000  H
  H5       1.0000 0.10900  0.58490  0.85890  Biso   1.000  H
  H6       1.0000 0.41510  0.52410  0.85890  Biso   1.000  H
  H7       1.0000 0.10900  0.52410  0.64110  Biso   1.000  H
  H8       1.0000 0.41510  0.89100  0.64110  Biso   1.000  H
  H9       1.0000 0.47590  0.58490  0.64110  Biso   1.000  H
  H10      1.0000 0.89100  0.47590  0.14110  Biso   1.000  H
  H11      1.0000 0.58490  0.10900  0.14110  Biso   1.000  H
  H12      1.0000 0.52410  0.41510  0.14110  Biso   1.000  H
  H13      1.0000 0.47590  0.89100  0.64110  Biso   1.000  H
  H14      1.0000 0.10900  0.58490  0.64110  Biso   1.000  H
  H15      1.0000 0.41510  0.52410  0.64110  Biso   1.000  H
  H16      1.0000 0.52410  0.10900  0.14110  Biso   1.000  H
  H17      1.0000 0.89100  0.41510  0.14110  Biso   1.000  H
  H18      1.0000 0.58490  0.47590  0.14110  Biso   1.000  H
  H19      1.0000 0.89100  0.47590  0.35890  Biso   1.000  H
  H20      1.0000 0.58490  0.10900  0.35890  Biso   1.000  H
  H21      1.0000 0.52410  0.41510  0.35890  Biso   1.000  H
  H22      1.0000 0.10900  0.52410  0.85890  Biso   1.000  H
  H23      1.0000 0.41510  0.89100  0.85890  Biso   1.000  H
  H24      1.0000 0.47590  0.58490  0.85890  Biso   1.000  H
  C1       1.0000 0.64200  0.08860  0.54493  Biso   1.000  C
  C2       1.0000 0.91140  0.55340  0.54493  Biso   1.000  C
  C3       1.0000 0.44660  0.35800  0.54493  Biso   1.000  C
  C4       1.0000 0.35800  0.91140  0.04493  Biso   1.000  C
  C5       1.0000 0.08860  0.44660  0.04493  Biso   1.000  C
  C6       1.0000 0.55340  0.64200  0.04493  Biso   1.000  C
  C7       1.0000 0.08860  0.64200  0.45507  Biso   1.000  C
  C8       1.0000 0.55340  0.91140  0.45507  Biso   1.000  C
  C9       1.0000 0.35800  0.44660  0.45507  Biso   1.000  C
  C10      1.0000 0.91140  0.35800  0.95507  Biso   1.000  C
  C11      1.0000 0.44660  0.08860  0.95507  Biso   1.000  C
  C12      1.0000 0.64200  0.55340  0.95507  Biso   1.000  C
  C13      1.0000 0.35800  0.91140  0.45507  Biso   1.000  C
  C14      1.0000 0.08860  0.44660  0.45507  Biso   1.000  C
  C15      1.0000 0.55340  0.64200  0.45507  Biso   1.000  C
  C16      1.0000 0.64200  0.08860  0.95507  Biso   1.000  C
  C17      1.0000 0.91140  0.55340  0.95507  Biso   1.000  C
  C18      1.0000 0.44660  0.35800  0.95507  Biso   1.000  C
  C19      1.0000 0.91140  0.35800  0.54493  Biso   1.000  C
  C20      1.0000 0.44660  0.08860  0.54493  Biso   1.000  C
  C21      1.0000 0.64200  0.55340  0.54493  Biso   1.000  C
  C22      1.0000 0.08860  0.64200  0.04493  Biso   1.000  C
  C23      1.0000 0.55340  0.91140  0.04493  Biso   1.000  C
  C24      1.0000 0.35800  0.44660  0.04493  Biso   1.000  C
  C25      1.0000 0.72510  0.14340  0.57064  Biso   1.000  C
  C26      1.0000 0.85660  0.58170  0.57064  Biso   1.000  C
  C27      1.0000 0.41830  0.27490  0.57064  Biso   1.000  C
  C28      1.0000 0.27490  0.85660  0.07064  Biso   1.000  C
  C29      1.0000 0.14340  0.41830  0.07064  Biso   1.000  C
  C30      1.0000 0.58170  0.72510  0.07064  Biso   1.000  C
  C31      1.0000 0.14340  0.72510  0.42936  Biso   1.000  C
  C32      1.0000 0.58170  0.85660  0.42936  Biso   1.000  C
  C33      1.0000 0.27490  0.41830  0.42936  Biso   1.000  C
  C34      1.0000 0.85660  0.27490  0.92936  Biso   1.000  C
  C35      1.0000 0.41830  0.14340  0.92936  Biso   1.000  C
  C36      1.0000 0.72510  0.58170  0.92936  Biso   1.000  C
  C37      1.0000 0.27490  0.85660  0.42936  Biso   1.000  C
  C38      1.0000 0.14340  0.41830  0.42936  Biso   1.000  C
  C39      1.0000 0.58170  0.72510  0.42936  Biso   1.000  C
  C40      1.0000 0.72510  0.14340  0.92936  Biso   1.000  C
  C41      1.0000 0.85660  0.58170  0.92936  Biso   1.000  C
  C42      1.0000 0.41830  0.27490  0.92936  Biso   1.000  C
  C43      1.0000 0.85660  0.27490  0.57064  Biso   1.000  C
  C44      1.0000 0.41830  0.14340  0.57064  Biso   1.000  C
  C45      1.0000 0.72510  0.58170  0.57064  Biso   1.000  C
  C46      1.0000 0.14340  0.72510  0.07064  Biso   1.000  C
  C47      1.0000 0.58170  0.85660  0.07064  Biso   1.000  C
  C48      1.0000 0.27490  0.41830  0.07064  Biso   1.000  C
  C49      1.0000 0.77964  0.22036  0.54580  Biso   1.000  C
  C50      1.0000 0.77964  0.55928  0.54580  Biso   1.000  C
  C51      1.0000 0.44072  0.22036  0.54580  Biso   1.000  C
  C52      1.0000 0.22036  0.77964  0.04580  Biso   1.000  C
  C53      1.0000 0.22036  0.44072  0.04580  Biso   1.000  C
  C54      1.0000 0.55928  0.77964  0.04580  Biso   1.000  C
  C55      1.0000 0.22036  0.77964  0.45420  Biso   1.000  C
  C56      1.0000 0.55928  0.77964  0.45420  Biso   1.000  C
  C57      1.0000 0.22036  0.44072  0.45420  Biso   1.000  C
  C58      1.0000 0.77964  0.22036  0.95420  Biso   1.000  C
  C59      1.0000 0.44072  0.22036  0.95420  Biso   1.000  C
  C60      1.0000 0.77964  0.55928  0.95420  Biso   1.000  C
  H25      1.0000 0.76280  0.23720  0.51220  Biso   1.000  H
  H26      1.0000 0.76280  0.52560  0.51220  Biso   1.000  H
  H27      1.0000 0.47440  0.23720  0.51220  Biso   1.000  H
  H28      1.0000 0.23720  0.76280  0.01220  Biso   1.000  H
  H29      1.0000 0.23720  0.47440  0.01220  Biso   1.000  H
  H30      1.0000 0.52560  0.76280  0.01220  Biso   1.000  H
  H31      1.0000 0.23720  0.76280  0.48780  Biso   1.000  H
  H32      1.0000 0.52560  0.76280  0.48780  Biso   1.000  H
  H33      1.0000 0.23720  0.47440  0.48780  Biso   1.000  H
  H34      1.0000 0.76280  0.23720  0.98780  Biso   1.000  H
  H35      1.0000 0.47440  0.23720  0.98780  Biso   1.000  H
  H36      1.0000 0.76280  0.52560  0.98780  Biso   1.000  H
  C61      1.0000 0.75020  0.12190  0.62017  Biso   1.000  C
  C62      1.0000 0.87810  0.62830  0.62017  Biso   1.000  C
  C63      1.0000 0.37170  0.24980  0.62017  Biso   1.000  C
  C64      1.0000 0.24980  0.87810  0.12017  Biso   1.000  C
  C65      1.0000 0.12190  0.37170  0.12017  Biso   1.000  C
  C66      1.0000 0.62830  0.75020  0.12017  Biso   1.000  C
  C67      1.0000 0.12190  0.75020  0.37983  Biso   1.000  C
  C68      1.0000 0.62830  0.87810  0.37983  Biso   1.000  C
  C69      1.0000 0.24980  0.37170  0.37983  Biso   1.000  C
  C70      1.0000 0.87810  0.24980  0.87983  Biso   1.000  C
  C71      1.0000 0.37170  0.12190  0.87983  Biso   1.000  C
  C72      1.0000 0.75020  0.62830  0.87983  Biso   1.000  C
  C73      1.0000 0.24980  0.87810  0.37983  Biso   1.000  C
  C74      1.0000 0.12190  0.37170  0.37983  Biso   1.000  C
  C75      1.0000 0.62830  0.75020  0.37983  Biso   1.000  C
  C76      1.0000 0.75020  0.12190  0.87983  Biso   1.000  C
  C77      1.0000 0.87810  0.62830  0.87983  Biso   1.000  C
  C78      1.0000 0.37170  0.24980  0.87983  Biso   1.000  C
  C79      1.0000 0.87810  0.24980  0.62017  Biso   1.000  C
  C80      1.0000 0.37170  0.12190  0.62017  Biso   1.000  C
  C81      1.0000 0.75020  0.62830  0.62017  Biso   1.000  C
  C82      1.0000 0.12190  0.75020  0.12017  Biso   1.000  C
  C83      1.0000 0.62830  0.87810  0.12017  Biso   1.000  C
  C84      1.0000 0.24980  0.37170  0.12017  Biso   1.000  C
  H37      1.0000 0.71320  0.06900  0.63770  Biso   1.000  H
  H38      1.0000 0.93100  0.64420  0.63770  Biso   1.000  H
  H39      1.0000 0.35580  0.28680  0.63770  Biso   1.000  H
  H40      1.0000 0.28680  0.93100  0.13770  Biso   1.000  H
  H41      1.0000 0.06900  0.35580  0.13770  Biso   1.000  H
  H42      1.0000 0.64420  0.71320  0.13770  Biso   1.000  H
  H43      1.0000 0.06900  0.71320  0.36230  Biso   1.000  H
  H44      1.0000 0.64420  0.93100  0.36230  Biso   1.000  H
  H45      1.0000 0.28680  0.35580  0.36230  Biso   1.000  H
  H46      1.0000 0.93100  0.28680  0.86230  Biso   1.000  H
  H47      1.0000 0.35580  0.06900  0.86230  Biso   1.000  H
  H48      1.0000 0.71320  0.64420  0.86230  Biso   1.000  H
  H49      1.0000 0.28680  0.93100  0.36230  Biso   1.000  H
  H50      1.0000 0.06900  0.35580  0.36230  Biso   1.000  H
  H51      1.0000 0.64420  0.71320  0.36230  Biso   1.000  H
  H52      1.0000 0.71320  0.06900  0.86230  Biso   1.000  H
  H53      1.0000 0.93100  0.64420  0.86230  Biso   1.000  H
  H54      1.0000 0.35580  0.28680  0.86230  Biso   1.000  H
  H55      1.0000 0.93100  0.28680  0.63770  Biso   1.000  H
  H56      1.0000 0.35580  0.06900  0.63770  Biso   1.000  H
  H57      1.0000 0.71320  0.64420  0.63770  Biso   1.000  H
  H58      1.0000 0.06900  0.71320  0.13770  Biso   1.000  H
  H59      1.0000 0.64420  0.93100  0.13770  Biso   1.000  H
  H60      1.0000 0.28680  0.35580  0.13770  Biso   1.000  H
  C85      1.0000 0.82658  0.17342  0.64320  Biso   1.000  C
  C86      1.0000 0.82658  0.65316  0.64320  Biso   1.000  C
  C87      1.0000 0.34684  0.17342  0.64320  Biso   1.000  C
  C88      1.0000 0.17342  0.82658  0.14320  Biso   1.000  C
  C89      1.0000 0.17342  0.34684  0.14320  Biso   1.000  C
  C90      1.0000 0.65316  0.82658  0.14320  Biso   1.000  C
  C91      1.0000 0.17342  0.82658  0.35680  Biso   1.000  C
  C92      1.0000 0.65316  0.82658  0.35680  Biso   1.000  C
  C93      1.0000 0.17342  0.34684  0.35680  Biso   1.000  C
  C94      1.0000 0.82658  0.17342  0.85680  Biso   1.000  C
  C95      1.0000 0.34684  0.17342  0.85680  Biso   1.000  C
  C96      1.0000 0.82658  0.65316  0.85680  Biso   1.000  C
  C97      1.0000 0.85082  0.14918  0.70020  Biso   1.000  C
  C98      1.0000 0.85082  0.70164  0.70020  Biso   1.000  C
  C99      1.0000 0.29836  0.14918  0.70020  Biso   1.000  C
  C100     1.0000 0.14918  0.85082  0.20020  Biso   1.000  C
  C101     1.0000 0.14918  0.29836  0.20020  Biso   1.000  C
  C102     1.0000 0.70164  0.85082  0.20020  Biso   1.000  C
  C103     1.0000 0.14918  0.85082  0.29980  Biso   1.000  C
  C104     1.0000 0.70164  0.85082  0.29980  Biso   1.000  C
  C105     1.0000 0.14918  0.29836  0.29980  Biso   1.000  C
  C106     1.0000 0.85082  0.14918  0.79980  Biso   1.000  C
  C107     1.0000 0.29836  0.14918  0.79980  Biso   1.000  C
  C108     1.0000 0.85082  0.70164  0.79980  Biso   1.000  C
  C109     1.0000 0.82850  0.17150  0.75000  Biso   1.000  C
  C110     1.0000 0.82850  0.65700  0.75000  Biso   1.000  C
  C111     1.0000 0.34300  0.17150  0.75000  Biso   1.000  C
  C112     1.0000 0.17150  0.82850  0.25000  Biso   1.000  C
  C113     1.0000 0.17150  0.34300  0.25000  Biso   1.000  C
  C114     1.0000 0.65700  0.82850  0.25000  Biso   1.000  C
  C115     1.0000 0.78220  0.21780  0.75000  Biso   1.000  C
  C116     1.0000 0.78220  0.56440  0.75000  Biso   1.000  C
  C117     1.0000 0.43560  0.21780  0.75000  Biso   1.000  C
  C118     1.0000 0.21780  0.78220  0.25000  Biso   1.000  C
  C119     1.0000 0.21780  0.43560  0.25000  Biso   1.000  C
  C120     1.0000 0.56440  0.78220  0.25000  Biso   1.000  C
  H61      1.0000 0.77220  0.22780  0.78820  Biso   1.000  H
  H62      1.0000 0.77220  0.54440  0.78820  Biso   1.000  H
  H63      1.0000 0.45560  0.22780  0.78820  Biso   1.000  H
  H64      1.0000 0.22780  0.77220  0.28820  Biso   1.000  H
  H65      1.0000 0.22780  0.45560  0.28820  Biso   1.000  H
  H66      1.0000 0.54440  0.77220  0.28820  Biso   1.000  H
  H67      1.0000 0.22780  0.77220  0.21180  Biso   1.000  H
  H68      1.0000 0.54440  0.77220  0.21180  Biso   1.000  H
  H69      1.0000 0.22780  0.45560  0.21180  Biso   1.000  H
  H70      1.0000 0.77220  0.22780  0.71180  Biso   1.000  H
  H71      1.0000 0.45560  0.22780  0.71180  Biso   1.000  H
  H72      1.0000 0.77220  0.54440  0.71180  Biso   1.000  H
  H73      1.0000 0.81480  0.27130  0.73090  Biso   1.000  H
  H74      1.0000 0.72870  0.54350  0.73090  Biso   1.000  H
  H75      1.0000 0.45650  0.18520  0.73090  Biso   1.000  H
  H76      1.0000 0.18520  0.72870  0.23090  Biso   1.000  H
  H77      1.0000 0.27130  0.45650  0.23090  Biso   1.000  H
  H78      1.0000 0.54350  0.81480  0.23090  Biso   1.000  H
  H79      1.0000 0.27130  0.81480  0.26910  Biso   1.000  H
  H80      1.0000 0.54350  0.72870  0.26910  Biso   1.000  H
  H81      1.0000 0.18520  0.45650  0.26910  Biso   1.000  H
  H82      1.0000 0.72870  0.18520  0.76910  Biso   1.000  H
  H83      1.0000 0.45650  0.27130  0.76910  Biso   1.000  H
  H84      1.0000 0.81480  0.54350  0.76910  Biso   1.000  H
  H85      1.0000 0.18520  0.72870  0.26910  Biso   1.000  H
  H86      1.0000 0.27130  0.45650  0.26910  Biso   1.000  H
  H87      1.0000 0.54350  0.81480  0.26910  Biso   1.000  H
  H88      1.0000 0.81480  0.27130  0.76910  Biso   1.000  H
  H89      1.0000 0.72870  0.54350  0.76910  Biso   1.000  H
  H90      1.0000 0.45650  0.18520  0.76910  Biso   1.000  H
  H91      1.0000 0.72870  0.18520  0.73090  Biso   1.000  H
  H92      1.0000 0.45650  0.27130  0.73090  Biso   1.000  H
  H93      1.0000 0.81480  0.54350  0.73090  Biso   1.000  H
  H94      1.0000 0.27130  0.81480  0.23090  Biso   1.000  H
  H95      1.0000 0.54350  0.72870  0.23090  Biso   1.000  H
  H96      1.0000 0.18520  0.45650  0.23090  Biso   1.000  H
  C121     1.0000 0.89399  0.10601  0.69820  Biso   1.000  C
  C122     1.0000 0.89399  0.78798  0.69820  Biso   1.000  C
  C123     1.0000 0.21202  0.10601  0.69820  Biso   1.000  C
  C124     1.0000 0.10601  0.89399  0.19820  Biso   1.000  C
  C125     1.0000 0.10601  0.21202  0.19820  Biso   1.000  C
  C126     1.0000 0.78798  0.89399  0.19820  Biso   1.000  C
  C127     1.0000 0.10601  0.89399  0.30180  Biso   1.000  C
  C128     1.0000 0.78798  0.89399  0.30180  Biso   1.000  C
  C129     1.0000 0.10601  0.21202  0.30180  Biso   1.000  C
  C130     1.0000 0.89399  0.10601  0.80180  Biso   1.000  C
  C131     1.0000 0.21202  0.10601  0.80180  Biso   1.000  C
  C132     1.0000 0.89399  0.78798  0.80180  Biso   1.000  C
  C133     1.0000 0.91910  0.08090  0.64490  Biso   1.000  C
  C134     1.0000 0.91910  0.83820  0.64490  Biso   1.000  C
  C135     1.0000 0.16180  0.08090  0.64490  Biso   1.000  C
  C136     1.0000 0.08090  0.91910  0.14490  Biso   1.000  C
  C137     1.0000 0.08090  0.16180  0.14490  Biso   1.000  C
  C138     1.0000 0.83820  0.91910  0.14490  Biso   1.000  C
  C139     1.0000 0.08090  0.91910  0.35510  Biso   1.000  C
  C140     1.0000 0.83820  0.91910  0.35510  Biso   1.000  C
  C141     1.0000 0.08090  0.16180  0.35510  Biso   1.000  C
  C142     1.0000 0.91910  0.08090  0.85510  Biso   1.000  C
  C143     1.0000 0.16180  0.08090  0.85510  Biso   1.000  C
  C144     1.0000 0.91910  0.83820  0.85510  Biso   1.000  C
  H97      1.0000 0.90040  0.09960  0.61310  Biso   1.000  H
  H98      1.0000 0.90040  0.80080  0.61310  Biso   1.000  H
  H99      1.0000 0.19920  0.09960  0.61310  Biso   1.000  H
  H100     1.0000 0.09960  0.90040  0.11310  Biso   1.000  H
  H101     1.0000 0.09960  0.19920  0.11310  Biso   1.000  H
  H102     1.0000 0.80080  0.90040  0.11310  Biso   1.000  H
  H103     1.0000 0.09960  0.90040  0.38690  Biso   1.000  H
  H104     1.0000 0.80080  0.90040  0.38690  Biso   1.000  H
  H105     1.0000 0.09960  0.19920  0.38690  Biso   1.000  H
  H106     1.0000 0.90040  0.09960  0.88690  Biso   1.000  H
  H107     1.0000 0.19920  0.09960  0.88690  Biso   1.000  H
  H108     1.0000 0.90040  0.80080  0.88690  Biso   1.000  H
  H109     1.0000 0.97910  0.10510  0.64370  Biso   1.000  H
  H110     1.0000 0.89490  0.87400  0.64370  Biso   1.000  H
  H111     1.0000 0.12600  0.02090  0.64370  Biso   1.000  H
  H112     1.0000 0.02090  0.89490  0.14370  Biso   1.000  H
  H113     1.0000 0.10510  0.12600  0.14370  Biso   1.000  H
  H114     1.0000 0.87400  0.97910  0.14370  Biso   1.000  H
  H115     1.0000 0.10510  0.97910  0.35630  Biso   1.000  H
  H116     1.0000 0.87400  0.89490  0.35630  Biso   1.000  H
  H117     1.0000 0.02090  0.12600  0.35630  Biso   1.000  H
  H118     1.0000 0.89490  0.02090  0.85630  Biso   1.000  H
  H119     1.0000 0.12600  0.10510  0.85630  Biso   1.000  H
  H120     1.0000 0.97910  0.87400  0.85630  Biso   1.000  H
  H121     1.0000 0.02090  0.89490  0.35630  Biso   1.000  H
  H122     1.0000 0.10510  0.12600  0.35630  Biso   1.000  H
  H123     1.0000 0.87400  0.97910  0.35630  Biso   1.000  H
  H124     1.0000 0.97910  0.10510  0.85630  Biso   1.000  H
  H125     1.0000 0.89490  0.87400  0.85630  Biso   1.000  H
  H126     1.0000 0.12600  0.02090  0.85630  Biso   1.000  H
  H127     1.0000 0.89490  0.02090  0.64370  Biso   1.000  H
  H128     1.0000 0.12600  0.10510  0.64370  Biso   1.000  H
  H129     1.0000 0.97910  0.87400  0.64370  Biso   1.000  H
  H130     1.0000 0.10510  0.97910  0.14370  Biso   1.000  H
  H131     1.0000 0.87400  0.89490  0.14370  Biso   1.000  H
  H132     1.0000 0.02090  0.12600  0.14370  Biso   1.000  H
  C145     1.0000 0.91390  0.08610  0.75000  Biso   1.000  C
  C146     1.0000 0.91390  0.82780  0.75000  Biso   1.000  C
  C147     1.0000 0.17220  0.08610  0.75000  Biso   1.000  C
  C148     1.0000 0.08610  0.91390  0.25000  Biso   1.000  C
  C149     1.0000 0.08610  0.17220  0.25000  Biso   1.000  C
  C150     1.0000 0.82780  0.91390  0.25000  Biso   1.000  C
  H133     1.0000 0.94370  0.05630  0.75000  Biso   1.000  H
  H134     1.0000 0.94370  0.88740  0.75000  Biso   1.000  H
  H135     1.0000 0.11260  0.05630  0.75000  Biso   1.000  H
  H136     1.0000 0.05630  0.94370  0.25000  Biso   1.000  H
  H137     1.0000 0.05630  0.11260  0.25000  Biso   1.000  H
  H138     1.0000 0.88740  0.94370  0.25000  Biso   1.000  H
