data_image0
_cell_length_a       8.252
_cell_length_b       9.986
_cell_length_c       13.984
_cell_angle_alpha    90
_cell_angle_beta     106.83
_cell_angle_gamma    90

_symmetry_space_group_name_H-M    "P 1"
_symmetry_int_tables_number       1

loop_
  _symmetry_equiv_pos_as_xyz
  'x, y, z'

loop_
  _atom_site_label
  _atom_site_occupancy
  _atom_site_fract_x
  _atom_site_fract_y
  _atom_site_fract_z
  _atom_site_thermal_displace_type
  _atom_site_B_iso_or_equiv
  _atom_site_type_symbol
  Cu1      1.0000 0.60430  0.15850  0.21759  Biso   1.000  Cu
  Cu2      1.0000 0.39570  0.65850  0.28241  Biso   1.000  Cu
  Cu3      1.0000 0.39570  0.84150  0.78241  Biso   1.000  Cu
  Cu4      1.0000 0.60430  0.34150  0.71759  Biso   1.000  Cu
  N1       1.0000 0.74890  0.28180  0.15630  Biso   1.000  N
  N2       1.0000 0.25110  0.78180  0.34370  Biso   1.000  N
  N3       1.0000 0.25110  0.71820  0.84370  Biso   1.000  N
  N4       1.0000 0.74890  0.21820  0.65630  Biso   1.000  N
  C1       1.0000 0.90500  0.30320  0.24200  Biso   1.000  C
  C2       1.0000 0.09500  0.80320  0.25800  Biso   1.000  C
  C3       1.0000 0.09500  0.69680  0.75800  Biso   1.000  C
  C4       1.0000 0.90500  0.19680  0.74200  Biso   1.000  C
  C5       1.0000 0.94200  0.18170  0.31080  Biso   1.000  C
  C6       1.0000 0.05800  0.68170  0.18920  Biso   1.000  C
  C7       1.0000 0.05800  0.81830  0.68920  Biso   1.000  C
  C8       1.0000 0.94200  0.31830  0.81080  Biso   1.000  C
  C9       1.0000 0.65600  0.40990  0.12920  Biso   1.000  C
  C10      1.0000 0.34400  0.90990  0.37080  Biso   1.000  C
  C11      1.0000 0.34400  0.59010  0.87080  Biso   1.000  C
  C12      1.0000 0.65600  0.09010  0.62920  Biso   1.000  C
  C13      1.0000 0.56820  0.45010  0.20750  Biso   1.000  C
  C14      1.0000 0.43180  0.95010  0.29250  Biso   1.000  C
  C15      1.0000 0.43180  0.54990  0.79250  Biso   1.000  C
  C16      1.0000 0.56820  0.04990  0.70750  Biso   1.000  C
  C17      1.0000 0.79400  0.23190  0.06740  Biso   1.000  C
  C18      1.0000 0.20600  0.73190  0.43260  Biso   1.000  C
  C19      1.0000 0.20600  0.76810  0.93260  Biso   1.000  C
  C20      1.0000 0.79400  0.26810  0.56740  Biso   1.000  C
  C21      1.0000 0.90500  0.10600  0.08760  Biso   1.000  C
  C22      1.0000 0.09500  0.60600  0.41240  Biso   1.000  C
  C23      1.0000 0.09500  0.89400  0.91240  Biso   1.000  C
  C24      1.0000 0.90500  0.39400  0.58760  Biso   1.000  C
  C25      1.0000 0.94400  0.06260  0.99190  Biso   1.000  C
  C26      1.0000 0.05600  0.56260  0.50810  Biso   1.000  C
  C27      1.0000 0.05600  0.93740  0.00810  Biso   1.000  C
  C28      1.0000 0.94400  0.43740  0.49190  Biso   1.000  C
  O1       1.0000 0.82000  0.10570  0.30950  Biso   1.000  O
  O2       1.0000 0.18000  0.60570  0.19050  Biso   1.000  O
  O3       1.0000 0.18000  0.89430  0.69050  Biso   1.000  O
  O4       1.0000 0.82000  0.39430  0.80950  Biso   1.000  O
  O5       1.0000 0.08810  0.16820  0.36700  Biso   1.000  O
  O6       1.0000 0.91190  0.66820  0.13300  Biso   1.000  O
  O7       1.0000 0.91190  0.83180  0.63300  Biso   1.000  O
  O8       1.0000 0.08810  0.33180  0.86700  Biso   1.000  O
  O9       1.0000 0.54980  0.36880  0.26870  Biso   1.000  O
  O10      1.0000 0.45020  0.86880  0.23130  Biso   1.000  O
  O11      1.0000 0.45020  0.63120  0.73130  Biso   1.000  O
  O12      1.0000 0.54980  0.13120  0.76870  Biso   1.000  O
  O13      1.0000 0.52010  0.57270  0.20070  Biso   1.000  O
  O14      1.0000 0.47990  0.07270  0.29930  Biso   1.000  O
  O15      1.0000 0.47990  0.42730  0.79930  Biso   1.000  O
  O16      1.0000 0.52010  0.92730  0.70070  Biso   1.000  O
  O17      1.0000 0.40270  0.16370  0.10180  Biso   1.000  O
  O18      1.0000 0.59730  0.66370  0.39820  Biso   1.000  O
  O19      1.0000 0.59730  0.83630  0.89820  Biso   1.000  O
  O20      1.0000 0.40270  0.33630  0.60180  Biso   1.000  O
  H1       1.0000 0.00300  0.32000  0.21500  Biso   1.000  H
  H2       1.0000 0.99700  0.82000  0.28500  Biso   1.000  H
  H3       1.0000 0.99700  0.68000  0.78500  Biso   1.000  H
  H4       1.0000 0.00300  0.18000  0.71500  Biso   1.000  H
  H5       1.0000 0.88800  0.38300  0.28100  Biso   1.000  H
  H6       1.0000 0.11200  0.88300  0.21900  Biso   1.000  H
  H7       1.0000 0.11200  0.61700  0.71900  Biso   1.000  H
  H8       1.0000 0.88800  0.11700  0.78100  Biso   1.000  H
  H9       1.0000 0.74200  0.48100  0.12700  Biso   1.000  H
  H10      1.0000 0.25800  0.98100  0.37300  Biso   1.000  H
  H11      1.0000 0.25800  0.51900  0.87300  Biso   1.000  H
  H12      1.0000 0.74200  0.01900  0.62700  Biso   1.000  H
  H13      1.0000 0.57300  0.40200  0.06200  Biso   1.000  H
  H14      1.0000 0.42700  0.90200  0.43800  Biso   1.000  H
  H15      1.0000 0.42700  0.59800  0.93800  Biso   1.000  H
  H16      1.0000 0.57300  0.09800  0.56200  Biso   1.000  H
  H17      1.0000 0.85500  0.30400  0.04200  Biso   1.000  H
  H18      1.0000 0.14500  0.80400  0.45800  Biso   1.000  H
  H19      1.0000 0.14500  0.69600  0.95800  Biso   1.000  H
  H20      1.0000 0.85500  0.19600  0.54200  Biso   1.000  H
  H21      1.0000 0.68700  0.20900  0.01400  Biso   1.000  H
  H22      1.0000 0.31300  0.70900  0.48600  Biso   1.000  H
  H23      1.0000 0.31300  0.79100  0.98600  Biso   1.000  H
  H24      1.0000 0.68700  0.29100  0.51400  Biso   1.000  H
  H25      1.0000 0.01500  0.12700  0.14000  Biso   1.000  H
  H26      1.0000 0.98500  0.62700  0.36000  Biso   1.000  H
  H27      1.0000 0.98500  0.87300  0.86000  Biso   1.000  H
  H28      1.0000 0.01500  0.37300  0.64000  Biso   1.000  H
  H29      1.0000 0.84600  0.06600  0.11200  Biso   1.000  H
  H30      1.0000 0.15400  0.56600  0.38800  Biso   1.000  H
  H31      1.0000 0.15400  0.93400  0.88800  Biso   1.000  H
  H32      1.0000 0.84600  0.43400  0.61200  Biso   1.000  H
  H33      1.0000 0.41600  0.13700  0.07200  Biso   1.000  H
  H34      1.0000 0.58400  0.63700  0.42800  Biso   1.000  H
  H35      1.0000 0.58400  0.86300  0.92800  Biso   1.000  H
  H36      1.0000 0.41600  0.36300  0.57200  Biso   1.000  H
  H37      1.0000 0.32700  0.23300  0.10200  Biso   1.000  H
  H38      1.0000 0.67300  0.73300  0.39800  Biso   1.000  H
  H39      1.0000 0.67300  0.76700  0.89800  Biso   1.000  H
  H40      1.0000 0.32700  0.26700  0.60200  Biso   1.000  H
  O21      1.0000 0.18900  0.12400  0.57450  Biso   1.000  O
  O22      1.0000 0.81100  0.62400  0.92550  Biso   1.000  O
  O23      1.0000 0.81100  0.87600  0.42550  Biso   1.000  O
  O24      1.0000 0.18900  0.37600  0.07450  Biso   1.000  O
  H41      1.0000 0.15000  0.11600  0.49700  Biso   1.000  H
  H42      1.0000 0.85000  0.61600  0.00300  Biso   1.000  H
  H43      1.0000 0.85000  0.88400  0.50300  Biso   1.000  H
  H44      1.0000 0.15000  0.38400  0.99700  Biso   1.000  H
  H45      1.0000 0.16200  0.00300  0.57800  Biso   1.000  H
  H46      1.0000 0.83800  0.50300  0.92200  Biso   1.000  H
  H47      1.0000 0.83800  0.99700  0.42200  Biso   1.000  H
  H48      1.0000 0.16200  0.49700  0.07800  Biso   1.000  H
  O25      1.0000 0.63340  0.15120  0.09430  Biso   1.000  O
  O26      1.0000 0.36660  0.65120  0.40570  Biso   1.000  O
  O27      1.0000 0.36660  0.84880  0.90570  Biso   1.000  O
  O28      1.0000 0.63340  0.34880  0.59430  Biso   1.000  O
  H49      1.0000 0.83500  0.04100  0.05900  Biso   1.000  H
  H50      1.0000 0.16500  0.54100  0.44100  Biso   1.000  H
  H51      1.0000 0.16500  0.95900  0.94100  Biso   1.000  H
  H52      1.0000 0.83500  0.45900  0.55900  Biso   1.000  H
  H53      1.0000 0.00300  0.13600  0.03200  Biso   1.000  H
  H54      1.0000 0.99700  0.63600  0.46800  Biso   1.000  H
  H55      1.0000 0.99700  0.86400  0.96800  Biso   1.000  H
  H56      1.0000 0.00300  0.36400  0.53200  Biso   1.000  H
  H57      1.0000 0.64500  0.21900  0.10400  Biso   1.000  H
  H58      1.0000 0.35500  0.71900  0.39600  Biso   1.000  H
  H59      1.0000 0.35500  0.78100  0.89600  Biso   1.000  H
  H60      1.0000 0.64500  0.28100  0.60400  Biso   1.000  H
  H61      1.0000 0.56200  0.07200  0.14300  Biso   1.000  H
  H62      1.0000 0.43800  0.57200  0.35700  Biso   1.000  H
  H63      1.0000 0.43800  0.92800  0.85700  Biso   1.000  H
  H64      1.0000 0.56200  0.42800  0.64300  Biso   1.000  H
