data_image0
_cell_length_a       9.1991
_cell_length_b       15.7677
_cell_length_c       10.5419
_cell_angle_alpha    90
_cell_angle_beta     105.656
_cell_angle_gamma    90

_symmetry_space_group_name_H-M    "P 1"
_symmetry_int_tables_number       1

loop_
  _symmetry_equiv_pos_as_xyz
  'x, y, z'

loop_
  _atom_site_label
  _atom_site_occupancy
  _atom_site_fract_x
  _atom_site_fract_y
  _atom_site_fract_z
  _atom_site_thermal_displace_type
  _atom_site_B_iso_or_equiv
  _atom_site_type_symbol
  Cu1      1.0000 0.99330  0.24343  0.52882  Biso   1.000  Cu
  Cu2      1.0000 0.00670  0.74343  0.97118  Biso   1.000  Cu
  Cu3      1.0000 0.00670  0.75657  0.47118  Biso   1.000  Cu
  Cu4      1.0000 0.99330  0.25657  0.02882  Biso   1.000  Cu
  O1       1.0000 0.07973  0.34603  0.62504  Biso   1.000  O
  O2       1.0000 0.92027  0.84603  0.87496  Biso   1.000  O
  O3       1.0000 0.92027  0.65397  0.37496  Biso   1.000  O
  O4       1.0000 0.07973  0.15397  0.12504  Biso   1.000  O
  O5       1.0000 0.95761  0.18285  0.71828  Biso   1.000  O
  O6       1.0000 0.04239  0.68285  0.78172  Biso   1.000  O
  O7       1.0000 0.04239  0.81715  0.28172  Biso   1.000  O
  O8       1.0000 0.95761  0.31715  0.21828  Biso   1.000  O
  H1       1.0000 0.01500  0.16160  0.78600  Biso   1.000  H
  H2       1.0000 0.98500  0.66160  0.71400  Biso   1.000  H
  H3       1.0000 0.98500  0.83840  0.21400  Biso   1.000  H
  H4       1.0000 0.01500  0.33840  0.28600  Biso   1.000  H
  H5       1.0000 0.91000  0.14150  0.67700  Biso   1.000  H
  H6       1.0000 0.09000  0.64150  0.82300  Biso   1.000  H
  H7       1.0000 0.09000  0.85850  0.32300  Biso   1.000  H
  H8       1.0000 0.91000  0.35850  0.17700  Biso   1.000  H
  O9       1.0000 0.14179  0.38834  0.44416  Biso   1.000  O
  O10      1.0000 0.85821  0.88834  0.05584  Biso   1.000  O
  O11      1.0000 0.85821  0.61166  0.55584  Biso   1.000  O
  O12      1.0000 0.14179  0.11166  0.94416  Biso   1.000  O
  O13      1.0000 0.80783  0.07215  0.53851  Biso   1.000  O
  O14      1.0000 0.19217  0.57215  0.96149  Biso   1.000  O
  O15      1.0000 0.19217  0.92785  0.46149  Biso   1.000  O
  O16      1.0000 0.80783  0.42785  0.03851  Biso   1.000  O
  O17      1.0000 0.91486  0.14945  0.40891  Biso   1.000  O
  O18      1.0000 0.08514  0.64945  0.09109  Biso   1.000  O
  O19      1.0000 0.08514  0.85055  0.59109  Biso   1.000  O
  O20      1.0000 0.91486  0.35055  0.90891  Biso   1.000  O
  N1       1.0000 0.78683  0.29696  0.48857  Biso   1.000  N
  N2       1.0000 0.21317  0.79696  0.01143  Biso   1.000  N
  N3       1.0000 0.21317  0.70304  0.51143  Biso   1.000  N
  N4       1.0000 0.78683  0.20304  0.98857  Biso   1.000  N
  N5       1.0000 0.20288  0.30386  0.05365  Biso   1.000  N
  N6       1.0000 0.79712  0.80386  0.44635  Biso   1.000  N
  N7       1.0000 0.79712  0.69614  0.94635  Biso   1.000  N
  N8       1.0000 0.20288  0.19614  0.55365  Biso   1.000  N
  C1       1.0000 0.69262  0.29810  0.36602  Biso   1.000  C
  C2       1.0000 0.30738  0.79810  0.13398  Biso   1.000  C
  C3       1.0000 0.30738  0.70190  0.63398  Biso   1.000  C
  C4       1.0000 0.69262  0.20190  0.86602  Biso   1.000  C
  H9       1.0000 0.72710  0.27730  0.29680  Biso   1.000  H
  H10      1.0000 0.27290  0.77730  0.20320  Biso   1.000  H
  H11      1.0000 0.27290  0.72270  0.70320  Biso   1.000  H
  H12      1.0000 0.72710  0.22270  0.79680  Biso   1.000  H
  C5       1.0000 0.54565  0.32926  0.33882  Biso   1.000  C
  C6       1.0000 0.45435  0.82926  0.16118  Biso   1.000  C
  C7       1.0000 0.45435  0.67074  0.66118  Biso   1.000  C
  C8       1.0000 0.54565  0.17074  0.83882  Biso   1.000  C
  C9       1.0000 0.49394  0.35914  0.44361  Biso   1.000  C
  C10      1.0000 0.50606  0.85914  0.05639  Biso   1.000  C
  C11      1.0000 0.50606  0.64086  0.55639  Biso   1.000  C
  C12      1.0000 0.49394  0.14086  0.94361  Biso   1.000  C
  H13      1.0000 0.39540  0.37860  0.42950  Biso   1.000  H
  H14      1.0000 0.60460  0.87860  0.07050  Biso   1.000  H
  H15      1.0000 0.60460  0.62140  0.57050  Biso   1.000  H
  H16      1.0000 0.39540  0.12140  0.92950  Biso   1.000  H
  C13      1.0000 0.59280  0.35923  0.56952  Biso   1.000  C
  C14      1.0000 0.40720  0.85923  0.93048  Biso   1.000  C
  C15      1.0000 0.40720  0.64077  0.43048  Biso   1.000  C
  C16      1.0000 0.59280  0.14077  0.06952  Biso   1.000  C
  H17      1.0000 0.56140  0.37960  0.64060  Biso   1.000  H
  H18      1.0000 0.43860  0.87960  0.85940  Biso   1.000  H
  H19      1.0000 0.43860  0.62040  0.35940  Biso   1.000  H
  H20      1.0000 0.56140  0.12040  0.14060  Biso   1.000  H
  C17      1.0000 0.73843  0.32876  0.58809  Biso   1.000  C
  C18      1.0000 0.26157  0.82876  0.91191  Biso   1.000  C
  C19      1.0000 0.26157  0.67124  0.41191  Biso   1.000  C
  C20      1.0000 0.73843  0.17124  0.08809  Biso   1.000  C
  H21      1.0000 0.80470  0.33040  0.67210  Biso   1.000  H
  H22      1.0000 0.19530  0.83040  0.82790  Biso   1.000  H
  H23      1.0000 0.19530  0.66960  0.32790  Biso   1.000  H
  H24      1.0000 0.80470  0.16960  0.17210  Biso   1.000  H
  C21      1.0000 0.30029  0.30121  0.17474  Biso   1.000  C
  C22      1.0000 0.69971  0.80121  0.32526  Biso   1.000  C
  C23      1.0000 0.69971  0.69879  0.82526  Biso   1.000  C
  C24      1.0000 0.30029  0.19879  0.67474  Biso   1.000  C
  H25      1.0000 0.26730  0.27870  0.24360  Biso   1.000  H
  H26      1.0000 0.73270  0.77870  0.25640  Biso   1.000  H
  H27      1.0000 0.73270  0.72130  0.75640  Biso   1.000  H
  H28      1.0000 0.26730  0.22130  0.74360  Biso   1.000  H
  C25      1.0000 0.44801  0.33064  0.20131  Biso   1.000  C
  C26      1.0000 0.55199  0.83064  0.29869  Biso   1.000  C
  C27      1.0000 0.55199  0.66936  0.79869  Biso   1.000  C
  C28      1.0000 0.44801  0.16936  0.70131  Biso   1.000  C
  C29      1.0000 0.49764  0.36240  0.09667  Biso   1.000  C
  C30      1.0000 0.50236  0.86240  0.40333  Biso   1.000  C
  C31      1.0000 0.50236  0.63760  0.90333  Biso   1.000  C
  C32      1.0000 0.49764  0.13760  0.59667  Biso   1.000  C
  H29      1.0000 0.59650  0.38110  0.11010  Biso   1.000  H
  H30      1.0000 0.40350  0.88110  0.38990  Biso   1.000  H
  H31      1.0000 0.40350  0.61890  0.88990  Biso   1.000  H
  H32      1.0000 0.59650  0.11890  0.61010  Biso   1.000  H
  C33      1.0000 0.39668  0.36565  0.97190  Biso   1.000  C
  C34      1.0000 0.60332  0.86565  0.52810  Biso   1.000  C
  C35      1.0000 0.60332  0.63435  0.02810  Biso   1.000  C
  C36      1.0000 0.39668  0.13435  0.47190  Biso   1.000  C
  H33      1.0000 0.42740  0.38690  0.90100  Biso   1.000  H
  H34      1.0000 0.57260  0.88690  0.59900  Biso   1.000  H
  H35      1.0000 0.57260  0.61310  0.09900  Biso   1.000  H
  H36      1.0000 0.42740  0.11310  0.40100  Biso   1.000  H
  C37      1.0000 0.24976  0.33703  0.95379  Biso   1.000  C
  C38      1.0000 0.75024  0.83703  0.54621  Biso   1.000  C
  C39      1.0000 0.75024  0.66297  0.04621  Biso   1.000  C
  C40      1.0000 0.24976  0.16297  0.45379  Biso   1.000  C
  H37      1.0000 0.18210  0.34090  0.87070  Biso   1.000  H
  H38      1.0000 0.81790  0.84090  0.62930  Biso   1.000  H
  H39      1.0000 0.81790  0.65910  0.12930  Biso   1.000  H
  H40      1.0000 0.18210  0.15910  0.37070  Biso   1.000  H
  C41      1.0000 0.84809  0.08297  0.43612  Biso   1.000  C
  C42      1.0000 0.15191  0.58297  0.06388  Biso   1.000  C
  C43      1.0000 0.15191  0.91703  0.56388  Biso   1.000  C
  C44      1.0000 0.84809  0.41703  0.93612  Biso   1.000  C
  C45      1.0000 0.81920  0.01325  0.33380  Biso   1.000  C
  C46      1.0000 0.18080  0.51325  0.16620  Biso   1.000  C
  C47      1.0000 0.18080  0.98675  0.66620  Biso   1.000  C
  C48      1.0000 0.81920  0.48675  0.83380  Biso   1.000  C
  H41      1.0000 0.87430  0.96340  0.37090  Biso   1.000  H
  H42      1.0000 0.12570  0.46340  0.12910  Biso   1.000  H
  H43      1.0000 0.12570  0.03660  0.62910  Biso   1.000  H
  H44      1.0000 0.87430  0.53660  0.87090  Biso   1.000  H
  H45      1.0000 0.85180  0.03160  0.25900  Biso   1.000  H
  H46      1.0000 0.14820  0.53160  0.24100  Biso   1.000  H
  H47      1.0000 0.14820  0.96840  0.74100  Biso   1.000  H
  H48      1.0000 0.85180  0.46840  0.75900  Biso   1.000  H
  H49      1.0000 0.71320  0.00060  0.30650  Biso   1.000  H
  H50      1.0000 0.28680  0.50060  0.19350  Biso   1.000  H
  H51      1.0000 0.28680  0.99940  0.69350  Biso   1.000  H
  H52      1.0000 0.71320  0.49940  0.80650  Biso   1.000  H
  C49      1.0000 0.13762  0.39871  0.56063  Biso   1.000  C
  C50      1.0000 0.86238  0.89871  0.93937  Biso   1.000  C
  C51      1.0000 0.86238  0.60129  0.43937  Biso   1.000  C
  C52      1.0000 0.13762  0.10129  0.06063  Biso   1.000  C
  C53      1.0000 0.20300  0.47902  0.63293  Biso   1.000  C
  C54      1.0000 0.79700  0.97902  0.86707  Biso   1.000  C
  C55      1.0000 0.79700  0.52098  0.36707  Biso   1.000  C
  C56      1.0000 0.20300  0.02098  0.13293  Biso   1.000  C
  H53      1.0000 0.30640  0.48490  0.63150  Biso   1.000  H
  H54      1.0000 0.69360  0.98490  0.86850  Biso   1.000  H
  H55      1.0000 0.69360  0.51510  0.36850  Biso   1.000  H
  H56      1.0000 0.30640  0.01510  0.13150  Biso   1.000  H
  H57      1.0000 0.19780  0.47590  0.72250  Biso   1.000  H
  H58      1.0000 0.80220  0.97590  0.77750  Biso   1.000  H
  H59      1.0000 0.80220  0.52410  0.27750  Biso   1.000  H
  H60      1.0000 0.19780  0.02410  0.22250  Biso   1.000  H
  H61      1.0000 0.14630  0.52710  0.59050  Biso   1.000  H
  H62      1.0000 0.85370  0.02710  0.90950  Biso   1.000  H
  H63      1.0000 0.85370  0.47290  0.40950  Biso   1.000  H
  H64      1.0000 0.14630  0.97290  0.09050  Biso   1.000  H
