data_image0
_cell_length_a       7.2245
_cell_length_b       11.447
_cell_length_c       15.5537
_cell_angle_alpha    90
_cell_angle_beta     95.97
_cell_angle_gamma    90

_symmetry_space_group_name_H-M    "P 1"
_symmetry_int_tables_number       1

loop_
  _symmetry_equiv_pos_as_xyz
  'x, y, z'

loop_
  _atom_site_label
  _atom_site_occupancy
  _atom_site_fract_x
  _atom_site_fract_y
  _atom_site_fract_z
  _atom_site_thermal_displace_type
  _atom_site_B_iso_or_equiv
  _atom_site_type_symbol
  O1       1.0000 0.91160  0.33982  0.00627  Biso   1.000  O
  O2       1.0000 0.58840  0.83982  0.49373  Biso   1.000  O
  O3       1.0000 0.08840  0.66018  0.99373  Biso   1.000  O
  O4       1.0000 0.41160  0.16018  0.50627  Biso   1.000  O
  O5       1.0000 0.70870  0.50186  0.96183  Biso   1.000  O
  O6       1.0000 0.79130  0.00186  0.53817  Biso   1.000  O
  O7       1.0000 0.29130  0.49814  0.03817  Biso   1.000  O
  O8       1.0000 0.20870  0.99814  0.46183  Biso   1.000  O
  O9       1.0000 0.57710  0.31393  0.99320  Biso   1.000  O
  O10      1.0000 0.92290  0.81393  0.50680  Biso   1.000  O
  O11      1.0000 0.42290  0.68607  0.00680  Biso   1.000  O
  O12      1.0000 0.07710  0.18607  0.49320  Biso   1.000  O
  N1       1.0000 0.77610  0.83990  0.02472  Biso   1.000  N
  N2       1.0000 0.72390  0.33990  0.47528  Biso   1.000  N
  N3       1.0000 0.22390  0.16010  0.97528  Biso   1.000  N
  N4       1.0000 0.27610  0.66010  0.52472  Biso   1.000  N
  N5       1.0000 0.78690  0.64712  0.11761  Biso   1.000  N
  N6       1.0000 0.71310  0.14712  0.38239  Biso   1.000  N
  N7       1.0000 0.21310  0.35288  0.88239  Biso   1.000  N
  N8       1.0000 0.28690  0.85288  0.61761  Biso   1.000  N
  N9       1.0000 0.25950  0.29650  0.13597  Biso   1.000  N
  N10      1.0000 0.24050  0.79650  0.36403  Biso   1.000  N
  N11      1.0000 0.74050  0.70350  0.86403  Biso   1.000  N
  N12      1.0000 0.75950  0.20350  0.63597  Biso   1.000  N
  C1       1.0000 0.85060  0.85530  0.10631  Biso   1.000  C
  C2       1.0000 0.64940  0.35530  0.39369  Biso   1.000  C
  C3       1.0000 0.14940  0.14470  0.89369  Biso   1.000  C
  C4       1.0000 0.35060  0.64470  0.60631  Biso   1.000  C
  C5       1.0000 0.88400  0.96700  0.14090  Biso   1.000  C
  C6       1.0000 0.61600  0.46700  0.35910  Biso   1.000  C
  C7       1.0000 0.11600  0.03300  0.85910  Biso   1.000  C
  C8       1.0000 0.38400  0.53300  0.64090  Biso   1.000  C
  H1       1.0000 0.93780  0.97650  0.19740  Biso   1.000  H
  H2       1.0000 0.56220  0.47650  0.30260  Biso   1.000  H
  H3       1.0000 0.06220  0.02350  0.80260  Biso   1.000  H
  H4       1.0000 0.43780  0.52350  0.69740  Biso   1.000  H
  C9       1.0000 0.83610  0.06230  0.08990  Biso   1.000  C
  C10      1.0000 0.66390  0.56230  0.41010  Biso   1.000  C
  C11      1.0000 0.16390  0.93770  0.91010  Biso   1.000  C
  C12      1.0000 0.33610  0.43770  0.58990  Biso   1.000  C
  H5       1.0000 0.85770  0.13730  0.11170  Biso   1.000  H
  H6       1.0000 0.64230  0.63730  0.38830  Biso   1.000  H
  H7       1.0000 0.14230  0.86270  0.88830  Biso   1.000  H
  H8       1.0000 0.35770  0.36270  0.61170  Biso   1.000  H
  Cu1      1.0000 0.24863  0.32837  0.01190  Biso   1.000  Cu
  Cu2      1.0000 0.25137  0.82837  0.48810  Biso   1.000  Cu
  Cu3      1.0000 0.75137  0.67163  0.98810  Biso   1.000  Cu
  Cu4      1.0000 0.74863  0.17163  0.51190  Biso   1.000  Cu
  C13      1.0000 0.75590  0.04680  0.00640  Biso   1.000  C
  C14      1.0000 0.74410  0.54680  0.49360  Biso   1.000  C
  C15      1.0000 0.24410  0.95320  0.99360  Biso   1.000  C
  C16      1.0000 0.25590  0.45320  0.50640  Biso   1.000  C
  H9       1.0000 0.72100  0.11080  0.97160  Biso   1.000  H
  H10      1.0000 0.77900  0.61080  0.52840  Biso   1.000  H
  H11      1.0000 0.27900  0.88920  0.02840  Biso   1.000  H
  H12      1.0000 0.22100  0.38920  0.47160  Biso   1.000  H
  C17      1.0000 0.72820  0.93420  0.97540  Biso   1.000  C
  C18      1.0000 0.77180  0.43420  0.52460  Biso   1.000  C
  C19      1.0000 0.27180  0.06580  0.02460  Biso   1.000  C
  C20      1.0000 0.22820  0.56580  0.47540  Biso   1.000  C
  H13      1.0000 0.67510  0.92320  0.91890  Biso   1.000  H
  H14      1.0000 0.82490  0.42320  0.58110  Biso   1.000  H
  H15      1.0000 0.32490  0.07680  0.08110  Biso   1.000  H
  H16      1.0000 0.17510  0.57680  0.41890  Biso   1.000  H
  C21      1.0000 0.90050  0.74540  0.15601  Biso   1.000  C
  C22      1.0000 0.59950  0.24540  0.34399  Biso   1.000  C
  C23      1.0000 0.09950  0.25460  0.84399  Biso   1.000  C
  C24      1.0000 0.40050  0.75460  0.65601  Biso   1.000  C
  H17      1.0000 0.87790  0.75560  0.21590  Biso   1.000  H
  H18      1.0000 0.62210  0.25560  0.28410  Biso   1.000  H
  H19      1.0000 0.12210  0.24440  0.78410  Biso   1.000  H
  H20      1.0000 0.37790  0.74440  0.71590  Biso   1.000  H
  H21      1.0000 0.03160  0.72830  0.15430  Biso   1.000  H
  H22      1.0000 0.46840  0.22830  0.34570  Biso   1.000  H
  H23      1.0000 0.96840  0.27170  0.84570  Biso   1.000  H
  H24      1.0000 0.53160  0.77170  0.65430  Biso   1.000  H
  C25      1.0000 0.86080  0.53350  0.15182  Biso   1.000  C
  C26      1.0000 0.63920  0.03350  0.34818  Biso   1.000  C
  C27      1.0000 0.13920  0.46650  0.84818  Biso   1.000  C
  C28      1.0000 0.36080  0.96650  0.65182  Biso   1.000  C
  H25      1.0000 0.98050  0.51850  0.13090  Biso   1.000  H
  H26      1.0000 0.51950  0.01850  0.36910  Biso   1.000  H
  H27      1.0000 0.01950  0.48150  0.86910  Biso   1.000  H
  H28      1.0000 0.48050  0.98150  0.63090  Biso   1.000  H
  H29      1.0000 0.87900  0.53660  0.21450  Biso   1.000  H
  H30      1.0000 0.62100  0.03660  0.28550  Biso   1.000  H
  H31      1.0000 0.12100  0.46340  0.78550  Biso   1.000  H
  H32      1.0000 0.37900  0.96340  0.71450  Biso   1.000  H
  C29      1.0000 0.18680  0.28860  0.19814  Biso   1.000  C
  C30      1.0000 0.31320  0.78860  0.30186  Biso   1.000  C
  C31      1.0000 0.81320  0.71140  0.80186  Biso   1.000  C
  C32      1.0000 0.68680  0.21140  0.69814  Biso   1.000  C
  C33      1.0000 0.72670  0.43470  0.12344  Biso   1.000  C
  C34      1.0000 0.77330  0.93470  0.37656  Biso   1.000  C
  C35      1.0000 0.27330  0.56530  0.87656  Biso   1.000  C
  C36      1.0000 0.22670  0.06530  0.62344  Biso   1.000  C
  H33      1.0000 0.75710  0.36720  0.15990  Biso   1.000  H
  H34      1.0000 0.74290  0.86720  0.34010  Biso   1.000  H
  H35      1.0000 0.24290  0.63280  0.84010  Biso   1.000  H
  H36      1.0000 0.25710  0.13280  0.65990  Biso   1.000  H
  H37      1.0000 0.60130  0.45890  0.13200  Biso   1.000  H
  H38      1.0000 0.89870  0.95890  0.36800  Biso   1.000  H
  H39      1.0000 0.39870  0.54110  0.86800  Biso   1.000  H
  H40      1.0000 0.10130  0.04110  0.63200  Biso   1.000  H
  H41      1.0000 0.67500  0.65500  0.13130  Biso   1.000  H
  H42      1.0000 0.82500  0.15500  0.36870  Biso   1.000  H
  H43      1.0000 0.32500  0.34500  0.86870  Biso   1.000  H
  H44      1.0000 0.17500  0.84500  0.63130  Biso   1.000  H
  S1       1.0000 0.73264  0.39355  0.01345  Biso   1.000  S
  S2       1.0000 0.76736  0.89355  0.48655  Biso   1.000  S
  S3       1.0000 0.26736  0.60645  0.98655  Biso   1.000  S
  S4       1.0000 0.23264  0.10645  0.51345  Biso   1.000  S
  S5       1.0000 0.08971  0.27928  0.28808  Biso   1.000  S
  S6       1.0000 0.41029  0.77928  0.21192  Biso   1.000  S
  S7       1.0000 0.91029  0.72072  0.71192  Biso   1.000  S
  S8       1.0000 0.58971  0.22072  0.78808  Biso   1.000  S
