data_image0
_cell_length_a       12.772
_cell_length_b       18.472
_cell_length_c       8.15
_cell_angle_alpha    90
_cell_angle_beta     103.807
_cell_angle_gamma    90

_symmetry_space_group_name_H-M    "P 1"
_symmetry_int_tables_number       1

loop_
  _symmetry_equiv_pos_as_xyz
  'x, y, z'

loop_
  _atom_site_label
  _atom_site_occupancy
  _atom_site_fract_x
  _atom_site_fract_y
  _atom_site_fract_z
  _atom_site_thermal_displace_type
  _atom_site_B_iso_or_equiv
  _atom_site_type_symbol
  Ta1      1.0000 0.03969  0.58768  0.41260  Biso   1.000  Ta
  Ta2      1.0000 0.96031  0.08768  0.08740  Biso   1.000  Ta
  Ta3      1.0000 0.96031  0.41232  0.58740  Biso   1.000  Ta
  Ta4      1.0000 0.03969  0.91232  0.91260  Biso   1.000  Ta
  F1       1.0000 0.07430  0.67670  0.31970  Biso   1.000  F
  F2       1.0000 0.92570  0.17670  0.18030  Biso   1.000  F
  F3       1.0000 0.92570  0.32330  0.68030  Biso   1.000  F
  F4       1.0000 0.07430  0.82330  0.81970  Biso   1.000  F
  F5       1.0000 0.06390  0.53800  0.21920  Biso   1.000  F
  F6       1.0000 0.93610  0.03800  0.28080  Biso   1.000  F
  F7       1.0000 0.93610  0.46200  0.78080  Biso   1.000  F
  F8       1.0000 0.06390  0.96200  0.71920  Biso   1.000  F
  F9       1.0000 0.18910  0.57720  0.51300  Biso   1.000  F
  F10      1.0000 0.81090  0.07720  0.98700  Biso   1.000  F
  F11      1.0000 0.81090  0.42280  0.48700  Biso   1.000  F
  F12      1.0000 0.18910  0.92280  0.01300  Biso   1.000  F
  F13      1.0000 0.02510  0.63930  0.60410  Biso   1.000  F
  F14      1.0000 0.97490  0.13930  0.89590  Biso   1.000  F
  F15      1.0000 0.97490  0.36070  0.39590  Biso   1.000  F
  F16      1.0000 0.02510  0.86070  0.10410  Biso   1.000  F
  F17      1.0000 0.89590  0.60620  0.29910  Biso   1.000  F
  F18      1.0000 0.10410  0.10620  0.20090  Biso   1.000  F
  F19      1.0000 0.10410  0.39380  0.70090  Biso   1.000  F
  F20      1.0000 0.89590  0.89380  0.79910  Biso   1.000  F
  O1       1.0000 0.00000  0.50000  0.50000  Biso   1.000  O
  O2       1.0000 0.00000  0.00000  0.00000  Biso   1.000  O
  Cu1      1.0000 0.44807  0.36166  0.58033  Biso   1.000  Cu
  Cu2      1.0000 0.55193  0.86166  0.91967  Biso   1.000  Cu
  Cu3      1.0000 0.55193  0.63834  0.41967  Biso   1.000  Cu
  Cu4      1.0000 0.44807  0.13834  0.08033  Biso   1.000  Cu
  O3       1.0000 0.44240  0.27070  0.46580  Biso   1.000  O
  O4       1.0000 0.55760  0.77070  0.03420  Biso   1.000  O
  O5       1.0000 0.55760  0.72930  0.53420  Biso   1.000  O
  O6       1.0000 0.44240  0.22930  0.96580  Biso   1.000  O
  O7       1.0000 0.37450  0.18220  0.29070  Biso   1.000  O
  O8       1.0000 0.62550  0.68220  0.20930  Biso   1.000  O
  O9       1.0000 0.62550  0.81780  0.70930  Biso   1.000  O
  O10      1.0000 0.37450  0.31780  0.79070  Biso   1.000  O
  O11      1.0000 0.31830  0.39780  0.43390  Biso   1.000  O
  O12      1.0000 0.68170  0.89780  0.06610  Biso   1.000  O
  O13      1.0000 0.68170  0.60220  0.56610  Biso   1.000  O
  O14      1.0000 0.31830  0.10220  0.93390  Biso   1.000  O
  N1       1.0000 0.47750  0.46010  0.68340  Biso   1.000  N
  N2       1.0000 0.52250  0.96010  0.81660  Biso   1.000  N
  N3       1.0000 0.52250  0.53990  0.31660  Biso   1.000  N
  N4       1.0000 0.47750  0.03990  0.18340  Biso   1.000  N
  N5       1.0000 0.59670  0.34140  0.72750  Biso   1.000  N
  N6       1.0000 0.40330  0.84140  0.77250  Biso   1.000  N
  N7       1.0000 0.40330  0.65860  0.27250  Biso   1.000  N
  N8       1.0000 0.59670  0.15860  0.22750  Biso   1.000  N
  N9       1.0000 0.16750  0.39650  0.22710  Biso   1.000  N
  N10      1.0000 0.83250  0.89650  0.27290  Biso   1.000  N
  N11      1.0000 0.83250  0.60350  0.77290  Biso   1.000  N
  N12      1.0000 0.16750  0.10350  0.72710  Biso   1.000  N
  H1       1.0000 0.15780  0.44040  0.25550  Biso   1.000  H
  H2       1.0000 0.84220  0.94040  0.24450  Biso   1.000  H
  H3       1.0000 0.84220  0.55960  0.74450  Biso   1.000  H
  H4       1.0000 0.15780  0.05960  0.75550  Biso   1.000  H
  C1       1.0000 0.41570  0.51850  0.65440  Biso   1.000  C
  C2       1.0000 0.58430  0.01850  0.84560  Biso   1.000  C
  C3       1.0000 0.58430  0.48150  0.34560  Biso   1.000  C
  C4       1.0000 0.41570  0.98150  0.15440  Biso   1.000  C
  H5       1.0000 0.35110  0.51640  0.57250  Biso   1.000  H
  H6       1.0000 0.64890  0.01640  0.92750  Biso   1.000  H
  H7       1.0000 0.64890  0.48360  0.42750  Biso   1.000  H
  H8       1.0000 0.35110  0.98360  0.07250  Biso   1.000  H
  C5       1.0000 0.44440  0.58320  0.74270  Biso   1.000  C
  C6       1.0000 0.55560  0.08320  0.75730  Biso   1.000  C
  C7       1.0000 0.55560  0.41680  0.25730  Biso   1.000  C
  C8       1.0000 0.44440  0.91680  0.24270  Biso   1.000  C
  H9       1.0000 0.40030  0.62380  0.71740  Biso   1.000  H
  H10      1.0000 0.59970  0.12380  0.78260  Biso   1.000  H
  H11      1.0000 0.59970  0.37620  0.28260  Biso   1.000  H
  H12      1.0000 0.40030  0.87620  0.21740  Biso   1.000  H
  C9       1.0000 0.53730  0.58660  0.86590  Biso   1.000  C
  C10      1.0000 0.46270  0.08660  0.63410  Biso   1.000  C
  C11      1.0000 0.46270  0.41340  0.13410  Biso   1.000  C
  C12      1.0000 0.53730  0.91340  0.36590  Biso   1.000  C
  H13      1.0000 0.55600  0.62930  0.92640  Biso   1.000  H
  H14      1.0000 0.44400  0.12930  0.57360  Biso   1.000  H
  H15      1.0000 0.44400  0.37070  0.07360  Biso   1.000  H
  H16      1.0000 0.55600  0.87070  0.42640  Biso   1.000  H
  C13      1.0000 0.60540  0.52530  0.90220  Biso   1.000  C
  C14      1.0000 0.39460  0.02530  0.59780  Biso   1.000  C
  C15      1.0000 0.39460  0.47470  0.09780  Biso   1.000  C
  C16      1.0000 0.60540  0.97470  0.40220  Biso   1.000  C
  C17      1.0000 0.57080  0.46300  0.80460  Biso   1.000  C
  C18      1.0000 0.42920  0.96300  0.69540  Biso   1.000  C
  C19      1.0000 0.42920  0.53700  0.19540  Biso   1.000  C
  C20      1.0000 0.57080  0.03700  0.30460  Biso   1.000  C
  C21      1.0000 0.70420  0.52150  0.02970  Biso   1.000  C
  C22      1.0000 0.29580  0.02150  0.47030  Biso   1.000  C
  C23      1.0000 0.29580  0.47850  0.97030  Biso   1.000  C
  C24      1.0000 0.70420  0.97850  0.52970  Biso   1.000  C
  H17      1.0000 0.72790  0.56200  0.09580  Biso   1.000  H
  H18      1.0000 0.27210  0.06200  0.40420  Biso   1.000  H
  H19      1.0000 0.27210  0.43800  0.90420  Biso   1.000  H
  H20      1.0000 0.72790  0.93800  0.59580  Biso   1.000  H
  C25      1.0000 0.76320  0.46070  0.05580  Biso   1.000  C
  C26      1.0000 0.23680  0.96070  0.44420  Biso   1.000  C
  C27      1.0000 0.23680  0.53930  0.94420  Biso   1.000  C
  C28      1.0000 0.76320  0.03930  0.55580  Biso   1.000  C
  H21      1.0000 0.82690  0.46000  0.13980  Biso   1.000  H
  H22      1.0000 0.17310  0.96000  0.36020  Biso   1.000  H
  H23      1.0000 0.17310  0.54000  0.86020  Biso   1.000  H
  H24      1.0000 0.82690  0.04000  0.63980  Biso   1.000  H
  C29      1.0000 0.73020  0.39600  0.95670  Biso   1.000  C
  C30      1.0000 0.26980  0.89600  0.54330  Biso   1.000  C
  C31      1.0000 0.26980  0.60400  0.04330  Biso   1.000  C
  C32      1.0000 0.73020  0.10400  0.45670  Biso   1.000  C
  C33      1.0000 0.63580  0.39900  0.82950  Biso   1.000  C
  C34      1.0000 0.36420  0.89900  0.67050  Biso   1.000  C
  C35      1.0000 0.36420  0.60100  0.17050  Biso   1.000  C
  C36      1.0000 0.63580  0.10100  0.32950  Biso   1.000  C
  C37      1.0000 0.78610  0.33010  0.97760  Biso   1.000  C
  C38      1.0000 0.21390  0.83010  0.52240  Biso   1.000  C
  C39      1.0000 0.21390  0.66990  0.02240  Biso   1.000  C
  C40      1.0000 0.78610  0.16990  0.47760  Biso   1.000  C
  H25      1.0000 0.84880  0.32520  0.06270  Biso   1.000  H
  H26      1.0000 0.15120  0.82520  0.43730  Biso   1.000  H
  H27      1.0000 0.15120  0.67480  0.93730  Biso   1.000  H
  H28      1.0000 0.84880  0.17480  0.56270  Biso   1.000  H
  C41      1.0000 0.74900  0.27340  0.87340  Biso   1.000  C
  C42      1.0000 0.25100  0.77340  0.62660  Biso   1.000  C
  C43      1.0000 0.25100  0.72660  0.12660  Biso   1.000  C
  C44      1.0000 0.74900  0.22660  0.37340  Biso   1.000  C
  H29      1.0000 0.78700  0.22990  0.88510  Biso   1.000  H
  H30      1.0000 0.21300  0.72990  0.61490  Biso   1.000  H
  H31      1.0000 0.21300  0.77010  0.11490  Biso   1.000  H
  H32      1.0000 0.78700  0.27010  0.38510  Biso   1.000  H
  C45      1.0000 0.65190  0.28110  0.74700  Biso   1.000  C
  C46      1.0000 0.34810  0.78110  0.75300  Biso   1.000  C
  C47      1.0000 0.34810  0.71890  0.25300  Biso   1.000  C
  C48      1.0000 0.65190  0.21890  0.24700  Biso   1.000  C
  H33      1.0000 0.62690  0.24230  0.67590  Biso   1.000  H
  H34      1.0000 0.37310  0.74230  0.82410  Biso   1.000  H
  H35      1.0000 0.37310  0.75770  0.32410  Biso   1.000  H
  H36      1.0000 0.62690  0.25770  0.17590  Biso   1.000  H
  C49      1.0000 0.27300  0.28960  0.26450  Biso   1.000  C
  C50      1.0000 0.72700  0.78960  0.23550  Biso   1.000  C
  C51      1.0000 0.72700  0.71040  0.73550  Biso   1.000  C
  C52      1.0000 0.27300  0.21040  0.76450  Biso   1.000  C
  C53      1.0000 0.25700  0.36160  0.31420  Biso   1.000  C
  C54      1.0000 0.74300  0.86160  0.18580  Biso   1.000  C
  C55      1.0000 0.74300  0.63840  0.68580  Biso   1.000  C
  C56      1.0000 0.25700  0.13840  0.81420  Biso   1.000  C
  C57      1.0000 0.09190  0.36700  0.09810  Biso   1.000  C
  C58      1.0000 0.90810  0.86700  0.40190  Biso   1.000  C
  C59      1.0000 0.90810  0.63300  0.90190  Biso   1.000  C
  C60      1.0000 0.09190  0.13300  0.59810  Biso   1.000  C
  H37      1.0000 0.03250  0.39420  0.04340  Biso   1.000  H
  H38      1.0000 0.96750  0.89420  0.45660  Biso   1.000  H
  H39      1.0000 0.96750  0.60580  0.95660  Biso   1.000  H
  H40      1.0000 0.03250  0.10580  0.54340  Biso   1.000  H
  C61      1.0000 0.10320  0.29840  0.04960  Biso   1.000  C
  C62      1.0000 0.89680  0.79840  0.45040  Biso   1.000  C
  C63      1.0000 0.89680  0.70160  0.95040  Biso   1.000  C
  C64      1.0000 0.10320  0.20160  0.54960  Biso   1.000  C
  H41      1.0000 0.05190  0.27720  0.96250  Biso   1.000  H
  H42      1.0000 0.94810  0.77720  0.53750  Biso   1.000  H
  H43      1.0000 0.94810  0.72280  0.03750  Biso   1.000  H
  H44      1.0000 0.05190  0.22280  0.46250  Biso   1.000  H
  C65      1.0000 0.19480  0.25970  0.13480  Biso   1.000  C
  C66      1.0000 0.80520  0.75970  0.36520  Biso   1.000  C
  C67      1.0000 0.80520  0.74030  0.86520  Biso   1.000  C
  C68      1.0000 0.19480  0.24030  0.63480  Biso   1.000  C
  H45      1.0000 0.20330  0.21210  0.10280  Biso   1.000  H
  H46      1.0000 0.79670  0.71210  0.39720  Biso   1.000  H
  H47      1.0000 0.79670  0.78790  0.89720  Biso   1.000  H
  H48      1.0000 0.20330  0.28790  0.60280  Biso   1.000  H
  C69      1.0000 0.36900  0.24470  0.34430  Biso   1.000  C
  C70      1.0000 0.63100  0.74470  0.15570  Biso   1.000  C
  C71      1.0000 0.63100  0.75530  0.65570  Biso   1.000  C
  C72      1.0000 0.36900  0.25530  0.84430  Biso   1.000  C
