data_image0
_cell_length_a       9.676
_cell_length_b       10.038
_cell_length_c       10.71
_cell_angle_alpha    77.022
_cell_angle_beta     76.498
_cell_angle_gamma    84.421

_symmetry_space_group_name_H-M    "P 1"
_symmetry_int_tables_number       1

loop_
  _symmetry_equiv_pos_as_xyz
  'x, y, z'

loop_
  _atom_site_label
  _atom_site_occupancy
  _atom_site_fract_x
  _atom_site_fract_y
  _atom_site_fract_z
  _atom_site_thermal_displace_type
  _atom_site_B_iso_or_equiv
  _atom_site_type_symbol
  Cu1      1.0000 0.04862  0.06089  0.85004  Biso   1.000  Cu
  Cu2      1.0000 0.95138  0.93911  0.14996  Biso   1.000  Cu
  Cu3      1.0000 0.48593  0.92935  0.64713  Biso   1.000  Cu
  Cu4      1.0000 0.51407  0.07065  0.35287  Biso   1.000  Cu
  N1       1.0000 0.05760  0.25535  0.75011  Biso   1.000  N
  N2       1.0000 0.94240  0.74465  0.24989  Biso   1.000  N
  N3       1.0000 0.95490  0.48140  0.69350  Biso   1.000  N
  N4       1.0000 0.04510  0.51860  0.30650  Biso   1.000  N
  N5       1.0000 0.81570  0.30630  0.81310  Biso   1.000  N
  N6       1.0000 0.18430  0.69370  0.18690  Biso   1.000  N
  H1       1.0000 0.74500  0.36500  0.81200  Biso   1.000  H
  H2       1.0000 0.25500  0.63500  0.18800  Biso   1.000  H
  H3       1.0000 0.80700  0.22250  0.84900  Biso   1.000  H
  H4       1.0000 0.19300  0.77750  0.15100  Biso   1.000  H
  N7       1.0000 0.46430  0.73495  0.74497  Biso   1.000  N
  N8       1.0000 0.53570  0.26505  0.25503  Biso   1.000  N
  N9       1.0000 0.56240  0.50940  0.80810  Biso   1.000  N
  N10      1.0000 0.43760  0.49060  0.19190  Biso   1.000  N
  N11      1.0000 0.70490  0.68210  0.68830  Biso   1.000  N
  N12      1.0000 0.29510  0.31790  0.31170  Biso   1.000  N
  H5       1.0000 0.77670  0.62500  0.68900  Biso   1.000  H
  H6       1.0000 0.22330  0.37500  0.31100  Biso   1.000  H
  H7       1.0000 0.72100  0.76410  0.64900  Biso   1.000  H
  H8       1.0000 0.27900  0.23590  0.35100  Biso   1.000  H
  N13      1.0000 0.02380  0.88150  0.97640  Biso   1.000  N
  N14      1.0000 0.97620  0.11850  0.02360  Biso   1.000  N
  N15      1.0000 0.99030  0.77820  0.95150  Biso   1.000  N
  N16      1.0000 0.00970  0.22180  0.04850  Biso   1.000  N
  N17      1.0000 0.96370  0.67990  0.92910  Biso   1.000  N
  N18      1.0000 0.03630  0.32010  0.07090  Biso   1.000  N
  N19      1.0000 0.18890  0.98710  0.70746  Biso   1.000  N
  N20      1.0000 0.81110  0.01290  0.29254  Biso   1.000  N
  N21      1.0000 0.17770  0.01757  0.59570  Biso   1.000  N
  N22      1.0000 0.82230  0.98243  0.40430  Biso   1.000  N
  N23      1.0000 0.17450  0.04610  0.48630  Biso   1.000  N
  N24      1.0000 0.82550  0.95390  0.51370  Biso   1.000  N
  N25      1.0000 0.50810  0.11290  0.52650  Biso   1.000  N
  N26      1.0000 0.49190  0.88710  0.47350  Biso   1.000  N
  N27      1.0000 0.53160  0.21910  0.55240  Biso   1.000  N
  N28      1.0000 0.46840  0.78090  0.44760  Biso   1.000  N
  N29      1.0000 0.55000  0.31870  0.57690  Biso   1.000  N
  N30      1.0000 0.45000  0.68130  0.42310  Biso   1.000  N
  N31      1.0000 0.51390  0.99620  0.79450  Biso   1.000  N
  N32      1.0000 0.48610  0.00380  0.20550  Biso   1.000  N
  N33      1.0000 0.41740  0.98710  0.88800  Biso   1.000  N
  N34      1.0000 0.58260  0.01290  0.11200  Biso   1.000  N
  N35      1.0000 0.32700  0.97940  0.97920  Biso   1.000  N
  N36      1.0000 0.67300  0.02060  0.02080  Biso   1.000  N
  O1       1.0000 0.85440  0.01430  0.76500  Biso   1.000  O
  O2       1.0000 0.14560  0.98570  0.23500  Biso   1.000  O
  H9       1.0000 0.77290  0.00500  0.81200  Biso   1.000  H
  H10      1.0000 0.22710  0.99500  0.18800  Biso   1.000  H
  H11      1.0000 0.85600  0.01400  0.68620  Biso   1.000  H
  H12      1.0000 0.14400  0.98600  0.31380  Biso   1.000  H
  C1       1.0000 0.94460  0.34740  0.75160  Biso   1.000  C
  C2       1.0000 0.05540  0.65260  0.24840  Biso   1.000  C
  C3       1.0000 0.08140  0.52750  0.63250  Biso   1.000  C
  C4       1.0000 0.91860  0.47250  0.36750  Biso   1.000  C
  C5       1.0000 0.20260  0.43920  0.62600  Biso   1.000  C
  C6       1.0000 0.79740  0.56080  0.37400  Biso   1.000  C
  H13      1.0000 0.29200  0.47060  0.58220  Biso   1.000  H
  H14      1.0000 0.70800  0.52940  0.41780  Biso   1.000  H
  C7       1.0000 0.18480  0.30540  0.68600  Biso   1.000  C
  C8       1.0000 0.81520  0.69460  0.31400  Biso   1.000  C
  H15      1.0000 0.26460  0.24560  0.68260  Biso   1.000  H
  H16      1.0000 0.73540  0.75440  0.31740  Biso   1.000  H
  C9       1.0000 0.08840  0.67670  0.57280  Biso   1.000  C
  C10      1.0000 0.91160  0.32330  0.42720  Biso   1.000  C
  H17      1.0000 0.00520  0.70760  0.53810  Biso   1.000  H
  H18      1.0000 0.99480  0.29240  0.46190  Biso   1.000  H
  H19      1.0000 0.17180  0.69220  0.50330  Biso   1.000  H
  H20      1.0000 0.82820  0.30780  0.49670  Biso   1.000  H
  H21      1.0000 0.09260  0.72630  0.63860  Biso   1.000  H
  H22      1.0000 0.90740  0.27370  0.36140  Biso   1.000  H
  C11      1.0000 0.57530  0.64240  0.74720  Biso   1.000  C
  C12      1.0000 0.42470  0.35760  0.25280  Biso   1.000  C
  C13      1.0000 0.43450  0.46680  0.86990  Biso   1.000  C
  C14      1.0000 0.56550  0.53320  0.13010  Biso   1.000  C
  C15      1.0000 0.31520  0.55800  0.87620  Biso   1.000  C
  C16      1.0000 0.68480  0.44200  0.12380  Biso   1.000  C
  H23      1.0000 0.22540  0.52930  0.92200  Biso   1.000  H
  H24      1.0000 0.77460  0.47070  0.07800  Biso   1.000  H
  C17      1.0000 0.33620  0.69040  0.81210  Biso   1.000  C
  C18      1.0000 0.66380  0.30960  0.18790  Biso   1.000  C
  H25      1.0000 0.25830  0.75260  0.81510  Biso   1.000  H
  H26      1.0000 0.74170  0.24740  0.18490  Biso   1.000  H
  C19      1.0000 0.42220  0.31830  0.93200  Biso   1.000  C
  C20      1.0000 0.57780  0.68170  0.06800  Biso   1.000  C
  H27      1.0000 0.49600  0.28880  0.97980  Biso   1.000  H
  H28      1.0000 0.50400  0.71120  0.02020  Biso   1.000  H
  H29      1.0000 0.33100  0.30430  0.99100  Biso   1.000  H
  H30      1.0000 0.66900  0.69570  0.00900  Biso   1.000  H
  H31      1.0000 0.43160  0.26640  0.86510  Biso   1.000  H
  H32      1.0000 0.56840  0.73360  0.13490  Biso   1.000  H
