data_image0
_cell_length_a       9.586
_cell_length_b       10.713
_cell_length_c       13.527
_cell_angle_alpha    90
_cell_angle_beta     90
_cell_angle_gamma    90

_symmetry_space_group_name_H-M    "P 1"
_symmetry_int_tables_number       1

loop_
  _symmetry_equiv_pos_as_xyz
  'x, y, z'

loop_
  _atom_site_label
  _atom_site_occupancy
  _atom_site_fract_x
  _atom_site_fract_y
  _atom_site_fract_z
  _atom_site_thermal_displace_type
  _atom_site_B_iso_or_equiv
  _atom_site_type_symbol
  Cu1      1.0000 0.81046  0.38026  0.53382  Biso   1.000  Cu
  Cu2      1.0000 0.68954  0.61974  0.03382  Biso   1.000  Cu
  Cu3      1.0000 0.31046  0.11974  0.46618  Biso   1.000  Cu
  Cu4      1.0000 0.18954  0.88026  0.96618  Biso   1.000  Cu
  O1       1.0000 0.00465  0.36728  0.47200  Biso   1.000  O
  O2       1.0000 0.49535  0.63272  0.97200  Biso   1.000  O
  O3       1.0000 0.50465  0.13272  0.52800  Biso   1.000  O
  O4       1.0000 0.99535  0.86728  0.02800  Biso   1.000  O
  H1       1.0000 0.02400  0.29210  0.46100  Biso   1.000  H
  H2       1.0000 0.47600  0.70790  0.96100  Biso   1.000  H
  H3       1.0000 0.52400  0.20790  0.53900  Biso   1.000  H
  H4       1.0000 0.97600  0.79210  0.03900  Biso   1.000  H
  N1       1.0000 0.79401  0.51823  0.44280  Biso   1.000  N
  N2       1.0000 0.70599  0.48177  0.94280  Biso   1.000  N
  N3       1.0000 0.29401  0.98177  0.55720  Biso   1.000  N
  N4       1.0000 0.20599  0.01823  0.05720  Biso   1.000  N
  O5       1.0000 0.61076  0.36352  0.54866  Biso   1.000  O
  O6       1.0000 0.88924  0.63648  0.04866  Biso   1.000  O
  O7       1.0000 0.11076  0.13648  0.45134  Biso   1.000  O
  O8       1.0000 0.38924  0.86352  0.95134  Biso   1.000  O
  N5       1.0000 0.84907  0.24114  0.62162  Biso   1.000  N
  N6       1.0000 0.65093  0.75886  0.12162  Biso   1.000  N
  N7       1.0000 0.34907  0.25886  0.37838  Biso   1.000  N
  N8       1.0000 0.15093  0.74114  0.87838  Biso   1.000  N
  O9       1.0000 0.35909  0.33503  0.62127  Biso   1.000  O
  O10      1.0000 0.14091  0.66497  0.12127  Biso   1.000  O
  O11      1.0000 0.85909  0.16497  0.37873  Biso   1.000  O
  O12      1.0000 0.64091  0.83503  0.87873  Biso   1.000  O
  C1       1.0000 0.93020  0.55760  0.40051  Biso   1.000  C
  C2       1.0000 0.56980  0.44240  0.90051  Biso   1.000  C
  C3       1.0000 0.43020  0.94240  0.59949  Biso   1.000  C
  C4       1.0000 0.06980  0.05760  0.09949  Biso   1.000  C
  H5       1.0000 0.98010  0.60450  0.45170  Biso   1.000  H
  H6       1.0000 0.51990  0.39550  0.95170  Biso   1.000  H
  H7       1.0000 0.48010  0.89550  0.54830  Biso   1.000  H
  H8       1.0000 0.01990  0.10450  0.04830  Biso   1.000  H
  C5       1.0000 0.54700  0.55475  0.46651  Biso   1.000  C
  C6       1.0000 0.95300  0.44525  0.96651  Biso   1.000  C
  C7       1.0000 0.04700  0.94525  0.53349  Biso   1.000  C
  C8       1.0000 0.45300  0.05475  0.03349  Biso   1.000  C
  C9       1.0000 0.68250  0.57900  0.42436  Biso   1.000  C
  C10      1.0000 0.81750  0.42100  0.92436  Biso   1.000  C
  C11      1.0000 0.18250  0.92100  0.57564  Biso   1.000  C
  C12      1.0000 0.31750  0.07900  0.07564  Biso   1.000  C
  H9       1.0000 0.68930  0.64470  0.37980  Biso   1.000  H
  H10      1.0000 0.81070  0.35530  0.87980  Biso   1.000  H
  H11      1.0000 0.18930  0.85530  0.62020  Biso   1.000  H
  H12      1.0000 0.31070  0.14470  0.12020  Biso   1.000  H
  C13      1.0000 0.88740  0.18420  0.68653  Biso   1.000  C
  C14      1.0000 0.61260  0.81580  0.18653  Biso   1.000  C
  C15      1.0000 0.38740  0.31580  0.31347  Biso   1.000  C
  C16      1.0000 0.11260  0.68420  0.81347  Biso   1.000  C
  C17      1.0000 0.38030  0.43970  0.56596  Biso   1.000  C
  C18      1.0000 0.11970  0.56030  0.06596  Biso   1.000  C
  C19      1.0000 0.88030  0.06030  0.43404  Biso   1.000  C
  C20      1.0000 0.61970  0.93970  0.93404  Biso   1.000  C
  C21      1.0000 0.27930  0.52700  0.54405  Biso   1.000  C
  C22      1.0000 0.22070  0.47300  0.04405  Biso   1.000  C
  C23      1.0000 0.77930  0.97300  0.45595  Biso   1.000  C
  C24      1.0000 0.72070  0.02700  0.95595  Biso   1.000  C
  H13      1.0000 0.19030  0.51840  0.57050  Biso   1.000  H
  H14      1.0000 0.30970  0.48160  0.07050  Biso   1.000  H
  H15      1.0000 0.69030  0.98160  0.42950  Biso   1.000  H
  H16      1.0000 0.80970  0.01840  0.92950  Biso   1.000  H
  C25      1.0000 0.51923  0.45133  0.52727  Biso   1.000  C
  C26      1.0000 0.98077  0.54867  0.02727  Biso   1.000  C
  C27      1.0000 0.01923  0.04867  0.47273  Biso   1.000  C
  C28      1.0000 0.48077  0.95133  0.97273  Biso   1.000  C
  C29      1.0000 0.43970  0.64170  0.44410  Biso   1.000  C
  C30      1.0000 0.06030  0.35830  0.94410  Biso   1.000  C
  C31      1.0000 0.93970  0.85830  0.55590  Biso   1.000  C
  C32      1.0000 0.56030  0.14170  0.05590  Biso   1.000  C
  H17      1.0000 0.45920  0.70860  0.40260  Biso   1.000  H
  H18      1.0000 0.04080  0.29140  0.90260  Biso   1.000  H
  H19      1.0000 0.95920  0.79140  0.59740  Biso   1.000  H
  H20      1.0000 0.54080  0.20860  0.09740  Biso   1.000  H
  N9       1.0000 0.11650  0.02470  0.83313  Biso   1.000  N
  N10      1.0000 0.38350  0.97530  0.33313  Biso   1.000  N
  N11      1.0000 0.61650  0.47530  0.16687  Biso   1.000  N
  N12      1.0000 0.88350  0.52470  0.66687  Biso   1.000  N
  C33      1.0000 0.30940  0.62920  0.48190  Biso   1.000  C
  C34      1.0000 0.19060  0.37080  0.98190  Biso   1.000  C
  C35      1.0000 0.80940  0.87080  0.51810  Biso   1.000  C
  C36      1.0000 0.69060  0.12920  0.01810  Biso   1.000  C
  H21      1.0000 0.24070  0.68750  0.46710  Biso   1.000  H
  H22      1.0000 0.25930  0.31250  0.96710  Biso   1.000  H
  H23      1.0000 0.74070  0.81250  0.53290  Biso   1.000  H
  H24      1.0000 0.75930  0.18750  0.03290  Biso   1.000  H
  C37      1.0000 0.02770  0.07120  0.79438  Biso   1.000  C
  C38      1.0000 0.47230  0.92880  0.29438  Biso   1.000  C
  C39      1.0000 0.52770  0.42880  0.20562  Biso   1.000  C
  C40      1.0000 0.97230  0.57120  0.70562  Biso   1.000  C
  C41      1.0000 0.92200  0.63950  0.30950  Biso   1.000  C
  C42      1.0000 0.57800  0.36050  0.80950  Biso   1.000  C
  C43      1.0000 0.42200  0.86050  0.69050  Biso   1.000  C
  C44      1.0000 0.07800  0.13950  0.19050  Biso   1.000  C
  H25      1.0000 0.86800  0.59820  0.25950  Biso   1.000  H
  H26      1.0000 0.63200  0.40180  0.75950  Biso   1.000  H
  H27      1.0000 0.36800  0.90180  0.74050  Biso   1.000  H
  H28      1.0000 0.13200  0.09820  0.24050  Biso   1.000  H
  H29      1.0000 0.01440  0.65500  0.28490  Biso   1.000  H
  H30      1.0000 0.48560  0.34500  0.78490  Biso   1.000  H
  H31      1.0000 0.51440  0.84500  0.71510  Biso   1.000  H
  H32      1.0000 0.98560  0.15500  0.21510  Biso   1.000  H
  H33      1.0000 0.87850  0.71740  0.32620  Biso   1.000  H
  H34      1.0000 0.62150  0.28260  0.82620  Biso   1.000  H
  H35      1.0000 0.37850  0.78260  0.67380  Biso   1.000  H
  H36      1.0000 0.12150  0.21740  0.17380  Biso   1.000  H
  N13      1.0000 0.91190  0.12420  0.76580  Biso   1.000  N
  N14      1.0000 0.58810  0.87580  0.26580  Biso   1.000  N
  N15      1.0000 0.41190  0.37580  0.23420  Biso   1.000  N
  N16      1.0000 0.08810  0.62420  0.73420  Biso   1.000  N
  C45      1.0000 0.01070  0.43760  0.38186  Biso   1.000  C
  C46      1.0000 0.48930  0.56240  0.88186  Biso   1.000  C
  C47      1.0000 0.51070  0.06240  0.61814  Biso   1.000  C
  C48      1.0000 0.98930  0.93760  0.11814  Biso   1.000  C
  H37      1.0000 0.96870  0.39090  0.32810  Biso   1.000  H
  H38      1.0000 0.53130  0.60910  0.82810  Biso   1.000  H
  H39      1.0000 0.46870  0.10910  0.67190  Biso   1.000  H
  H40      1.0000 0.03130  0.89090  0.17190  Biso   1.000  H
  H41      1.0000 0.10680  0.45610  0.36470  Biso   1.000  H
  H42      1.0000 0.39320  0.54390  0.86470  Biso   1.000  H
  H43      1.0000 0.60680  0.04390  0.63530  Biso   1.000  H
  H44      1.0000 0.89320  0.95610  0.13530  Biso   1.000  H
  C49      1.0000 0.23130  0.32290  0.67330  Biso   1.000  C
  C50      1.0000 0.26870  0.67710  0.17330  Biso   1.000  C
  C51      1.0000 0.73130  0.17710  0.32670  Biso   1.000  C
  C52      1.0000 0.76870  0.82290  0.82670  Biso   1.000  C
  H45      1.0000 0.15530  0.32140  0.62700  Biso   1.000  H
  H46      1.0000 0.34470  0.67860  0.12700  Biso   1.000  H
  H47      1.0000 0.65530  0.17860  0.37300  Biso   1.000  H
  H48      1.0000 0.84470  0.82140  0.87300  Biso   1.000  H
  H49      1.0000 0.22010  0.39250  0.71730  Biso   1.000  H
  H50      1.0000 0.27990  0.60750  0.21730  Biso   1.000  H
  H51      1.0000 0.72010  0.10750  0.28270  Biso   1.000  H
  H52      1.0000 0.77990  0.89250  0.78270  Biso   1.000  H
  H53      1.0000 0.23190  0.24680  0.71060  Biso   1.000  H
  H54      1.0000 0.26810  0.75320  0.21060  Biso   1.000  H
  H55      1.0000 0.73190  0.25320  0.28940  Biso   1.000  H
  H56      1.0000 0.76810  0.74680  0.78940  Biso   1.000  H
