data_image0
_cell_length_a       9.589
_cell_length_b       10.709
_cell_length_c       13.528
_cell_angle_alpha    90
_cell_angle_beta     90
_cell_angle_gamma    90

_symmetry_space_group_name_H-M    "P 1"
_symmetry_int_tables_number       1

loop_
  _symmetry_equiv_pos_as_xyz
  'x, y, z'

loop_
  _atom_site_label
  _atom_site_occupancy
  _atom_site_fract_x
  _atom_site_fract_y
  _atom_site_fract_z
  _atom_site_thermal_displace_type
  _atom_site_B_iso_or_equiv
  _atom_site_type_symbol
  C1       1.0000 0.23160  0.67710  0.17310  Biso   1.000  C
  C2       1.0000 0.26840  0.32290  0.67310  Biso   1.000  C
  C3       1.0000 0.76840  0.17710  0.32690  Biso   1.000  C
  C4       1.0000 0.73160  0.82290  0.82690  Biso   1.000  C
  H1       1.0000 0.15570  0.67850  0.12690  Biso   1.000  H
  H2       1.0000 0.34430  0.32150  0.62690  Biso   1.000  H
  H3       1.0000 0.84430  0.17850  0.37310  Biso   1.000  H
  H4       1.0000 0.65570  0.82150  0.87310  Biso   1.000  H
  H5       1.0000 0.23220  0.75350  0.21030  Biso   1.000  H
  H6       1.0000 0.26780  0.24650  0.71030  Biso   1.000  H
  H7       1.0000 0.76780  0.25350  0.28970  Biso   1.000  H
  H8       1.0000 0.73220  0.74650  0.78970  Biso   1.000  H
  H9       1.0000 0.22050  0.60770  0.21740  Biso   1.000  H
  H10      1.0000 0.27950  0.39230  0.71740  Biso   1.000  H
  H11      1.0000 0.77950  0.10770  0.28260  Biso   1.000  H
  H12      1.0000 0.72050  0.89230  0.78260  Biso   1.000  H
  C5       1.0000 0.38040  0.56020  0.06601  Biso   1.000  C
  C6       1.0000 0.11960  0.43980  0.56601  Biso   1.000  C
  C7       1.0000 0.61960  0.06020  0.43399  Biso   1.000  C
  C8       1.0000 0.88040  0.93980  0.93399  Biso   1.000  C
  C9       1.0000 0.27930  0.47330  0.04435  Biso   1.000  C
  C10      1.0000 0.22070  0.52670  0.54435  Biso   1.000  C
  C11      1.0000 0.72070  0.97330  0.45565  Biso   1.000  C
  C12      1.0000 0.77930  0.02670  0.95565  Biso   1.000  C
  H13      1.0000 0.19040  0.48190  0.07090  Biso   1.000  H
  H14      1.0000 0.30960  0.51810  0.57090  Biso   1.000  H
  H15      1.0000 0.80960  0.98190  0.42910  Biso   1.000  H
  H16      1.0000 0.69040  0.01810  0.92910  Biso   1.000  H
  C13      1.0000 0.30960  0.37090  0.98192  Biso   1.000  C
  C14      1.0000 0.19040  0.62910  0.48192  Biso   1.000  C
  C15      1.0000 0.69040  0.87090  0.51808  Biso   1.000  C
  C16      1.0000 0.80960  0.12910  0.01808  Biso   1.000  C
  H17      1.0000 0.24080  0.31260  0.96690  Biso   1.000  H
  H18      1.0000 0.25920  0.68740  0.46690  Biso   1.000  H
  H19      1.0000 0.75920  0.81260  0.53310  Biso   1.000  H
  H20      1.0000 0.74080  0.18740  0.03310  Biso   1.000  H
  C17      1.0000 0.44000  0.35830  0.94408  Biso   1.000  C
  C18      1.0000 0.06000  0.64170  0.44408  Biso   1.000  C
  C19      1.0000 0.56000  0.85830  0.55592  Biso   1.000  C
  C20      1.0000 0.94000  0.14170  0.05592  Biso   1.000  C
  H21      1.0000 0.45960  0.29140  0.90250  Biso   1.000  H
  H22      1.0000 0.04040  0.70860  0.40250  Biso   1.000  H
  H23      1.0000 0.54040  0.79140  0.59750  Biso   1.000  H
  H24      1.0000 0.95960  0.20860  0.09750  Biso   1.000  H
  C21      1.0000 0.51923  0.54880  0.02718  Biso   1.000  C
  C22      1.0000 0.98077  0.45120  0.52718  Biso   1.000  C
  C23      1.0000 0.48077  0.04880  0.47282  Biso   1.000  C
  C24      1.0000 0.01923  0.95120  0.97282  Biso   1.000  C
  C25      1.0000 0.54690  0.44535  0.96670  Biso   1.000  C
  C26      1.0000 0.95310  0.55465  0.46670  Biso   1.000  C
  C27      1.0000 0.45310  0.94535  0.53330  Biso   1.000  C
  C28      1.0000 0.04690  0.05465  0.03330  Biso   1.000  C
  C29      1.0000 0.68250  0.42142  0.92428  Biso   1.000  C
  C30      1.0000 0.81750  0.57858  0.42428  Biso   1.000  C
  C31      1.0000 0.31750  0.92142  0.57572  Biso   1.000  C
  C32      1.0000 0.18250  0.07858  0.07572  Biso   1.000  C
  H25      1.0000 0.68890  0.35600  0.87930  Biso   1.000  H
  H26      1.0000 0.81110  0.64400  0.37930  Biso   1.000  H
  H27      1.0000 0.31110  0.85600  0.62070  Biso   1.000  H
  H28      1.0000 0.18890  0.14400  0.12070  Biso   1.000  H
  C33      1.0000 0.93010  0.44240  0.90054  Biso   1.000  C
  C34      1.0000 0.56990  0.55760  0.40054  Biso   1.000  C
  C35      1.0000 0.06990  0.94240  0.59946  Biso   1.000  C
  C36      1.0000 0.43010  0.05760  0.09946  Biso   1.000  C
  H29      1.0000 0.97990  0.39520  0.95160  Biso   1.000  H
  H30      1.0000 0.52010  0.60480  0.45160  Biso   1.000  H
  H31      1.0000 0.02010  0.89520  0.54840  Biso   1.000  H
  H32      1.0000 0.47990  0.10480  0.04840  Biso   1.000  H
  C37      1.0000 0.92150  0.36080  0.80920  Biso   1.000  C
  C38      1.0000 0.57850  0.63920  0.30920  Biso   1.000  C
  C39      1.0000 0.07850  0.86080  0.69080  Biso   1.000  C
  C40      1.0000 0.42150  0.13920  0.19080  Biso   1.000  C
  H33      1.0000 0.87930  0.28230  0.82610  Biso   1.000  H
  H34      1.0000 0.62070  0.71770  0.32610  Biso   1.000  H
  H35      1.0000 0.12070  0.78230  0.67390  Biso   1.000  H
  H36      1.0000 0.37930  0.21770  0.17390  Biso   1.000  H
  H37      1.0000 0.01370  0.34640  0.78390  Biso   1.000  H
  H38      1.0000 0.48630  0.65360  0.28390  Biso   1.000  H
  H39      1.0000 0.98630  0.84640  0.71610  Biso   1.000  H
  H40      1.0000 0.51370  0.15360  0.21610  Biso   1.000  H
  H41      1.0000 0.86630  0.40180  0.75980  Biso   1.000  H
  H42      1.0000 0.63370  0.59820  0.25980  Biso   1.000  H
  H43      1.0000 0.13370  0.90180  0.74020  Biso   1.000  H
  H44      1.0000 0.36630  0.09820  0.24020  Biso   1.000  H
  C41      1.0000 0.01060  0.56210  0.88183  Biso   1.000  C
  C42      1.0000 0.48940  0.43790  0.38183  Biso   1.000  C
  C43      1.0000 0.98940  0.06210  0.61817  Biso   1.000  C
  C44      1.0000 0.51060  0.93790  0.11817  Biso   1.000  C
  H45      1.0000 0.10660  0.54340  0.86460  Biso   1.000  H
  H46      1.0000 0.39340  0.45660  0.36460  Biso   1.000  H
  H47      1.0000 0.89340  0.04340  0.63540  Biso   1.000  H
  H48      1.0000 0.60660  0.95660  0.13540  Biso   1.000  H
  H49      1.0000 0.96870  0.60880  0.82810  Biso   1.000  H
  H50      1.0000 0.53130  0.39120  0.32810  Biso   1.000  H
  H51      1.0000 0.03130  0.10880  0.67190  Biso   1.000  H
  H52      1.0000 0.46870  0.89120  0.17190  Biso   1.000  H
  C45      1.0000 0.88770  0.81610  0.18640  Biso   1.000  C
  C46      1.0000 0.61230  0.18390  0.68640  Biso   1.000  C
  C47      1.0000 0.11230  0.31610  0.31360  Biso   1.000  C
  C48      1.0000 0.38770  0.68390  0.81360  Biso   1.000  C
  C49      1.0000 0.02760  0.92850  0.29444  Biso   1.000  C
  C50      1.0000 0.47240  0.07150  0.79444  Biso   1.000  C
  C51      1.0000 0.97240  0.42850  0.20556  Biso   1.000  C
  C52      1.0000 0.52760  0.57150  0.70556  Biso   1.000  C
  H53      1.0000 0.02100  0.70850  0.95900  Biso   1.000  H
  H54      1.0000 0.47900  0.29150  0.45900  Biso   1.000  H
  H55      1.0000 0.97900  0.20850  0.54100  Biso   1.000  H
  H56      1.0000 0.52100  0.79150  0.04100  Biso   1.000  H
  N1       1.0000 0.79403  0.48165  0.94268  Biso   1.000  N
  N2       1.0000 0.70597  0.51835  0.44268  Biso   1.000  N
  N3       1.0000 0.20597  0.98165  0.55732  Biso   1.000  N
  N4       1.0000 0.29403  0.01835  0.05732  Biso   1.000  N
  N5       1.0000 0.84925  0.75896  0.12152  Biso   1.000  N
  N6       1.0000 0.65075  0.24104  0.62152  Biso   1.000  N
  N7       1.0000 0.15075  0.25896  0.37848  Biso   1.000  N
  N8       1.0000 0.34925  0.74104  0.87848  Biso   1.000  N
  N9       1.0000 0.91200  0.87540  0.26591  Biso   1.000  N
  N10      1.0000 0.58800  0.12460  0.76591  Biso   1.000  N
  N11      1.0000 0.08800  0.37540  0.23409  Biso   1.000  N
  N12      1.0000 0.41200  0.62460  0.73409  Biso   1.000  N
  N13      1.0000 0.11630  0.97550  0.33321  Biso   1.000  N
  N14      1.0000 0.38370  0.02450  0.83321  Biso   1.000  N
  N15      1.0000 0.88370  0.47550  0.16679  Biso   1.000  N
  N16      1.0000 0.61630  0.52450  0.66679  Biso   1.000  N
  O1       1.0000 0.35908  0.66491  0.12126  Biso   1.000  O
  O2       1.0000 0.14092  0.33509  0.62126  Biso   1.000  O
  O3       1.0000 0.64092  0.16491  0.37874  Biso   1.000  O
  O4       1.0000 0.85908  0.83509  0.87874  Biso   1.000  O
  O5       1.0000 0.61067  0.63650  0.04858  Biso   1.000  O
  O6       1.0000 0.88933  0.36350  0.54858  Biso   1.000  O
  O7       1.0000 0.38933  0.13650  0.45142  Biso   1.000  O
  O8       1.0000 0.11067  0.86350  0.95142  Biso   1.000  O
  O9       1.0000 0.00485  0.63263  0.97197  Biso   1.000  O
  O10      1.0000 0.49515  0.36737  0.47197  Biso   1.000  O
  O11      1.0000 0.99515  0.13263  0.52803  Biso   1.000  O
  O12      1.0000 0.50485  0.86737  0.02803  Biso   1.000  O
  Cu1      1.0000 0.81054  0.61973  0.03383  Biso   1.000  Cu
  Cu2      1.0000 0.68946  0.38027  0.53383  Biso   1.000  Cu
  Cu3      1.0000 0.18946  0.11973  0.46617  Biso   1.000  Cu
  Cu4      1.0000 0.31054  0.88027  0.96617  Biso   1.000  Cu
