data_image0
_cell_length_a       9.5958
_cell_length_b       10.99
_cell_length_c       12.258
_cell_angle_alpha    90
_cell_angle_beta     90
_cell_angle_gamma    90

_symmetry_space_group_name_H-M    "P 1"
_symmetry_int_tables_number       1

loop_
  _symmetry_equiv_pos_as_xyz
  'x, y, z'

loop_
  _atom_site_label
  _atom_site_occupancy
  _atom_site_fract_x
  _atom_site_fract_y
  _atom_site_fract_z
  _atom_site_thermal_displace_type
  _atom_site_B_iso_or_equiv
  _atom_site_type_symbol
  C1       1.0000 0.25770  0.33550  0.18470  Biso   1.000  C
  C2       1.0000 0.24230  0.66450  0.68470  Biso   1.000  C
  C3       1.0000 0.74230  0.83550  0.31530  Biso   1.000  C
  C4       1.0000 0.75770  0.16450  0.81530  Biso   1.000  C
  H1       1.0000 0.18390  0.33780  0.13190  Biso   1.000  H
  H2       1.0000 0.31610  0.66220  0.63190  Biso   1.000  H
  H3       1.0000 0.81610  0.83780  0.36810  Biso   1.000  H
  H4       1.0000 0.68390  0.16220  0.86810  Biso   1.000  H
  H5       1.0000 0.24690  0.40190  0.23490  Biso   1.000  H
  H6       1.0000 0.25310  0.59810  0.73490  Biso   1.000  H
  H7       1.0000 0.75310  0.90190  0.26510  Biso   1.000  H
  H8       1.0000 0.74690  0.09810  0.76510  Biso   1.000  H
  H9       1.0000 0.25400  0.25990  0.22380  Biso   1.000  H
  H10      1.0000 0.24600  0.74010  0.72380  Biso   1.000  H
  H11      1.0000 0.74600  0.75990  0.27620  Biso   1.000  H
  H12      1.0000 0.75400  0.24010  0.77620  Biso   1.000  H
  C5       1.0000 0.41320  0.44820  0.06860  Biso   1.000  C
  C6       1.0000 0.08680  0.55180  0.56860  Biso   1.000  C
  C7       1.0000 0.58680  0.94820  0.43140  Biso   1.000  C
  C8       1.0000 0.91320  0.05180  0.93140  Biso   1.000  C
  C9       1.0000 0.31630  0.53950  0.05258  Biso   1.000  C
  C10      1.0000 0.18370  0.46050  0.55258  Biso   1.000  C
  C11      1.0000 0.68370  0.03950  0.44742  Biso   1.000  C
  C12      1.0000 0.81630  0.96050  0.94742  Biso   1.000  C
  H13      1.0000 0.22890  0.53390  0.08500  Biso   1.000  H
  H14      1.0000 0.27110  0.46610  0.58500  Biso   1.000  H
  H15      1.0000 0.77110  0.03390  0.41500  Biso   1.000  H
  H16      1.0000 0.72890  0.96610  0.91500  Biso   1.000  H
  C13      1.0000 0.34900  0.63990  0.98803  Biso   1.000  C
  C14      1.0000 0.15100  0.36010  0.48803  Biso   1.000  C
  C15      1.0000 0.65100  0.13990  0.51197  Biso   1.000  C
  C16      1.0000 0.84900  0.86010  0.01197  Biso   1.000  C
  H17      1.0000 0.28370  0.70130  0.97750  Biso   1.000  H
  H18      1.0000 0.21630  0.29870  0.47750  Biso   1.000  H
  H19      1.0000 0.71630  0.20130  0.52250  Biso   1.000  H
  H20      1.0000 0.78370  0.79870  0.02250  Biso   1.000  H
  C17      1.0000 0.47770  0.64790  0.94000  Biso   1.000  C
  C18      1.0000 0.02230  0.35210  0.44000  Biso   1.000  C
  C19      1.0000 0.52230  0.14790  0.56000  Biso   1.000  C
  C20      1.0000 0.97770  0.85210  0.06000  Biso   1.000  C
  H21      1.0000 0.49920  0.71520  0.89720  Biso   1.000  H
  H22      1.0000 0.00080  0.28480  0.39720  Biso   1.000  H
  H23      1.0000 0.50080  0.21520  0.60280  Biso   1.000  H
  H24      1.0000 0.99920  0.78480  0.10280  Biso   1.000  H
  C21      1.0000 0.57800  0.55560  0.95473  Biso   1.000  C
  C22      1.0000 0.92200  0.44440  0.45473  Biso   1.000  C
  C23      1.0000 0.42200  0.05560  0.54527  Biso   1.000  C
  C24      1.0000 0.07800  0.94440  0.04527  Biso   1.000  C
  C25      1.0000 0.54700  0.45380  0.02050  Biso   1.000  C
  C26      1.0000 0.95300  0.54620  0.52050  Biso   1.000  C
  C27      1.0000 0.45300  0.95380  0.47950  Biso   1.000  C
  C28      1.0000 0.04700  0.04620  0.97950  Biso   1.000  C
  C29      1.0000 0.70980  0.56970  0.89965  Biso   1.000  C
  C30      1.0000 0.79020  0.43030  0.39965  Biso   1.000  C
  C31      1.0000 0.29020  0.06970  0.60035  Biso   1.000  C
  C32      1.0000 0.20980  0.93030  0.10035  Biso   1.000  C
  H25      1.0000 0.71720  0.63400  0.85070  Biso   1.000  H
  H26      1.0000 0.78280  0.36600  0.35070  Biso   1.000  H
  H27      1.0000 0.28280  0.13400  0.64930  Biso   1.000  H
  H28      1.0000 0.21720  0.86600  0.14930  Biso   1.000  H
  C33      1.0000 0.94740  0.53230  0.85530  Biso   1.000  C
  C34      1.0000 0.55260  0.46770  0.35530  Biso   1.000  C
  C35      1.0000 0.05260  0.03230  0.64470  Biso   1.000  C
  C36      1.0000 0.44740  0.96770  0.14470  Biso   1.000  C
  H29      1.0000 0.99760  0.59480  0.89500  Biso   1.000  H
  H30      1.0000 0.50240  0.40520  0.39500  Biso   1.000  H
  H31      1.0000 0.00240  0.09480  0.60500  Biso   1.000  H
  H32      1.0000 0.49760  0.90520  0.10500  Biso   1.000  H
  H33      1.0000 0.92790  0.56220  0.78240  Biso   1.000  H
  H34      1.0000 0.57210  0.43780  0.28240  Biso   1.000  H
  H35      1.0000 0.07210  0.06220  0.71760  Biso   1.000  H
  H36      1.0000 0.42790  0.93780  0.21760  Biso   1.000  H
  C37      1.0000 0.03430  0.41590  0.84940  Biso   1.000  C
  C38      1.0000 0.46570  0.58410  0.34940  Biso   1.000  C
  C39      1.0000 0.96570  0.91590  0.65060  Biso   1.000  C
  C40      1.0000 0.53430  0.08410  0.15060  Biso   1.000  C
  H37      1.0000 0.99460  0.35940  0.79710  Biso   1.000  H
  H38      1.0000 0.50540  0.64060  0.29710  Biso   1.000  H
  H39      1.0000 0.00540  0.85940  0.70290  Biso   1.000  H
  H40      1.0000 0.49460  0.14060  0.20290  Biso   1.000  H
  H41      1.0000 0.12930  0.43410  0.82790  Biso   1.000  H
  H42      1.0000 0.37070  0.56590  0.32790  Biso   1.000  H
  H43      1.0000 0.87070  0.93410  0.67210  Biso   1.000  H
  H44      1.0000 0.62930  0.06590  0.17210  Biso   1.000  H
  C41      1.0000 0.90310  0.17750  0.18570  Biso   1.000  C
  C42      1.0000 0.59690  0.82250  0.68570  Biso   1.000  C
  C43      1.0000 0.09690  0.67750  0.31430  Biso   1.000  C
  C44      1.0000 0.40310  0.32250  0.81430  Biso   1.000  C
  C45      1.0000 0.04220  0.06360  0.30130  Biso   1.000  C
  C46      1.0000 0.45780  0.93640  0.80130  Biso   1.000  C
  C47      1.0000 0.95780  0.56360  0.19870  Biso   1.000  C
  C48      1.0000 0.54220  0.43640  0.69870  Biso   1.000  C
  N1       1.0000 0.81740  0.50263  0.91144  Biso   1.000  N
  N2       1.0000 0.68260  0.49737  0.41144  Biso   1.000  N
  N3       1.0000 0.18260  0.00263  0.58856  Biso   1.000  N
  N4       1.0000 0.31740  0.99737  0.08856  Biso   1.000  N
  N5       1.0000 0.87111  0.24900  0.12304  Biso   1.000  N
  N6       1.0000 0.62889  0.75100  0.62304  Biso   1.000  N
  N7       1.0000 0.12889  0.74900  0.37696  Biso   1.000  N
  N8       1.0000 0.37111  0.25100  0.87696  Biso   1.000  N
  N9       1.0000 0.92170  0.09540  0.25908  Biso   1.000  N
  N10      1.0000 0.57830  0.90460  0.75908  Biso   1.000  N
  N11      1.0000 0.07830  0.59540  0.24092  Biso   1.000  N
  N12      1.0000 0.42170  0.40460  0.74092  Biso   1.000  N
  N13      1.0000 0.13970  0.02875  0.34532  Biso   1.000  N
  N14      1.0000 0.36030  0.97125  0.84532  Biso   1.000  N
  N15      1.0000 0.86030  0.52875  0.15468  Biso   1.000  N
  N16      1.0000 0.63970  0.47125  0.65468  Biso   1.000  N
  O1       1.0000 0.38960  0.34580  0.13017  Biso   1.000  O
  O2       1.0000 0.11040  0.65420  0.63017  Biso   1.000  O
  O3       1.0000 0.61040  0.84580  0.36983  Biso   1.000  O
  O4       1.0000 0.88960  0.15420  0.86983  Biso   1.000  O
  O5       1.0000 0.63391  0.36124  0.03682  Biso   1.000  O
  O6       1.0000 0.86609  0.63876  0.53682  Biso   1.000  O
  O7       1.0000 0.36609  0.86124  0.46318  Biso   1.000  O
  O8       1.0000 0.13391  0.13876  0.96318  Biso   1.000  O
  O9       1.0000 0.03051  0.36558  0.95755  Biso   1.000  O
  O10      1.0000 0.46949  0.63442  0.45755  Biso   1.000  O
  O11      1.0000 0.96949  0.86558  0.54245  Biso   1.000  O
  O12      1.0000 0.53051  0.13442  0.04245  Biso   1.000  O
  H45      1.0000 0.05500  0.29490  0.96160  Biso   1.000  H
  H46      1.0000 0.44500  0.70510  0.46160  Biso   1.000  H
  H47      1.0000 0.94500  0.79490  0.53840  Biso   1.000  H
  H48      1.0000 0.55500  0.20510  0.03840  Biso   1.000  H
  Cu1      1.0000 0.83362  0.37728  0.01982  Biso   1.000  Cu
  Cu2      1.0000 0.66638  0.62272  0.51982  Biso   1.000  Cu
  Cu3      1.0000 0.16638  0.87728  0.48018  Biso   1.000  Cu
  Cu4      1.0000 0.33362  0.12272  0.98018  Biso   1.000  Cu
