data_image0
_cell_length_a       13.5009
_cell_length_b       13.9971
_cell_length_c       17.0203
_cell_angle_alpha    80.448
_cell_angle_beta     73.862
_cell_angle_gamma    65.595

_symmetry_space_group_name_H-M    "P 1"
_symmetry_int_tables_number       1

loop_
  _symmetry_equiv_pos_as_xyz
  'x, y, z'

loop_
  _atom_site_label
  _atom_site_occupancy
  _atom_site_fract_x
  _atom_site_fract_y
  _atom_site_fract_z
  _atom_site_thermal_displace_type
  _atom_site_B_iso_or_equiv
  _atom_site_type_symbol
  Eu1      1.0000 0.74676  0.74958  0.50065  Biso   1.000  Eu
  Eu2      1.0000 0.25324  0.25042  0.49935  Biso   1.000  Eu
  Cu1      1.0000 0.50000  0.50000  0.00000  Biso   1.000  Cu
  Cu2      1.0000 0.00000  0.00000  0.00000  Biso   1.000  Cu
  C1       1.0000 0.15410  0.50930  0.02350  Biso   1.000  C
  C2       1.0000 0.84590  0.49070  0.97650  Biso   1.000  C
  F1       1.0000 0.11920  0.49920  0.95520  Biso   1.000  F
  F2       1.0000 0.88080  0.50080  0.04480  Biso   1.000  F
  F3       1.0000 0.10490  0.62220  0.02610  Biso   1.000  F
  F4       1.0000 0.89510  0.37780  0.97390  Biso   1.000  F
  F5       1.0000 0.12050  0.46760  0.08470  Biso   1.000  F
  F6       1.0000 0.87950  0.53240  0.91530  Biso   1.000  F
  C3       1.0000 0.28340  0.47640  0.99730  Biso   1.000  C
  C4       1.0000 0.71660  0.52360  0.00270  Biso   1.000  C
  O1       1.0000 0.31810  0.52430  0.03040  Biso   1.000  O
  O2       1.0000 0.68190  0.47570  0.96960  Biso   1.000  O
  C5       1.0000 0.34480  0.39830  0.93980  Biso   1.000  C
  C6       1.0000 0.65520  0.60170  0.06020  Biso   1.000  C
  H1       1.0000 0.30630  0.36520  0.92480  Biso   1.000  H
  H2       1.0000 0.69370  0.63480  0.07520  Biso   1.000  H
  C7       1.0000 0.45690  0.36770  0.90440  Biso   1.000  C
  C8       1.0000 0.54310  0.63230  0.09560  Biso   1.000  C
  O3       1.0000 0.52540  0.40070  0.91530  Biso   1.000  O
  O4       1.0000 0.47460  0.59930  0.08470  Biso   1.000  O
  C9       1.0000 0.51090  0.28110  0.84410  Biso   1.000  C
  C10      1.0000 0.48910  0.71890  0.15590  Biso   1.000  C
  F7       1.0000 0.44500  0.24070  0.83390  Biso   1.000  F
  F8       1.0000 0.55500  0.75930  0.16610  Biso   1.000  F
  F9       1.0000 0.60020  0.20630  0.86330  Biso   1.000  F
  F10      1.0000 0.39980  0.79370  0.13670  Biso   1.000  F
  F11      1.0000 0.54860  0.32080  0.77140  Biso   1.000  F
  F12      1.0000 0.45140  0.67920  0.22860  Biso   1.000  F
  N1       1.0000 0.53300  0.37650  0.08600  Biso   1.000  N
  N2       1.0000 0.46700  0.62350  0.91400  Biso   1.000  N
  C11      1.0000 0.49030  0.39000  0.16600  Biso   1.000  C
  C12      1.0000 0.50970  0.61000  0.83400  Biso   1.000  C
  H3       1.0000 0.44650  0.45770  0.18300  Biso   1.000  H
  H4       1.0000 0.55350  0.54230  0.81700  Biso   1.000  H
  C13      1.0000 0.50830  0.30810  0.22420  Biso   1.000  C
  C14      1.0000 0.49170  0.69190  0.77580  Biso   1.000  C
  H5       1.0000 0.47720  0.32090  0.27940  Biso   1.000  H
  H6       1.0000 0.52280  0.67910  0.72060  Biso   1.000  H
  C15      1.0000 0.57280  0.20630  0.20080  Biso   1.000  C
  C16      1.0000 0.42720  0.79370  0.79920  Biso   1.000  C
  C17      1.0000 0.61750  0.19250  0.11760  Biso   1.000  C
  C18      1.0000 0.38250  0.80750  0.88240  Biso   1.000  C
  H7       1.0000 0.66160  0.12550  0.09900  Biso   1.000  H
  H8       1.0000 0.33840  0.87450  0.90100  Biso   1.000  H
  C19      1.0000 0.59610  0.27840  0.06300  Biso   1.000  C
  C20      1.0000 0.40390  0.72160  0.93700  Biso   1.000  C
  H9       1.0000 0.62690  0.26790  0.00750  Biso   1.000  H
  H10      1.0000 0.37310  0.73210  0.99250  Biso   1.000  H
  C21      1.0000 0.58870  0.11450  0.26180  Biso   1.000  C
  C22      1.0000 0.41130  0.88550  0.73820  Biso   1.000  C
  C23      1.0000 0.58360  0.12680  0.34260  Biso   1.000  C
  C24      1.0000 0.41640  0.87320  0.65740  Biso   1.000  C
  H11      1.0000 0.57470  0.19130  0.35780  Biso   1.000  H
  H12      1.0000 0.42530  0.80870  0.64220  Biso   1.000  H
  C25      1.0000 0.59190  0.04420  0.39940  Biso   1.000  C
  C26      1.0000 0.40810  0.95580  0.60060  Biso   1.000  C
  H13      1.0000 0.58790  0.05340  0.45320  Biso   1.000  H
  H14      1.0000 0.41210  0.94660  0.54680  Biso   1.000  H
  N3       1.0000 0.60540  0.95100  0.37950  Biso   1.000  N
  N4       1.0000 0.39460  0.04900  0.62050  Biso   1.000  N
  C27      1.0000 0.61380  0.93550  0.30220  Biso   1.000  C
  C28      1.0000 0.38620  0.06450  0.69780  Biso   1.000  C
  H15      1.0000 0.62550  0.86940  0.28840  Biso   1.000  H
  H16      1.0000 0.37450  0.13060  0.71160  Biso   1.000  H
  C29      1.0000 0.60520  0.01600  0.24290  Biso   1.000  C
  C30      1.0000 0.39480  0.98400  0.75710  Biso   1.000  C
  H17      1.0000 0.61060  0.00410  0.18940  Biso   1.000  H
  H18      1.0000 0.38940  0.99590  0.81060  Biso   1.000  H
  O5       1.0000 0.60700  0.87360  0.43610  Biso   1.000  O
  O6       1.0000 0.39300  0.12640  0.56390  Biso   1.000  O
  C31      1.0000 0.44500  0.65480  0.52060  Biso   1.000  C
  C32      1.0000 0.55500  0.34520  0.47940  Biso   1.000  C
  F13      1.0000 0.36800  0.74760  0.54120  Biso   1.000  F
  F14      1.0000 0.63200  0.25240  0.45880  Biso   1.000  F
  F15      1.0000 0.45040  0.59570  0.59060  Biso   1.000  F
  F16      1.0000 0.54960  0.40430  0.40940  Biso   1.000  F
  F17      1.0000 0.40990  0.61460  0.47490  Biso   1.000  F
  F18      1.0000 0.59010  0.38540  0.52510  Biso   1.000  F
  C33      1.0000 0.55950  0.66130  0.48120  Biso   1.000  C
  C34      1.0000 0.44050  0.33870  0.51880  Biso   1.000  C
  O7       1.0000 0.59000  0.69930  0.52560  Biso   1.000  O
  O8       1.0000 0.41000  0.30070  0.47440  Biso   1.000  O
  C35      1.0000 0.61350  0.62640  0.40300  Biso   1.000  C
  C36      1.0000 0.38650  0.37360  0.59700  Biso   1.000  C
  H19      1.0000 0.57910  0.59830  0.37820  Biso   1.000  H
  H20      1.0000 0.42090  0.40170  0.62180  Biso   1.000  H
  C37      1.0000 0.71450  0.63020  0.35940  Biso   1.000  C
  C38      1.0000 0.28550  0.36980  0.64060  Biso   1.000  C
  O9       1.0000 0.77160  0.66800  0.37890  Biso   1.000  O
  O10      1.0000 0.22840  0.33200  0.62110  Biso   1.000  O
  C39      1.0000 0.76610  0.58340  0.27400  Biso   1.000  C
  C40      1.0000 0.23390  0.41660  0.72600  Biso   1.000  C
  F19      1.0000 0.86900  0.51710  0.26840  Biso   1.000  F
  F20      1.0000 0.13100  0.48290  0.73160  Biso   1.000  F
  F21      1.0000 0.77100  0.66130  0.21750  Biso   1.000  F
  F22      1.0000 0.22900  0.33870  0.78250  Biso   1.000  F
  F23      1.0000 0.71040  0.53890  0.25330  Biso   1.000  F
  F24      1.0000 0.28960  0.46110  0.74670  Biso   1.000  F
  C41      1.0000 0.70140  0.03970  0.63200  Biso   1.000  C
  C42      1.0000 0.29860  0.96030  0.36800  Biso   1.000  C
  F25      1.0000 0.78140  0.05930  0.57950  Biso   1.000  F
  F26      1.0000 0.21860  0.94070  0.42050  Biso   1.000  F
  F27      1.0000 0.70760  0.06180  0.69990  Biso   1.000  F
  F28      1.0000 0.29240  0.93820  0.30010  Biso   1.000  F
  F29      1.0000 0.61130  0.11100  0.61590  Biso   1.000  F
  F30      1.0000 0.38870  0.88900  0.38410  Biso   1.000  F
  C43      1.0000 0.70860  0.92990  0.62880  Biso   1.000  C
  C44      1.0000 0.29140  0.07010  0.37120  Biso   1.000  C
  O11      1.0000 0.69800  0.91150  0.56300  Biso   1.000  O
  O12      1.0000 0.30200  0.08850  0.43700  Biso   1.000  O
  C45      1.0000 0.72850  0.86110  0.69670  Biso   1.000  C
  C46      1.0000 0.27150  0.13890  0.30330  Biso   1.000  C
  H21      1.0000 0.74030  0.88280  0.74080  Biso   1.000  H
  H22      1.0000 0.25970  0.11720  0.25920  Biso   1.000  H
  C47      1.0000 0.73100  0.76170  0.69990  Biso   1.000  C
  C48      1.0000 0.26900  0.23830  0.30010  Biso   1.000  C
  O13      1.0000 0.71730  0.71830  0.64740  Biso   1.000  O
  O14      1.0000 0.28270  0.28170  0.35260  Biso   1.000  O
  C49      1.0000 0.75700  0.69130  0.77800  Biso   1.000  C
  C50      1.0000 0.24300  0.30870  0.22200  Biso   1.000  C
  F31      1.0000 0.75410  0.59890  0.77890  Biso   1.000  F
  F32      1.0000 0.24590  0.40110  0.22110  Biso   1.000  F
  F33      1.0000 0.68280  0.73390  0.84490  Biso   1.000  F
  F34      1.0000 0.31720  0.26610  0.15510  Biso   1.000  F
  F35      1.0000 0.85460  0.67930  0.78590  Biso   1.000  F
  F36      1.0000 0.14540  0.32070  0.21410  Biso   1.000  F
  C51      1.0000 0.91270  0.97590  0.34560  Biso   1.000  C
  C52      1.0000 0.08730  0.02410  0.65440  Biso   1.000  C
  F37      1.0000 0.85640  0.99400  0.28970  Biso   1.000  F
  F38      1.0000 0.14360  0.00600  0.71030  Biso   1.000  F
  F39      1.0000 0.01190  0.96480  0.30460  Biso   1.000  F
  F40      1.0000 0.98810  0.03520  0.69540  Biso   1.000  F
  F41      1.0000 0.86600  0.05900  0.38590  Biso   1.000  F
  F42      1.0000 0.13400  0.94100  0.61410  Biso   1.000  F
  C53      1.0000 0.91140  0.87920  0.40530  Biso   1.000  C
  C54      1.0000 0.08860  0.12080  0.59470  Biso   1.000  C
  O15      1.0000 0.84170  0.84530  0.40160  Biso   1.000  O
  O16      1.0000 0.15830  0.15470  0.59840  Biso   1.000  O
  C55      1.0000 0.98560  0.84260  0.45460  Biso   1.000  C
  C56      1.0000 0.01440  0.15740  0.54540  Biso   1.000  C
  H23      1.0000 0.03680  0.87340  0.44860  Biso   1.000  H
  H24      1.0000 0.96320  0.12660  0.55140  Biso   1.000  H
  C57      1.0000 0.98670  0.76090  0.51330  Biso   1.000  C
  C58      1.0000 0.01330  0.23910  0.48670  Biso   1.000  C
  O17      1.0000 0.92180  0.71350  0.53050  Biso   1.000  O
  O18      1.0000 0.07820  0.28650  0.46950  Biso   1.000  O
  C59      1.0000 0.07230  0.72300  0.56560  Biso   1.000  C
  C60      1.0000 0.92770  0.27700  0.43440  Biso   1.000  C
  F43      1.0000 0.12130  0.62320  0.57010  Biso   1.000  F
  F44      1.0000 0.87870  0.37680  0.42990  Biso   1.000  F
  F45      1.0000 0.02850  0.75310  0.63760  Biso   1.000  F
  F46      1.0000 0.97150  0.24690  0.36240  Biso   1.000  F
  F47      1.0000 0.15220  0.75640  0.53960  Biso   1.000  F
  F48      1.0000 0.84780  0.24360  0.46040  Biso   1.000  F
  O19      1.0000 0.82520  0.56500  0.52200  Biso   1.000  O
  O20      1.0000 0.17480  0.43500  0.47800  Biso   1.000  O
  N5       1.0000 0.84320  0.50050  0.58800  Biso   1.000  N
  N6       1.0000 0.15680  0.49950  0.41200  Biso   1.000  N
  C61      1.0000 0.77110  0.45540  0.62460  Biso   1.000  C
  C62      1.0000 0.22890  0.54460  0.37540  Biso   1.000  C
  H25      1.0000 0.70740  0.47170  0.60560  Biso   1.000  H
  H26      1.0000 0.29260  0.52830  0.39440  Biso   1.000  H
  C63      1.0000 0.79100  0.38440  0.69090  Biso   1.000  C
  C64      1.0000 0.20900  0.61560  0.30910  Biso   1.000  C
  H27      1.0000 0.73990  0.35370  0.71620  Biso   1.000  H
  H28      1.0000 0.26010  0.64630  0.28380  Biso   1.000  H
  C65      1.0000 0.88550  0.35780  0.72060  Biso   1.000  C
  C66      1.0000 0.11450  0.64220  0.27940  Biso   1.000  C
  C67      1.0000 0.95700  0.40750  0.68040  Biso   1.000  C
  C68      1.0000 0.04300  0.59250  0.31960  Biso   1.000  C
  H29      1.0000 0.02140  0.39300  0.69800  Biso   1.000  H
  H30      1.0000 0.97860  0.60700  0.30200  Biso   1.000  H
  C69      1.0000 0.93410  0.47830  0.61480  Biso   1.000  C
  C70      1.0000 0.06590  0.52170  0.38520  Biso   1.000  C
  H31      1.0000 0.98320  0.51100  0.58880  Biso   1.000  H
  H32      1.0000 0.01680  0.48900  0.41120  Biso   1.000  H
  C71      1.0000 0.91210  0.27810  0.78890  Biso   1.000  C
  C72      1.0000 0.08790  0.72190  0.21110  Biso   1.000  C
  C73      1.0000 0.83030  0.25520  0.84720  Biso   1.000  C
  C74      1.0000 0.16970  0.74480  0.15280  Biso   1.000  C
  H33      1.0000 0.75550  0.29250  0.84620  Biso   1.000  H
  H34      1.0000 0.24450  0.70750  0.15380  Biso   1.000  H
  C75      1.0000 0.85970  0.17660  0.90740  Biso   1.000  C
  C76      1.0000 0.14030  0.82340  0.09260  Biso   1.000  C
  H35      1.0000 0.80290  0.16330  0.94680  Biso   1.000  H
  H36      1.0000 0.19710  0.83670  0.05320  Biso   1.000  H
  N7       1.0000 0.96420  0.11930  0.91190  Biso   1.000  N
  N8       1.0000 0.03580  0.88070  0.08810  Biso   1.000  N
  C77      1.0000 0.04360  0.14280  0.85690  Biso   1.000  C
  C78      1.0000 0.95640  0.85720  0.14310  Biso   1.000  C
  H37      1.0000 0.11760  0.10540  0.86020  Biso   1.000  H
  H38      1.0000 0.88240  0.89460  0.13980  Biso   1.000  H
  C79      1.0000 0.02120  0.21990  0.79550  Biso   1.000  C
  C80      1.0000 0.97880  0.78010  0.20450  Biso   1.000  C
  H39      1.0000 0.07960  0.23320  0.75800  Biso   1.000  H
  H40      1.0000 0.92040  0.76680  0.24200  Biso   1.000  H
  C81      1.0000 0.86290  0.25320  0.17320  Biso   1.000  C
  C82      1.0000 0.13710  0.74680  0.82680  Biso   1.000  C
  F49      1.0000 0.81580  0.21200  0.23820  Biso   1.000  F
  F50      1.0000 0.18420  0.78800  0.76180  Biso   1.000  F
  F51      1.0000 0.90540  0.31330  0.19260  Biso   1.000  F
  F52      1.0000 0.09460  0.68670  0.80740  Biso   1.000  F
  F53      1.0000 0.78080  0.31910  0.13890  Biso   1.000  F
  F54      1.0000 0.21920  0.68090  0.86110  Biso   1.000  F
  C83      1.0000 0.94940  0.16830  0.11390  Biso   1.000  C
  C84      1.0000 0.05060  0.83170  0.88610  Biso   1.000  C
  O21      1.0000 0.90990  0.11390  0.09280  Biso   1.000  O
  O22      1.0000 0.09010  0.88610  0.90720  Biso   1.000  O
  C85      1.0000 0.05800  0.16120  0.09170  Biso   1.000  C
  C86      1.0000 0.94200  0.83880  0.90830  Biso   1.000  C
  H41      1.0000 0.07470  0.20640  0.11530  Biso   1.000  H
  H42      1.0000 0.92530  0.79360  0.88470  Biso   1.000  H
  C87      1.0000 0.14520  0.09200  0.03690  Biso   1.000  C
  C88      1.0000 0.85480  0.90800  0.96310  Biso   1.000  C
  O23      1.0000 0.14290  0.02330  0.99880  Biso   1.000  O
  O24      1.0000 0.85710  0.97670  0.00120  Biso   1.000  O
  C89      1.0000 0.25600  0.10160  0.01740  Biso   1.000  C
  C90      1.0000 0.74400  0.89840  0.98260  Biso   1.000  C
  F55      1.0000 0.33080  0.00980  0.03080  Biso   1.000  F
  F56      1.0000 0.66920  0.99020  0.96920  Biso   1.000  F
  F57      1.0000 0.29500  0.11170  0.94230  Biso   1.000  F
  F58      1.0000 0.70500  0.88830  0.05770  Biso   1.000  F
  F59      1.0000 0.27030  0.16040  0.05090  Biso   1.000  F
  F60      1.0000 0.72970  0.83960  0.94910  Biso   1.000  F
  F61      1.0000 0.10460  0.56490  0.97310  Biso   1.000  F
  F62      1.0000 0.89540  0.43510  0.02690  Biso   1.000  F
  F63      1.0000 0.11250  0.54230  0.10140  Biso   1.000  F
  F64      1.0000 0.88750  0.45770  0.89860  Biso   1.000  F
  F65      1.0000 0.13590  0.41020  0.03630  Biso   1.000  F
  F66      1.0000 0.86410  0.58980  0.96370  Biso   1.000  F
