data_image0
_cell_length_a       7.742
_cell_length_b       10.386
_cell_length_c       14.578
_cell_angle_alpha    102.611
_cell_angle_beta     98.356
_cell_angle_gamma    98.737

_symmetry_space_group_name_H-M    "P 1"
_symmetry_int_tables_number       1

loop_
  _symmetry_equiv_pos_as_xyz
  'x, y, z'

loop_
  _atom_site_label
  _atom_site_occupancy
  _atom_site_fract_x
  _atom_site_fract_y
  _atom_site_fract_z
  _atom_site_thermal_displace_type
  _atom_site_B_iso_or_equiv
  _atom_site_type_symbol
  Cu1      1.0000 0.28757  0.67649  0.77013  Biso   1.000  Cu
  Cu2      1.0000 0.71243  0.32351  0.22987  Biso   1.000  Cu
  O1       1.0000 0.13020  0.78220  0.52466  Biso   1.000  O
  O2       1.0000 0.86980  0.21780  0.47534  Biso   1.000  O
  O3       1.0000 0.31520  0.81970  0.88417  Biso   1.000  O
  O4       1.0000 0.68480  0.18030  0.11583  Biso   1.000  O
  O5       1.0000 0.28440  0.53640  0.83655  Biso   1.000  O
  O6       1.0000 0.71560  0.46360  0.16345  Biso   1.000  O
  N1       1.0000 0.96220  0.68430  0.76696  Biso   1.000  N
  N2       1.0000 0.03780  0.31570  0.23304  Biso   1.000  N
  N3       1.0000 0.60810  0.69940  0.77533  Biso   1.000  N
  N4       1.0000 0.39190  0.30060  0.22467  Biso   1.000  N
  N5       1.0000 0.99840  0.03620  0.77760  Biso   1.000  N
  N6       1.0000 0.00160  0.96380  0.22240  Biso   1.000  N
  N7       1.0000 0.14430  0.11790  0.76250  Biso   1.000  N
  N8       1.0000 0.85570  0.88210  0.23750  Biso   1.000  N
  N9       1.0000 0.17320  0.90910  0.71362  Biso   1.000  N
  N10      1.0000 0.82680  0.09090  0.28638  Biso   1.000  N
  N11      1.0000 0.48300  0.01840  0.63370  Biso   1.000  N
  N12      1.0000 0.51700  0.98160  0.36630  Biso   1.000  N
  N13      1.0000 0.67650  0.26560  0.74580  Biso   1.000  N
  N14      1.0000 0.32350  0.73440  0.25420  Biso   1.000  N
  N15      1.0000 0.24330  0.79320  0.68329  Biso   1.000  N
  N16      1.0000 0.75670  0.20680  0.31671  Biso   1.000  N
  N17      1.0000 0.26170  0.54160  0.64072  Biso   1.000  N
  N18      1.0000 0.73830  0.45840  0.35928  Biso   1.000  N
  N19      1.0000 0.27650  0.40380  0.45670  Biso   1.000  N
  N20      1.0000 0.72350  0.59620  0.54330  Biso   1.000  N
  C1       1.0000 0.84850  0.58330  0.78010  Biso   1.000  C
  C2       1.0000 0.15150  0.41670  0.21990  Biso   1.000  C
  H1       1.0000 0.88800  0.50470  0.78590  Biso   1.000  H
  H2       1.0000 0.11200  0.49530  0.21410  Biso   1.000  H
  C3       1.0000 0.67440  0.59130  0.78540  Biso   1.000  C
  C4       1.0000 0.32560  0.40870  0.21460  Biso   1.000  C
  H3       1.0000 0.60070  0.51890  0.79640  Biso   1.000  H
  H4       1.0000 0.39930  0.48110  0.20360  Biso   1.000  H
  C5       1.0000 0.72010  0.80060  0.76180  Biso   1.000  C
  C6       1.0000 0.27990  0.19940  0.23820  Biso   1.000  C
  H5       1.0000 0.67880  0.87790  0.75440  Biso   1.000  H
  H6       1.0000 0.32120  0.12210  0.24560  Biso   1.000  H
  C7       1.0000 0.89760  0.79460  0.75838  Biso   1.000  C
  C8       1.0000 0.10240  0.20540  0.24162  Biso   1.000  C
  C9       1.0000 0.01890  0.91160  0.74840  Biso   1.000  C
  C10      1.0000 0.98110  0.08840  0.25160  Biso   1.000  C
  C11      1.0000 0.24800  0.03980  0.72520  Biso   1.000  C
  C12      1.0000 0.75200  0.96020  0.27480  Biso   1.000  C
  C13      1.0000 0.42130  0.09090  0.70470  Biso   1.000  C
  C14      1.0000 0.57870  0.90910  0.29530  Biso   1.000  C
  C15      1.0000 0.51720  0.21200  0.75900  Biso   1.000  C
  C16      1.0000 0.48280  0.78800  0.24100  Biso   1.000  C
  H7       1.0000 0.46880  0.25930  0.80760  Biso   1.000  H
  H8       1.0000 0.53120  0.74070  0.19240  Biso   1.000  H
  C17      1.0000 0.73670  0.19360  0.67500  Biso   1.000  C
  C18      1.0000 0.26330  0.80640  0.32500  Biso   1.000  C
  H9       1.0000 0.84700  0.22620  0.66210  Biso   1.000  H
  H10      1.0000 0.15300  0.77380  0.33790  Biso   1.000  H
  C19      1.0000 0.64160  0.07300  0.62040  Biso   1.000  C
  C20      1.0000 0.35840  0.92700  0.37960  Biso   1.000  C
  H11      1.0000 0.68990  0.02650  0.57140  Biso   1.000  H
  H12      1.0000 0.31010  0.97350  0.42860  Biso   1.000  H
  C21      1.0000 0.20060  0.73850  0.58940  Biso   1.000  C
  C22      1.0000 0.79940  0.26150  0.41060  Biso   1.000  C
  C23      1.0000 0.24160  0.59900  0.56726  Biso   1.000  C
  C24      1.0000 0.75840  0.40100  0.43274  Biso   1.000  C
  C25      1.0000 0.24890  0.52910  0.47660  Biso   1.000  C
  C26      1.0000 0.75110  0.47090  0.52340  Biso   1.000  C
  H13      1.0000 0.23380  0.57170  0.42690  Biso   1.000  H
  H14      1.0000 0.76620  0.42830  0.57310  Biso   1.000  H
  C27      1.0000 0.28990  0.34710  0.52960  Biso   1.000  C
  C28      1.0000 0.71010  0.65290  0.47040  Biso   1.000  C
  H15      1.0000 0.30540  0.25830  0.51850  Biso   1.000  H
  H16      1.0000 0.69460  0.74170  0.48150  Biso   1.000  H
  C29      1.0000 0.28200  0.41330  0.62130  Biso   1.000  C
  C30      1.0000 0.71800  0.58670  0.37870  Biso   1.000  C
  H17      1.0000 0.29090  0.36850  0.67000  Biso   1.000  H
  H18      1.0000 0.70910  0.63150  0.33000  Biso   1.000  H
  C31      1.0000 0.23000  0.42320  0.95540  Biso   1.000  C
  C32      1.0000 0.77000  0.57680  0.04460  Biso   1.000  C
  H19      1.0000 0.14510  0.35520  0.90810  Biso   1.000  H
  H20      1.0000 0.85490  0.64480  0.09190  Biso   1.000  H
  H21      1.0000 0.18700  0.43930  0.01470  Biso   1.000  H
  H22      1.0000 0.81300  0.56070  0.98530  Biso   1.000  H
  H23      1.0000 0.34130  0.39360  0.96480  Biso   1.000  H
  H24      1.0000 0.65870  0.60640  0.03520  Biso   1.000  H
  C33      1.0000 0.25580  0.55110  0.92220  Biso   1.000  C
  C34      1.0000 0.74420  0.44890  0.07780  Biso   1.000  C
  C35      1.0000 0.25040  0.67230  0.98250  Biso   1.000  C
  C36      1.0000 0.74960  0.32770  0.01750  Biso   1.000  C
  H25      1.0000 0.22330  0.66960  0.04230  Biso   1.000  H
  H26      1.0000 0.77670  0.33040  0.95770  Biso   1.000  H
  C37      1.0000 0.28170  0.79880  0.96300  Biso   1.000  C
  C38      1.0000 0.71830  0.20120  0.03700  Biso   1.000  C
  C39      1.0000 0.27670  0.92240  0.03830  Biso   1.000  C
  C40      1.0000 0.72330  0.07760  0.96170  Biso   1.000  C
  H27      1.0000 0.39570  0.96400  0.07070  Biso   1.000  H
  H28      1.0000 0.60430  0.03600  0.92930  Biso   1.000  H
  H29      1.0000 0.20770  0.89760  0.08350  Biso   1.000  H
  H30      1.0000 0.79230  0.10240  0.91650  Biso   1.000  H
  H31      1.0000 0.22370  0.98440  0.00860  Biso   1.000  H
  H32      1.0000 0.77630  0.01560  0.99140  Biso   1.000  H
  O7       1.0000 0.90980  0.95240  0.48240  Biso   1.000  O
  O8       1.0000 0.09020  0.04760  0.51760  Biso   1.000  O
  H33      1.0000 0.99060  0.90830  0.49390  Biso   1.000  H
  H34      1.0000 0.00940  0.09170  0.50610  Biso   1.000  H
  H35      1.0000 0.94340  0.02940  0.47290  Biso   1.000  H
  H36      1.0000 0.05660  0.97060  0.52710  Biso   1.000  H
