data_image0
_cell_length_a       14.868
_cell_length_b       14.868
_cell_length_c       6.9774
_cell_angle_alpha    90
_cell_angle_beta     90
_cell_angle_gamma    120

_symmetry_space_group_name_H-M    "P 1"
_symmetry_int_tables_number       1

loop_
  _symmetry_equiv_pos_as_xyz
  'x, y, z'

loop_
  _atom_site_label
  _atom_site_occupancy
  _atom_site_fract_x
  _atom_site_fract_y
  _atom_site_fract_z
  _atom_site_thermal_displace_type
  _atom_site_B_iso_or_equiv
  _atom_site_type_symbol
  C1       1.0000 0.66486  0.53660  0.30320  Biso   1.000  C
  C2       1.0000 0.46340  0.12826  0.96987  Biso   1.000  C
  C3       1.0000 0.87174  0.33514  0.63653  Biso   1.000  C
  C4       1.0000 0.53660  0.66486  0.69680  Biso   1.000  C
  C5       1.0000 0.33514  0.87174  0.36347  Biso   1.000  C
  C6       1.0000 0.12826  0.46340  0.03013  Biso   1.000  C
  H1       1.0000 0.66720  0.60220  0.29550  Biso   1.000  H
  H2       1.0000 0.39780  0.06500  0.96217  Biso   1.000  H
  H3       1.0000 0.93500  0.33280  0.62883  Biso   1.000  H
  H4       1.0000 0.60220  0.66720  0.70450  Biso   1.000  H
  H5       1.0000 0.33280  0.93500  0.37117  Biso   1.000  H
  H6       1.0000 0.06500  0.39780  0.03783  Biso   1.000  H
  H7       1.0000 0.60940  0.48670  0.22420  Biso   1.000  H
  H8       1.0000 0.51330  0.12270  0.89087  Biso   1.000  H
  H9       1.0000 0.87730  0.39060  0.55753  Biso   1.000  H
  H10      1.0000 0.48670  0.60940  0.77580  Biso   1.000  H
  H11      1.0000 0.39060  0.87730  0.44247  Biso   1.000  H
  H12      1.0000 0.12270  0.51330  0.10913  Biso   1.000  H
  H13      1.0000 0.72960  0.54450  0.25940  Biso   1.000  H
  H14      1.0000 0.45550  0.18510  0.92607  Biso   1.000  H
  H15      1.0000 0.81490  0.27040  0.59273  Biso   1.000  H
  H16      1.0000 0.54450  0.72960  0.74060  Biso   1.000  H
  H17      1.0000 0.27040  0.81490  0.40727  Biso   1.000  H
  H18      1.0000 0.18510  0.45550  0.07393  Biso   1.000  H
  C7       1.0000 0.64682  0.49995  0.50520  Biso   1.000  C
  C8       1.0000 0.50005  0.14687  0.17187  Biso   1.000  C
  C9       1.0000 0.85313  0.35318  0.83853  Biso   1.000  C
  C10      1.0000 0.49995  0.64682  0.49480  Biso   1.000  C
  C11      1.0000 0.35318  0.85313  0.16147  Biso   1.000  C
  C12      1.0000 0.14687  0.50005  0.82813  Biso   1.000  C
  C13      1.0000 0.67913  0.46720  0.79700  Biso   1.000  C
  C14      1.0000 0.53280  0.21193  0.46367  Biso   1.000  C
  C15      1.0000 0.78807  0.32087  0.13033  Biso   1.000  C
  C16      1.0000 0.46720  0.67913  0.20300  Biso   1.000  C
  C17      1.0000 0.32087  0.78807  0.86967  Biso   1.000  C
  C18      1.0000 0.21193  0.53280  0.53633  Biso   1.000  C
  H19      1.0000 0.71390  0.46340  0.90470  Biso   1.000  H
  H20      1.0000 0.53660  0.25050  0.57137  Biso   1.000  H
  H21      1.0000 0.74950  0.28610  0.23803  Biso   1.000  H
  H22      1.0000 0.46340  0.71390  0.09530  Biso   1.000  H
  H23      1.0000 0.28610  0.74950  0.76197  Biso   1.000  H
  H24      1.0000 0.25050  0.53660  0.42863  Biso   1.000  H
  C19      1.0000 0.57689  0.43505  0.78260  Biso   1.000  C
  C20      1.0000 0.56495  0.14184  0.44927  Biso   1.000  C
  C21      1.0000 0.85816  0.42311  0.11593  Biso   1.000  C
  C22      1.0000 0.43505  0.57689  0.21740  Biso   1.000  C
  C23      1.0000 0.42311  0.85816  0.88407  Biso   1.000  C
  C24      1.0000 0.14184  0.56495  0.55073  Biso   1.000  C
  H25      1.0000 0.52800  0.40400  0.87970  Biso   1.000  H
  H26      1.0000 0.59600  0.12400  0.54637  Biso   1.000  H
  H27      1.0000 0.87600  0.47200  0.21303  Biso   1.000  H
  H28      1.0000 0.40400  0.52800  0.12030  Biso   1.000  H
  H29      1.0000 0.47200  0.87600  0.78697  Biso   1.000  H
  H30      1.0000 0.12400  0.59600  0.45363  Biso   1.000  H
  C25      1.0000 0.31061  0.30917  0.21480  Biso   1.000  C
  C26      1.0000 0.69083  0.00144  0.88147  Biso   1.000  C
  C27      1.0000 0.99856  0.68939  0.54813  Biso   1.000  C
  C28      1.0000 0.30917  0.31061  0.78520  Biso   1.000  C
  C29      1.0000 0.68939  0.99856  0.45187  Biso   1.000  C
  C30      1.0000 0.00144  0.69083  0.11853  Biso   1.000  C
  C31      1.0000 0.22635  0.22835  0.09420  Biso   1.000  C
  C32      1.0000 0.77165  0.99800  0.76087  Biso   1.000  C
  C33      1.0000 0.00200  0.77365  0.42753  Biso   1.000  C
  C34      1.0000 0.22835  0.22635  0.90580  Biso   1.000  C
  C35      1.0000 0.77365  0.00200  0.57247  Biso   1.000  C
  C36      1.0000 0.99800  0.77165  0.23913  Biso   1.000  C
  Cu1      1.0000 0.41951  0.41951  0.50000  Biso   1.000  Cu
  Cu2      1.0000 0.58049  0.00000  0.16667  Biso   1.000  Cu
  Cu3      1.0000 0.00000  0.58049  0.83333  Biso   1.000  Cu
  H31      1.0000 0.18100  0.18300  0.16900  Biso   1.000  H
  H32      1.0000 0.81700  0.99800  0.83567  Biso   1.000  H
  H33      1.0000 0.00200  0.81900  0.50233  Biso   1.000  H
  H34      1.0000 0.18300  0.18100  0.83100  Biso   1.000  H
  H35      1.0000 0.81900  0.00200  0.49767  Biso   1.000  H
  H36      1.0000 0.99800  0.81700  0.16433  Biso   1.000  H
  N1       1.0000 0.72152  0.50674  0.62040  Biso   1.000  N
  N2       1.0000 0.49326  0.21478  0.28707  Biso   1.000  N
  N3       1.0000 0.78522  0.27848  0.95373  Biso   1.000  N
  N4       1.0000 0.50674  0.72152  0.37960  Biso   1.000  N
  N5       1.0000 0.27848  0.78522  0.04627  Biso   1.000  N
  N6       1.0000 0.21478  0.49326  0.71293  Biso   1.000  N
  H37      1.0000 0.78560  0.53170  0.58940  Biso   1.000  H
  H38      1.0000 0.46830  0.25390  0.25607  Biso   1.000  H
  H39      1.0000 0.74610  0.21440  0.92273  Biso   1.000  H
  H40      1.0000 0.53170  0.78560  0.41060  Biso   1.000  H
  H41      1.0000 0.21440  0.74610  0.07727  Biso   1.000  H
  H42      1.0000 0.25390  0.46830  0.74393  Biso   1.000  H
  N7       1.0000 0.55687  0.45602  0.59890  Biso   1.000  N
  N8       1.0000 0.54398  0.10085  0.26557  Biso   1.000  N
  N9       1.0000 0.89915  0.44313  0.93223  Biso   1.000  N
  N10      1.0000 0.45602  0.55687  0.40110  Biso   1.000  N
  N11      1.0000 0.44313  0.89915  0.06777  Biso   1.000  N
  N12      1.0000 0.10085  0.54398  0.73443  Biso   1.000  N
  O1       1.0000 0.28552  0.35079  0.34720  Biso   1.000  O
  O2       1.0000 0.64921  0.93473  0.01387  Biso   1.000  O
  O3       1.0000 0.06527  0.71448  0.68053  Biso   1.000  O
  O4       1.0000 0.35079  0.28552  0.65280  Biso   1.000  O
  O5       1.0000 0.71448  0.06527  0.31947  Biso   1.000  O
  O6       1.0000 0.93473  0.64921  0.98613  Biso   1.000  O
  O7       1.0000 0.40265  0.33202  0.18800  Biso   1.000  O
  O8       1.0000 0.66798  0.07063  0.85467  Biso   1.000  O
  O9       1.0000 0.92937  0.59735  0.52133  Biso   1.000  O
  O10      1.0000 0.33202  0.40265  0.81200  Biso   1.000  O
  O11      1.0000 0.59735  0.92937  0.47867  Biso   1.000  O
  O12      1.0000 0.07063  0.66798  0.14533  Biso   1.000  O
  O13      1.0000 0.07424  0.25360  0.48100  Biso   1.000  O
  O14      1.0000 0.74640  0.82064  0.14767  Biso   1.000  O
  O15      1.0000 0.17936  0.92576  0.81433  Biso   1.000  O
  O16      1.0000 0.25360  0.07424  0.51900  Biso   1.000  O
  O17      1.0000 0.92576  0.17936  0.18567  Biso   1.000  O
  O18      1.0000 0.82064  0.74640  0.85233  Biso   1.000  O
  O19      1.0000 0.05750  0.05750  0.50000  Biso   1.000  O
  O20      1.0000 0.94250  0.00000  0.16667  Biso   1.000  O
  O21      1.0000 0.00000  0.94250  0.83333  Biso   1.000  O
