data_image0
_cell_length_a       14.829
_cell_length_b       7.2111
_cell_length_c       23.976
_cell_angle_alpha    90
_cell_angle_beta     95
_cell_angle_gamma    90

_symmetry_space_group_name_H-M    "P 1"
_symmetry_int_tables_number       1

loop_
  _symmetry_equiv_pos_as_xyz
  'x, y, z'

loop_
  _atom_site_label
  _atom_site_occupancy
  _atom_site_fract_x
  _atom_site_fract_y
  _atom_site_fract_z
  _atom_site_thermal_displace_type
  _atom_site_B_iso_or_equiv
  _atom_site_type_symbol
  C1       1.0000 0.41290  0.20520  0.54170  Biso   1.000  C
  C2       1.0000 0.58710  0.20520  0.95830  Biso   1.000  C
  C3       1.0000 0.58710  0.79480  0.45830  Biso   1.000  C
  C4       1.0000 0.41290  0.79480  0.04170  Biso   1.000  C
  H1       1.0000 0.43760  0.15900  0.57590  Biso   1.000  H
  H2       1.0000 0.56240  0.15900  0.92410  Biso   1.000  H
  H3       1.0000 0.56240  0.84100  0.42410  Biso   1.000  H
  H4       1.0000 0.43760  0.84100  0.07590  Biso   1.000  H
  C5       1.0000 0.47190  0.25300  0.50170  Biso   1.000  C
  C6       1.0000 0.52810  0.25300  0.99830  Biso   1.000  C
  C7       1.0000 0.52810  0.74700  0.49830  Biso   1.000  C
  C8       1.0000 0.47190  0.74700  0.00170  Biso   1.000  C
  H5       1.0000 0.53420  0.24290  0.50970  Biso   1.000  H
  H6       1.0000 0.46580  0.24290  0.99030  Biso   1.000  H
  H7       1.0000 0.46580  0.75710  0.49030  Biso   1.000  H
  H8       1.0000 0.53420  0.75710  0.00970  Biso   1.000  H
  C9       1.0000 0.43700  0.31400  0.45100  Biso   1.000  C
  C10      1.0000 0.56300  0.31400  0.04900  Biso   1.000  C
  C11      1.0000 0.56300  0.68600  0.54900  Biso   1.000  C
  C12      1.0000 0.43700  0.68600  0.95100  Biso   1.000  C
  H9       1.0000 0.47520  0.34320  0.42350  Biso   1.000  H
  H10      1.0000 0.52480  0.34320  0.07650  Biso   1.000  H
  H11      1.0000 0.52480  0.65680  0.57650  Biso   1.000  H
  H12      1.0000 0.47520  0.65680  0.92350  Biso   1.000  H
  C13      1.0000 0.34260  0.33330  0.43985  Biso   1.000  C
  C14      1.0000 0.65740  0.33330  0.06015  Biso   1.000  C
  C15      1.0000 0.65740  0.66670  0.56015  Biso   1.000  C
  C16      1.0000 0.34260  0.66670  0.93985  Biso   1.000  C
  C17      1.0000 0.28870  0.28520  0.48253  Biso   1.000  C
  C18      1.0000 0.71130  0.28520  0.01747  Biso   1.000  C
  C19      1.0000 0.71130  0.71480  0.51747  Biso   1.000  C
  C20      1.0000 0.28870  0.71480  0.98253  Biso   1.000  C
  C21      1.0000 0.19160  0.29430  0.47436  Biso   1.000  C
  C22      1.0000 0.80840  0.29430  0.02564  Biso   1.000  C
  C23      1.0000 0.80840  0.70570  0.52564  Biso   1.000  C
  C24      1.0000 0.19160  0.70570  0.97436  Biso   1.000  C
  C25      1.0000 0.05630  0.23700  0.51130  Biso   1.000  C
  C26      1.0000 0.94370  0.23700  0.98870  Biso   1.000  C
  C27      1.0000 0.94370  0.76300  0.48870  Biso   1.000  C
  C28      1.0000 0.05630  0.76300  0.01130  Biso   1.000  C
  H13      1.0000 0.02460  0.19830  0.54110  Biso   1.000  H
  H14      1.0000 0.97540  0.19830  0.95890  Biso   1.000  H
  H15      1.0000 0.97540  0.80170  0.45890  Biso   1.000  H
  H16      1.0000 0.02460  0.80170  0.04110  Biso   1.000  H
  C29      1.0000 0.00720  0.29300  0.46170  Biso   1.000  C
  C30      1.0000 0.99280  0.29300  0.03830  Biso   1.000  C
  C31      1.0000 0.99280  0.70700  0.53830  Biso   1.000  C
  C32      1.0000 0.00720  0.70700  0.96170  Biso   1.000  C
  H17      1.0000 0.94420  0.29090  0.45870  Biso   1.000  H
  H18      1.0000 0.05580  0.29090  0.04130  Biso   1.000  H
  H19      1.0000 0.05580  0.70910  0.54130  Biso   1.000  H
  H20      1.0000 0.94420  0.70910  0.95870  Biso   1.000  H
  C33      1.0000 0.05250  0.35050  0.41780  Biso   1.000  C
  C34      1.0000 0.94750  0.35050  0.08220  Biso   1.000  C
  C35      1.0000 0.94750  0.64950  0.58220  Biso   1.000  C
  C36      1.0000 0.05250  0.64950  0.91780  Biso   1.000  C
  H21      1.0000 0.02080  0.38790  0.38450  Biso   1.000  H
  H22      1.0000 0.97920  0.38790  0.11550  Biso   1.000  H
  H23      1.0000 0.97920  0.61210  0.61550  Biso   1.000  H
  H24      1.0000 0.02080  0.61210  0.88450  Biso   1.000  H
  C37      1.0000 0.14720  0.35280  0.42319  Biso   1.000  C
  C38      1.0000 0.85280  0.35280  0.07681  Biso   1.000  C
  C39      1.0000 0.85280  0.64720  0.57681  Biso   1.000  C
  C40      1.0000 0.14720  0.64720  0.92319  Biso   1.000  C
  C41      1.0000 0.29810  0.38910  0.38611  Biso   1.000  C
  C42      1.0000 0.70190  0.38910  0.11389  Biso   1.000  C
  C43      1.0000 0.70190  0.61090  0.61389  Biso   1.000  C
  C44      1.0000 0.29810  0.61090  0.88611  Biso   1.000  C
  C45      1.0000 0.20440  0.40060  0.37806  Biso   1.000  C
  C46      1.0000 0.79560  0.40060  0.12194  Biso   1.000  C
  C47      1.0000 0.79560  0.59940  0.62194  Biso   1.000  C
  C48      1.0000 0.20440  0.59940  0.87806  Biso   1.000  C
  C49      1.0000 0.21320  0.48440  0.28780  Biso   1.000  C
  C50      1.0000 0.78680  0.48440  0.21220  Biso   1.000  C
  C51      1.0000 0.78680  0.51560  0.71220  Biso   1.000  C
  C52      1.0000 0.21320  0.51560  0.78780  Biso   1.000  C
  H25      1.0000 0.18630  0.51860  0.25280  Biso   1.000  H
  H26      1.0000 0.81370  0.51860  0.24720  Biso   1.000  H
  H27      1.0000 0.81370  0.48140  0.74720  Biso   1.000  H
  H28      1.0000 0.18630  0.48140  0.75280  Biso   1.000  H
  C53      1.0000 0.30630  0.47130  0.29570  Biso   1.000  C
  C54      1.0000 0.69370  0.47130  0.20430  Biso   1.000  C
  C55      1.0000 0.69370  0.52870  0.70430  Biso   1.000  C
  C56      1.0000 0.30630  0.52870  0.79570  Biso   1.000  C
  H29      1.0000 0.33950  0.49410  0.26520  Biso   1.000  H
  H30      1.0000 0.66050  0.49410  0.23480  Biso   1.000  H
  H31      1.0000 0.66050  0.50590  0.73480  Biso   1.000  H
  H32      1.0000 0.33950  0.50590  0.76520  Biso   1.000  H
  C57      1.0000 0.36770  0.18530  0.67698  Biso   1.000  C
  C58      1.0000 0.63230  0.18530  0.82302  Biso   1.000  C
  C59      1.0000 0.63230  0.81470  0.32302  Biso   1.000  C
  C60      1.0000 0.36770  0.81470  0.17698  Biso   1.000  C
  C61      1.0000 0.43610  0.07620  0.71521  Biso   1.000  C
  C62      1.0000 0.56390  0.07620  0.78479  Biso   1.000  C
  C63      1.0000 0.56390  0.92380  0.28479  Biso   1.000  C
  C64      1.0000 0.43610  0.92380  0.21521  Biso   1.000  C
  C65      1.0000 0.50000  0.17250  0.75000  Biso   1.000  C
  C66      1.0000 0.50000  0.82750  0.25000  Biso   1.000  C
  H33      1.0000 0.50000  0.30150  0.75000  Biso   1.000  H
  H34      1.0000 0.50000  0.69850  0.25000  Biso   1.000  H
  C67      1.0000 0.43600  0.88510  0.71550  Biso   1.000  C
  C68      1.0000 0.56400  0.88510  0.78450  Biso   1.000  C
  C69      1.0000 0.56400  0.11490  0.28450  Biso   1.000  C
  C70      1.0000 0.43600  0.11490  0.21550  Biso   1.000  C
  H35      1.0000 0.39310  0.82020  0.69250  Biso   1.000  H
  H36      1.0000 0.60690  0.82020  0.80750  Biso   1.000  H
  H37      1.0000 0.60690  0.17980  0.30750  Biso   1.000  H
  H38      1.0000 0.39310  0.17980  0.19250  Biso   1.000  H
  C71      1.0000 0.50000  0.78960  0.75000  Biso   1.000  C
  C72      1.0000 0.50000  0.21040  0.25000  Biso   1.000  C
  H39      1.0000 0.50000  0.66060  0.75000  Biso   1.000  H
  H40      1.0000 0.50000  0.33940  0.25000  Biso   1.000  H
  C73      1.0000 0.09310  0.20290  0.66650  Biso   1.000  C
  C74      1.0000 0.90690  0.20290  0.83350  Biso   1.000  C
  C75      1.0000 0.90690  0.79710  0.33350  Biso   1.000  C
  C76      1.0000 0.09310  0.79710  0.16650  Biso   1.000  C
  C77      1.0000 0.04410  0.09730  0.70954  Biso   1.000  C
  C78      1.0000 0.95590  0.09730  0.79046  Biso   1.000  C
  C79      1.0000 0.95590  0.90270  0.29046  Biso   1.000  C
  C80      1.0000 0.04410  0.90270  0.20954  Biso   1.000  C
  C81      1.0000 0.00000  0.19490  0.75000  Biso   1.000  C
  C82      1.0000 0.00000  0.80510  0.25000  Biso   1.000  C
  H41      1.0000 0.00000  0.32390  0.75000  Biso   1.000  H
  H42      1.0000 0.00000  0.67610  0.25000  Biso   1.000  H
  C83      1.0000 0.04320  0.90530  0.71019  Biso   1.000  C
  C84      1.0000 0.95680  0.90530  0.78981  Biso   1.000  C
  C85      1.0000 0.95680  0.09470  0.28981  Biso   1.000  C
  C86      1.0000 0.04320  0.09470  0.21019  Biso   1.000  C
  H43      1.0000 0.07210  0.84030  0.68340  Biso   1.000  H
  H44      1.0000 0.92790  0.84030  0.81660  Biso   1.000  H
  H45      1.0000 0.92790  0.15970  0.31660  Biso   1.000  H
  H46      1.0000 0.07210  0.15970  0.18340  Biso   1.000  H
  C87      1.0000 0.00000  0.80840  0.75000  Biso   1.000  C
  C88      1.0000 0.00000  0.19160  0.25000  Biso   1.000  C
  H47      1.0000 0.00000  0.67940  0.75000  Biso   1.000  H
  H48      1.0000 0.00000  0.32060  0.25000  Biso   1.000  H
  C89      1.0000 0.22650  0.96300  0.30960  Biso   1.000  C
  C90      1.0000 0.77350  0.96300  0.19040  Biso   1.000  C
  C91      1.0000 0.77350  0.03700  0.69040  Biso   1.000  C
  C92      1.0000 0.22650  0.03700  0.80960  Biso   1.000  C
  H49      1.0000 0.24790  0.07770  0.29530  Biso   1.000  H
  H50      1.0000 0.75210  0.07770  0.20470  Biso   1.000  H
  H51      1.0000 0.75210  0.92230  0.70470  Biso   1.000  H
  H52      1.0000 0.24790  0.92230  0.79530  Biso   1.000  H
  H53      1.0000 0.16400  0.97570  0.31650  Biso   1.000  H
  H54      1.0000 0.83600  0.97570  0.18350  Biso   1.000  H
  H55      1.0000 0.83600  0.02430  0.68350  Biso   1.000  H
  H56      1.0000 0.16400  0.02430  0.81650  Biso   1.000  H
  H57      1.0000 0.23260  0.86620  0.28270  Biso   1.000  H
  H58      1.0000 0.76740  0.86620  0.21730  Biso   1.000  H
  H59      1.0000 0.76740  0.13380  0.71730  Biso   1.000  H
  H60      1.0000 0.23260  0.13380  0.78270  Biso   1.000  H
  C93      1.0000 0.38050  0.91540  0.36370  Biso   1.000  C
  C94      1.0000 0.61950  0.91540  0.13630  Biso   1.000  C
  C95      1.0000 0.61950  0.08460  0.63630  Biso   1.000  C
  C96      1.0000 0.38050  0.08460  0.86370  Biso   1.000  C
  H61      1.0000 0.39960  0.99230  0.33430  Biso   1.000  H
  H62      1.0000 0.60040  0.99230  0.16570  Biso   1.000  H
  H63      1.0000 0.60040  0.00770  0.66570  Biso   1.000  H
  H64      1.0000 0.39960  0.00770  0.83430  Biso   1.000  H
  H65      1.0000 0.40140  0.79090  0.35890  Biso   1.000  H
  H66      1.0000 0.59860  0.79090  0.14110  Biso   1.000  H
  H67      1.0000 0.59860  0.20910  0.64110  Biso   1.000  H
  H68      1.0000 0.40140  0.20910  0.85890  Biso   1.000  H
  H69      1.0000 0.40550  0.96240  0.39920  Biso   1.000  H
  H70      1.0000 0.59450  0.96240  0.10080  Biso   1.000  H
  H71      1.0000 0.59450  0.03760  0.60080  Biso   1.000  H
  H72      1.0000 0.40550  0.03760  0.89920  Biso   1.000  H
  C97      1.0000 0.24560  0.86060  0.40710  Biso   1.000  C
  C98      1.0000 0.75440  0.86060  0.09290  Biso   1.000  C
  C99      1.0000 0.75440  0.13940  0.59290  Biso   1.000  C
  C100     1.0000 0.24560  0.13940  0.90710  Biso   1.000  C
  C101     1.0000 0.14220  0.85780  0.40650  Biso   1.000  C
  C102     1.0000 0.85780  0.85780  0.09350  Biso   1.000  C
  C103     1.0000 0.85780  0.14220  0.59350  Biso   1.000  C
  C104     1.0000 0.14220  0.14220  0.90650  Biso   1.000  C
  H73      1.0000 0.11740  0.77850  0.37680  Biso   1.000  H
  H74      1.0000 0.88260  0.77850  0.12320  Biso   1.000  H
  H75      1.0000 0.88260  0.22150  0.62320  Biso   1.000  H
  H76      1.0000 0.11740  0.22150  0.87680  Biso   1.000  H
  H77      1.0000 0.11910  0.98120  0.40050  Biso   1.000  H
  H78      1.0000 0.88090  0.98120  0.09950  Biso   1.000  H
  H79      1.0000 0.88090  0.01880  0.59950  Biso   1.000  H
  H80      1.0000 0.11910  0.01880  0.90050  Biso   1.000  H
  H81      1.0000 0.12530  0.81200  0.44170  Biso   1.000  H
  H82      1.0000 0.87470  0.81200  0.05830  Biso   1.000  H
  H83      1.0000 0.87470  0.18800  0.55830  Biso   1.000  H
  H84      1.0000 0.12530  0.18800  0.94170  Biso   1.000  H
  N1       1.0000 0.14550  0.23670  0.51787  Biso   1.000  N
  N2       1.0000 0.85450  0.23670  0.98213  Biso   1.000  N
  N3       1.0000 0.85450  0.76330  0.48213  Biso   1.000  N
  N4       1.0000 0.14550  0.76330  0.01787  Biso   1.000  N
  N5       1.0000 0.32340  0.22230  0.53358  Biso   1.000  N
  N6       1.0000 0.67660  0.22230  0.96642  Biso   1.000  N
  N7       1.0000 0.67660  0.77770  0.46642  Biso   1.000  N
  N8       1.0000 0.32340  0.77770  0.03358  Biso   1.000  N
  N9       1.0000 0.35100  0.42850  0.34392  Biso   1.000  N
  N10      1.0000 0.64900  0.42850  0.15608  Biso   1.000  N
  N11      1.0000 0.64900  0.57150  0.65608  Biso   1.000  N
  N12      1.0000 0.35100  0.57150  0.84392  Biso   1.000  N
  N13      1.0000 0.16150  0.44980  0.32826  Biso   1.000  N
  N14      1.0000 0.83850  0.44980  0.17174  Biso   1.000  N
  N15      1.0000 0.83850  0.55020  0.67174  Biso   1.000  N
  N16      1.0000 0.16150  0.55020  0.82826  Biso   1.000  N
  N17      1.0000 0.27990  0.91630  0.36185  Biso   1.000  N
  N18      1.0000 0.72010  0.91630  0.13815  Biso   1.000  N
  N19      1.0000 0.72010  0.08370  0.63815  Biso   1.000  N
  N20      1.0000 0.27990  0.08370  0.86185  Biso   1.000  N
  O1       1.0000 0.36910  0.35450  0.67766  Biso   1.000  O
  O2       1.0000 0.63090  0.35450  0.82234  Biso   1.000  O
  O3       1.0000 0.63090  0.64550  0.32234  Biso   1.000  O
  O4       1.0000 0.36910  0.64550  0.17766  Biso   1.000  O
  O5       1.0000 0.31400  0.08340  0.64574  Biso   1.000  O
  O6       1.0000 0.68600  0.08340  0.85426  Biso   1.000  O
  O7       1.0000 0.68600  0.91660  0.35426  Biso   1.000  O
  O8       1.0000 0.31400  0.91660  0.14574  Biso   1.000  O
  O9       1.0000 0.21810  0.85160  0.55112  Biso   1.000  O
  O10      1.0000 0.78190  0.85160  0.94888  Biso   1.000  O
  O11      1.0000 0.78190  0.14840  0.44888  Biso   1.000  O
  O12      1.0000 0.21810  0.14840  0.05112  Biso   1.000  O
  H85      1.0000 0.24100  0.81900  0.52130  Biso   1.000  H
  H86      1.0000 0.75900  0.81900  0.97870  Biso   1.000  H
  H87      1.0000 0.75900  0.18100  0.47870  Biso   1.000  H
  H88      1.0000 0.24100  0.18100  0.02130  Biso   1.000  H
  H89      1.0000 0.23400  0.76100  0.57310  Biso   1.000  H
  H90      1.0000 0.76600  0.76100  0.92690  Biso   1.000  H
  H91      1.0000 0.76600  0.23900  0.42690  Biso   1.000  H
  H92      1.0000 0.23400  0.23900  0.07310  Biso   1.000  H
  O13      1.0000 0.12620  0.10010  0.63021  Biso   1.000  O
  O14      1.0000 0.87380  0.10010  0.86979  Biso   1.000  O
  O15      1.0000 0.87380  0.89990  0.36979  Biso   1.000  O
  O16      1.0000 0.12620  0.89990  0.13021  Biso   1.000  O
  O17      1.0000 0.23200  0.53060  0.61437  Biso   1.000  O
  O18      1.0000 0.76800  0.53060  0.88563  Biso   1.000  O
  O19      1.0000 0.76800  0.46940  0.38563  Biso   1.000  O
  O20      1.0000 0.23200  0.46940  0.11437  Biso   1.000  O
  H93      1.0000 0.18600  0.51000  0.63200  Biso   1.000  H
  H94      1.0000 0.81400  0.51000  0.86800  Biso   1.000  H
  H95      1.0000 0.81400  0.49000  0.36800  Biso   1.000  H
  H96      1.0000 0.18600  0.49000  0.13200  Biso   1.000  H
  H97      1.0000 0.27600  0.54500  0.64000  Biso   1.000  H
  H98      1.0000 0.72400  0.54500  0.86000  Biso   1.000  H
  H99      1.0000 0.72400  0.45500  0.36000  Biso   1.000  H
  H100     1.0000 0.27600  0.45500  0.14000  Biso   1.000  H
  O21      1.0000 0.09640  0.37380  0.66852  Biso   1.000  O
  O22      1.0000 0.90360  0.37380  0.83148  Biso   1.000  O
  O23      1.0000 0.90360  0.62620  0.33148  Biso   1.000  O
  O24      1.0000 0.09640  0.62620  0.16852  Biso   1.000  O
  O25      1.0000 0.29510  0.81280  0.45047  Biso   1.000  O
  O26      1.0000 0.70490  0.81280  0.04953  Biso   1.000  O
  O27      1.0000 0.70490  0.18720  0.54953  Biso   1.000  O
  O28      1.0000 0.29510  0.18720  0.95047  Biso   1.000  O
  Cu1      1.0000 0.22665  0.15296  0.58553  Biso   1.000  Cu
  Cu2      1.0000 0.77335  0.15296  0.91447  Biso   1.000  Cu
  Cu3      1.0000 0.77335  0.84704  0.41447  Biso   1.000  Cu
  Cu4      1.0000 0.22665  0.84704  0.08553  Biso   1.000  Cu
