data_image0
_cell_length_a       7.947
_cell_length_b       12.327
_cell_length_c       13.15
_cell_angle_alpha    113.91
_cell_angle_beta     99.85
_cell_angle_gamma    90.02

_symmetry_space_group_name_H-M    "P 1"
_symmetry_int_tables_number       1

loop_
  _symmetry_equiv_pos_as_xyz
  'x, y, z'

loop_
  _atom_site_label
  _atom_site_occupancy
  _atom_site_fract_x
  _atom_site_fract_y
  _atom_site_fract_z
  _atom_site_thermal_displace_type
  _atom_site_B_iso_or_equiv
  _atom_site_type_symbol
  Cu1      1.0000 0.00204  0.39949  0.71605  Biso   1.000  Cu
  Cu2      1.0000 0.99796  0.60051  0.28395  Biso   1.000  Cu
  O1       1.0000 0.24400  0.47200  0.73960  Biso   1.000  O
  O2       1.0000 0.75600  0.52800  0.26040  Biso   1.000  O
  O3       1.0000 0.34340  0.38710  0.85670  Biso   1.000  O
  O4       1.0000 0.65660  0.61290  0.14330  Biso   1.000  O
  O5       1.0000 0.59610  0.25060  0.23520  Biso   1.000  O
  O6       1.0000 0.40390  0.74940  0.76480  Biso   1.000  O
  O7       1.0000 0.41960  0.13760  0.27120  Biso   1.000  O
  O8       1.0000 0.58040  0.86240  0.72880  Biso   1.000  O
  H1       1.0000 0.36900  0.12110  0.20640  Biso   1.000  H
  H2       1.0000 0.63100  0.87890  0.79360  Biso   1.000  H
  O9       1.0000 0.03240  0.96420  0.82110  Biso   1.000  O
  O10      1.0000 0.96760  0.03580  0.17890  Biso   1.000  O
  O11      1.0000 0.26830  0.08900  0.07010  Biso   1.000  O
  O12      1.0000 0.73170  0.91100  0.92990  Biso   1.000  O
  O13      1.0000 0.29570  0.11850  0.82600  Biso   1.000  O
  O14      1.0000 0.70430  0.88150  0.17400  Biso   1.000  O
  H3       1.0000 0.21420  0.04620  0.80290  Biso   1.000  H
  H4       1.0000 0.78580  0.95380  0.19710  Biso   1.000  H
  H5       1.0000 0.38600  0.12270  0.89170  Biso   1.000  H
  H6       1.0000 0.61400  0.87730  0.10830  Biso   1.000  H
  O15      1.0000 0.56750  0.15490  0.98960  Biso   1.000  O
  O16      1.0000 0.43250  0.84510  0.01040  Biso   1.000  O
  H7       1.0000 0.44480  0.18640  0.00040  Biso   1.000  H
  H8       1.0000 0.55520  0.81360  0.99960  Biso   1.000  H
  H9       1.0000 0.57050  0.14540  0.06160  Biso   1.000  H
  H10      1.0000 0.42950  0.85460  0.93840  Biso   1.000  H
  N1       1.0000 0.86370  0.64770  0.00300  Biso   1.000  N
  N2       1.0000 0.13630  0.35230  0.99700  Biso   1.000  N
  H11      1.0000 0.79810  0.67120  0.05230  Biso   1.000  H
  H12      1.0000 0.20190  0.32880  0.94770  Biso   1.000  H
  N3       1.0000 0.96510  0.53820  0.85350  Biso   1.000  N
  N4       1.0000 0.03490  0.46180  0.14650  Biso   1.000  N
  N5       1.0000 0.83610  0.29650  0.74530  Biso   1.000  N
  N6       1.0000 0.16390  0.70350  0.25470  Biso   1.000  N
  N7       1.0000 0.62690  0.24200  0.80580  Biso   1.000  N
  N8       1.0000 0.37310  0.75800  0.19420  Biso   1.000  N
  H13      1.0000 0.54140  0.24620  0.83910  Biso   1.000  H
  H14      1.0000 0.45860  0.75380  0.16090  Biso   1.000  H
  N9       1.0000 0.09120  0.14730  0.41160  Biso   1.000  N
  N10      1.0000 0.90880  0.85270  0.58840  Biso   1.000  N
  H15      1.0000 0.07430  0.11340  0.33890  Biso   1.000  H
  H16      1.0000 0.92570  0.88660  0.66110  Biso   1.000  H
  N11      1.0000 0.05750  0.26320  0.58340  Biso   1.000  N
  N12      1.0000 0.94250  0.73680  0.41660  Biso   1.000  N
  N13      1.0000 0.84980  0.46060  0.60200  Biso   1.000  N
  N14      1.0000 0.15020  0.53940  0.39800  Biso   1.000  N
  N15      1.0000 0.74440  0.47560  0.44430  Biso   1.000  N
  N16      1.0000 0.25560  0.52440  0.55570  Biso   1.000  N
  H17      1.0000 0.71200  0.45770  0.37320  Biso   1.000  H
  H18      1.0000 0.28800  0.54230  0.62680  Biso   1.000  H
  C1       1.0000 0.36350  0.44800  0.80440  Biso   1.000  C
  C2       1.0000 0.63650  0.55200  0.19560  Biso   1.000  C
  C3       1.0000 0.53850  0.50220  0.81330  Biso   1.000  C
  C4       1.0000 0.46150  0.49780  0.18670  Biso   1.000  C
  H19      1.0000 0.53910  0.58810  0.85130  Biso   1.000  H
  H20      1.0000 0.46090  0.41190  0.14870  Biso   1.000  H
  H21      1.0000 0.55890  0.48310  0.73740  Biso   1.000  H
  H22      1.0000 0.44110  0.51690  0.26260  Biso   1.000  H
  C5       1.0000 0.68620  0.46050  0.87710  Biso   1.000  C
  C6       1.0000 0.31380  0.53950  0.12290  Biso   1.000  C
  H23      1.0000 0.65150  0.46420  0.94640  Biso   1.000  H
  H24      1.0000 0.34850  0.53580  0.05360  Biso   1.000  H
  C7       1.0000 0.84100  0.54490  0.91200  Biso   1.000  C
  C8       1.0000 0.15900  0.45510  0.08800  Biso   1.000  C
  C9       1.0000 0.00610  0.70970  0.00570  Biso   1.000  C
  C10      1.0000 0.99390  0.29030  0.99430  Biso   1.000  C
  H25      1.0000 0.05180  0.78390  0.06060  Biso   1.000  H
  H26      1.0000 0.94820  0.21610  0.93940  Biso   1.000  H
  C11      1.0000 0.06880  0.64150  0.91230  Biso   1.000  C
  C12      1.0000 0.93120  0.35850  0.08770  Biso   1.000  C
  H27      1.0000 0.16630  0.66150  0.89140  Biso   1.000  H
  H28      1.0000 0.83370  0.33850  0.10860  Biso   1.000  H
  C13      1.0000 0.72010  0.33530  0.81110  Biso   1.000  C
  C14      1.0000 0.27990  0.66470  0.18890  Biso   1.000  C
  C15      1.0000 0.81920  0.17340  0.70200  Biso   1.000  C
  C16      1.0000 0.18080  0.82660  0.29800  Biso   1.000  C
  H29      1.0000 0.88620  0.12180  0.65480  Biso   1.000  H
  H30      1.0000 0.11380  0.87820  0.34520  Biso   1.000  H
  C17      1.0000 0.68800  0.14110  0.74020  Biso   1.000  C
  C18      1.0000 0.31200  0.85890  0.25980  Biso   1.000  C
  H31      1.0000 0.64810  0.06390  0.72410  Biso   1.000  H
  H32      1.0000 0.35190  0.93610  0.27590  Biso   1.000  H
  C19      1.0000 0.56310  0.19870  0.28970  Biso   1.000  C
  C20      1.0000 0.43690  0.80130  0.71030  Biso   1.000  C
  C21      1.0000 0.68890  0.19460  0.38810  Biso   1.000  C
  C22      1.0000 0.31110  0.80540  0.61190  Biso   1.000  C
  H33      1.0000 0.72120  0.11370  0.36840  Biso   1.000  H
  H34      1.0000 0.27880  0.88630  0.63160  Biso   1.000  H
  H35      1.0000 0.63320  0.21640  0.45300  Biso   1.000  H
  H36      1.0000 0.36680  0.78360  0.54700  Biso   1.000  H
  C23      1.0000 0.85140  0.27800  0.42110  Biso   1.000  C
  C24      1.0000 0.14860  0.72200  0.57890  Biso   1.000  C
  H37      1.0000 0.87860  0.27500  0.35010  Biso   1.000  H
  H38      1.0000 0.12140  0.72500  0.64990  Biso   1.000  H
  C25      1.0000 0.99960  0.23350  0.47380  Biso   1.000  C
  C26      1.0000 0.00040  0.76650  0.52620  Biso   1.000  C
  C27      1.0000 0.21550  0.12320  0.48400  Biso   1.000  C
  C28      1.0000 0.78450  0.87680  0.51600  Biso   1.000  C
  H39      1.0000 0.29750  0.06840  0.46410  Biso   1.000  H
  H40      1.0000 0.70250  0.93160  0.53590  Biso   1.000  H
  C29      1.0000 0.19570  0.19370  0.58900  Biso   1.000  C
  C30      1.0000 0.80430  0.80630  0.41100  Biso   1.000  C
  H41      1.0000 0.26300  0.19630  0.65530  Biso   1.000  H
  H42      1.0000 0.73700  0.80370  0.34470  Biso   1.000  H
  C31      1.0000 0.82050  0.40420  0.48860  Biso   1.000  C
  C32      1.0000 0.17950  0.59580  0.51140  Biso   1.000  C
  C33      1.0000 0.79000  0.57170  0.62730  Biso   1.000  C
  C34      1.0000 0.21000  0.42830  0.37270  Biso   1.000  C
  H43      1.0000 0.79320  0.63040  0.69970  Biso   1.000  H
  H44      1.0000 0.20680  0.36960  0.30030  Biso   1.000  H
  C35      1.0000 0.72610  0.58140  0.52950  Biso   1.000  C
  C36      1.0000 0.27390  0.41860  0.47050  Biso   1.000  C
  H45      1.0000 0.67890  0.64740  0.52200  Biso   1.000  H
  H46      1.0000 0.32110  0.35260  0.47800  Biso   1.000  H
  C37      1.0000 0.01550  0.98140  0.91890  Biso   1.000  C
  C38      1.0000 0.98450  0.01860  0.08110  Biso   1.000  C
  C39      1.0000 0.12110  0.04050  0.03060  Biso   1.000  C
  C40      1.0000 0.87890  0.95950  0.96940  Biso   1.000  C
