data_image0
_cell_length_a       8.01
_cell_length_b       13.073
_cell_length_c       14.561
_cell_angle_alpha    72.13
_cell_angle_beta     80.14
_cell_angle_gamma    84.02

_symmetry_space_group_name_H-M    "P 1"
_symmetry_int_tables_number       1

loop_
  _symmetry_equiv_pos_as_xyz
  'x, y, z'

loop_
  _atom_site_label
  _atom_site_occupancy
  _atom_site_fract_x
  _atom_site_fract_y
  _atom_site_fract_z
  _atom_site_thermal_displace_type
  _atom_site_B_iso_or_equiv
  _atom_site_type_symbol
  Cu1      1.0000 0.04807  0.05230  0.70169  Biso   1.000  Cu
  Cu2      1.0000 0.95193  0.94770  0.29831  Biso   1.000  Cu
  Cu3      1.0000 0.77758  0.71011  0.04298  Biso   1.000  Cu
  Cu4      1.0000 0.22242  0.28989  0.95702  Biso   1.000  Cu
  Cl1      1.0000 0.36220  0.38042  0.40062  Biso   1.000  Cl
  Cl2      1.0000 0.63780  0.61958  0.59938  Biso   1.000  Cl
  O1       1.0000 0.44420  0.44410  0.43910  Biso   1.000  O
  O2       1.0000 0.55580  0.55590  0.56090  Biso   1.000  O
  O3       1.0000 0.47600  0.29600  0.39320  Biso   1.000  O
  O4       1.0000 0.52400  0.70400  0.60680  Biso   1.000  O
  O5       1.0000 0.32860  0.42740  0.31400  Biso   1.000  O
  O6       1.0000 0.67140  0.57260  0.68600  Biso   1.000  O
  O7       1.0000 0.23570  0.34260  0.46630  Biso   1.000  O
  O8       1.0000 0.76430  0.65740  0.53370  Biso   1.000  O
  O9       1.0000 0.26460  0.97430  0.73470  Biso   1.000  O
  O10      1.0000 0.73540  0.02570  0.26530  Biso   1.000  O
  O11      1.0000 0.35900  0.07410  0.58580  Biso   1.000  O
  O12      1.0000 0.64100  0.92590  0.41420  Biso   1.000  O
  O13      1.0000 0.13080  0.18050  0.72770  Biso   1.000  O
  O14      1.0000 0.86920  0.81950  0.27230  Biso   1.000  O
  H1       1.0000 0.21690  0.22000  0.68900  Biso   1.000  H
  H2       1.0000 0.78310  0.78000  0.31100  Biso   1.000  H
  H3       1.0000 0.14610  0.16310  0.79540  Biso   1.000  H
  H4       1.0000 0.85390  0.83690  0.20460  Biso   1.000  H
  O15      1.0000 0.54050  0.72530  0.10090  Biso   1.000  O
  O16      1.0000 0.45950  0.27470  0.89910  Biso   1.000  O
  O17      1.0000 0.50700  0.58530  0.05200  Biso   1.000  O
  O18      1.0000 0.49300  0.41470  0.94800  Biso   1.000  O
  O19      1.0000 0.71640  0.81080  0.91710  Biso   1.000  O
  O20      1.0000 0.28360  0.18920  0.08290  Biso   1.000  O
  H5       1.0000 0.60110  0.83090  0.92180  Biso   1.000  H
  H6       1.0000 0.39890  0.16910  0.07820  Biso   1.000  H
  H7       1.0000 0.78010  0.86260  0.89690  Biso   1.000  H
  H8       1.0000 0.21990  0.13740  0.10310  Biso   1.000  H
  O21      1.0000 0.91800  0.98570  0.86150  Biso   1.000  O
  O22      1.0000 0.08200  0.01430  0.13850  Biso   1.000  O
  O23      1.0000 0.85680  0.85090  0.08970  Biso   1.000  O
  O24      1.0000 0.14320  0.14910  0.91030  Biso   1.000  O
  O25      1.0000 0.38100  0.88790  0.92210  Biso   1.000  O
  O26      1.0000 0.61900  0.11210  0.07790  Biso   1.000  O
  H9       1.0000 0.32950  0.90100  0.86810  Biso   1.000  H
  H10      1.0000 0.67050  0.09900  0.13190  Biso   1.000  H
  H11      1.0000 0.45850  0.93810  0.91440  Biso   1.000  H
  H12      1.0000 0.54150  0.06190  0.08560  Biso   1.000  H
  O27      1.0000 0.55160  0.08310  0.85350  Biso   1.000  O
  O28      1.0000 0.44840  0.91690  0.14650  Biso   1.000  O
  H13      1.0000 0.52540  0.15610  0.86110  Biso   1.000  H
  H14      1.0000 0.47460  0.84390  0.13890  Biso   1.000  H
  H15      1.0000 0.69560  0.09310  0.83970  Biso   1.000  H
  H16      1.0000 0.30440  0.90690  0.16030  Biso   1.000  H
  N1       1.0000 0.62960  0.20540  0.57850  Biso   1.000  N
  N2       1.0000 0.37040  0.79460  0.42150  Biso   1.000  N
  H17      1.0000 0.54090  0.20650  0.55220  Biso   1.000  H
  H18      1.0000 0.45910  0.79350  0.44780  Biso   1.000  H
  N3       1.0000 0.85580  0.14600  0.64740  Biso   1.000  N
  N4       1.0000 0.14420  0.85400  0.35260  Biso   1.000  N
  N5       1.0000 0.99200  0.93830  0.65050  Biso   1.000  N
  N6       1.0000 0.00800  0.06170  0.34950  Biso   1.000  N
  N7       1.0000 0.87700  0.85480  0.57070  Biso   1.000  N
  N8       1.0000 0.12300  0.14520  0.42930  Biso   1.000  N
  H19      1.0000 0.80680  0.83960  0.53890  Biso   1.000  H
  H20      1.0000 0.19320  0.16040  0.46110  Biso   1.000  H
  N9       1.0000 0.23860  0.58680  0.94150  Biso   1.000  N
  N10      1.0000 0.76140  0.41320  0.05850  Biso   1.000  N
  H21      1.0000 0.33350  0.55050  0.95010  Biso   1.000  H
  H22      1.0000 0.66650  0.44950  0.04990  Biso   1.000  H
  N11      1.0000 0.99240  0.66750  0.97290  Biso   1.000  N
  N12      1.0000 0.00760  0.33250  0.02710  Biso   1.000  N
  N13      1.0000 0.83870  0.61530  0.16820  Biso   1.000  N
  N14      1.0000 0.16130  0.38470  0.83180  Biso   1.000  N
  N15      1.0000 0.98830  0.52000  0.28000  Biso   1.000  N
  N16      1.0000 0.01170  0.48000  0.72000  Biso   1.000  N
  H23      1.0000 0.07380  0.48740  0.30750  Biso   1.000  H
  H24      1.0000 0.92620  0.51260  0.69250  Biso   1.000  H
  C1       1.0000 0.38300  0.00700  0.66360  Biso   1.000  C
  C2       1.0000 0.61700  0.99300  0.33640  Biso   1.000  C
  C3       1.0000 0.55870  0.95490  0.68010  Biso   1.000  C
  C4       1.0000 0.44130  0.04510  0.31990  Biso   1.000  C
  H25      1.0000 0.56100  0.88040  0.68060  Biso   1.000  H
  H26      1.0000 0.43900  0.11960  0.31940  Biso   1.000  H
  H27      1.0000 0.57920  0.95530  0.74370  Biso   1.000  H
  H28      1.0000 0.42080  0.04470  0.25630  Biso   1.000  H
  C5       1.0000 0.70280  0.01090  0.60270  Biso   1.000  C
  C6       1.0000 0.29720  0.98910  0.39730  Biso   1.000  C
  H29      1.0000 0.66820  0.02250  0.53870  Biso   1.000  H
  H30      1.0000 0.33180  0.97750  0.46130  Biso   1.000  H
  C7       1.0000 0.73160  0.11920  0.61060  Biso   1.000  C
  C8       1.0000 0.26840  0.88080  0.38940  Biso   1.000  C
  C9       1.0000 0.68870  0.29160  0.59430  Biso   1.000  C
  C10      1.0000 0.31130  0.70840  0.40570  Biso   1.000  C
  H31      1.0000 0.64170  0.36180  0.57910  Biso   1.000  H
  H32      1.0000 0.35830  0.63820  0.42090  Biso   1.000  H
  C11      1.0000 0.82760  0.25510  0.63600  Biso   1.000  C
  C12      1.0000 0.17240  0.74490  0.36400  Biso   1.000  C
  H33      1.0000 0.89520  0.29670  0.65470  Biso   1.000  H
  H34      1.0000 0.10480  0.70330  0.34530  Biso   1.000  H
  C13      1.0000 0.85890  0.93780  0.60730  Biso   1.000  C
  C14      1.0000 0.14110  0.06220  0.39270  Biso   1.000  C
  C15      1.0000 0.09680  0.84980  0.64000  Biso   1.000  C
  C16      1.0000 0.90320  0.15020  0.36000  Biso   1.000  C
  H35      1.0000 0.20060  0.82970  0.66270  Biso   1.000  H
  H36      1.0000 0.79940  0.17030  0.33730  Biso   1.000  H
  C17      1.0000 0.02450  0.79830  0.59210  Biso   1.000  C
  C18      1.0000 0.97550  0.20170  0.40790  Biso   1.000  C
  H37      1.0000 0.06710  0.73580  0.57650  Biso   1.000  H
  H38      1.0000 0.93290  0.26420  0.42350  Biso   1.000  H
  C19      1.0000 0.45090  0.65630  0.09010  Biso   1.000  C
  C20      1.0000 0.54910  0.34370  0.90990  Biso   1.000  C
  C21      1.0000 0.26230  0.66760  0.12910  Biso   1.000  C
  C22      1.0000 0.73770  0.33240  0.87090  Biso   1.000  C
  H39      1.0000 0.21810  0.73900  0.09620  Biso   1.000  H
  H40      1.0000 0.78190  0.26100  0.90380  Biso   1.000  H
  H41      1.0000 0.25010  0.66100  0.19810  Biso   1.000  H
  H42      1.0000 0.74990  0.33900  0.80190  Biso   1.000  H
  C23      1.0000 0.15470  0.58360  0.11540  Biso   1.000  C
  C24      1.0000 0.84530  0.41640  0.88460  Biso   1.000  C
  H43      1.0000 0.21880  0.51390  0.13090  Biso   1.000  H
  H44      1.0000 0.78120  0.48610  0.86910  Biso   1.000  H
  C25      1.0000 0.12450  0.61150  0.01160  Biso   1.000  C
  C26      1.0000 0.87550  0.38850  0.98840  Biso   1.000  C
  C27      1.0000 0.17930  0.62870  0.85460  Biso   1.000  C
  C28      1.0000 0.82070  0.37130  0.14540  Biso   1.000  C
  H45      1.0000 0.23320  0.62410  0.79400  Biso   1.000  H
  H46      1.0000 0.76680  0.37590  0.20600  Biso   1.000  H
  C29      1.0000 0.02700  0.67820  0.87380  Biso   1.000  C
  C30      1.0000 0.97300  0.32180  0.12620  Biso   1.000  C
  H47      1.0000 0.95630  0.71370  0.82800  Biso   1.000  H
  H48      1.0000 0.04370  0.28630  0.17200  Biso   1.000  H
  C31      1.0000 0.99240  0.57310  0.18510  Biso   1.000  C
  C32      1.0000 0.00760  0.42690  0.81490  Biso   1.000  C
  C33      1.0000 0.73390  0.58600  0.25660  Biso   1.000  C
  C34      1.0000 0.26610  0.41400  0.74340  Biso   1.000  C
  H49      1.0000 0.61840  0.60460  0.26660  Biso   1.000  H
  H50      1.0000 0.38160  0.39540  0.73340  Biso   1.000  H
  C35      1.0000 0.82440  0.52650  0.32620  Biso   1.000  C
  C36      1.0000 0.17560  0.47350  0.67380  Biso   1.000  C
  H51      1.0000 0.78440  0.49610  0.39190  Biso   1.000  H
  H52      1.0000 0.21560  0.50390  0.60810  Biso   1.000  H
  C37      1.0000 0.96400  0.99350  0.93720  Biso   1.000  C
  C38      1.0000 0.03600  0.00650  0.06280  Biso   1.000  C
  C39      1.0000 0.93480  0.93290  0.04040  Biso   1.000  C
  C40      1.0000 0.06520  0.06710  0.95960  Biso   1.000  C
