data_image0
_cell_length_a       9.692
_cell_length_b       9.736
_cell_length_c       7.916
_cell_angle_alpha    90
_cell_angle_beta     120.92
_cell_angle_gamma    90

_symmetry_space_group_name_H-M    "P 1"
_symmetry_int_tables_number       1

loop_
  _symmetry_equiv_pos_as_xyz
  'x, y, z'

loop_
  _atom_site_label
  _atom_site_occupancy
  _atom_site_fract_x
  _atom_site_fract_y
  _atom_site_fract_z
  _atom_site_thermal_displace_type
  _atom_site_B_iso_or_equiv
  _atom_site_type_symbol
  Cu1      1.0000 0.00000  0.00000  0.00000  Biso   1.000  Cu
  Cu2      1.0000 0.50000  0.50000  0.00000  Biso   1.000  Cu
  N1       1.0000 0.14940  0.14950  0.00380  Biso   1.000  N
  N2       1.0000 0.64940  0.64950  0.00380  Biso   1.000  N
  N3       1.0000 0.85060  0.14950  0.99620  Biso   1.000  N
  N4       1.0000 0.35060  0.64950  0.99620  Biso   1.000  N
  N5       1.0000 0.85060  0.85050  0.99620  Biso   1.000  N
  N6       1.0000 0.35060  0.35050  0.99620  Biso   1.000  N
  N7       1.0000 0.14940  0.85050  0.00380  Biso   1.000  N
  N8       1.0000 0.64940  0.35050  0.00380  Biso   1.000  N
  C1       1.0000 0.29760  0.17050  0.15750  Biso   1.000  C
  C2       1.0000 0.79760  0.67050  0.15750  Biso   1.000  C
  C3       1.0000 0.70240  0.17050  0.84250  Biso   1.000  C
  C4       1.0000 0.20240  0.67050  0.84250  Biso   1.000  C
  C5       1.0000 0.70240  0.82950  0.84250  Biso   1.000  C
  C6       1.0000 0.20240  0.32950  0.84250  Biso   1.000  C
  C7       1.0000 0.29760  0.82950  0.15750  Biso   1.000  C
  C8       1.0000 0.79760  0.32950  0.15750  Biso   1.000  C
  H1       1.0000 0.33420  0.11680  0.26970  Biso   1.000  H
  H2       1.0000 0.83420  0.61680  0.26970  Biso   1.000  H
  H3       1.0000 0.66580  0.11680  0.73030  Biso   1.000  H
  H4       1.0000 0.16580  0.61680  0.73030  Biso   1.000  H
  H5       1.0000 0.66580  0.88320  0.73030  Biso   1.000  H
  H6       1.0000 0.16580  0.38320  0.73030  Biso   1.000  H
  H7       1.0000 0.33420  0.88320  0.26970  Biso   1.000  H
  H8       1.0000 0.83420  0.38320  0.26970  Biso   1.000  H
  C9       1.0000 0.10300  0.23040  0.84630  Biso   1.000  C
  C10      1.0000 0.60300  0.73040  0.84630  Biso   1.000  C
  C11      1.0000 0.89700  0.23040  0.15370  Biso   1.000  C
  C12      1.0000 0.39700  0.73040  0.15370  Biso   1.000  C
  C13      1.0000 0.89700  0.76960  0.15370  Biso   1.000  C
  C14      1.0000 0.39700  0.26960  0.15370  Biso   1.000  C
  C15      1.0000 0.10300  0.76960  0.84630  Biso   1.000  C
  C16      1.0000 0.60300  0.26960  0.84630  Biso   1.000  C
  H9       1.0000 0.00060  0.21910  0.73670  Biso   1.000  H
  H10      1.0000 0.50060  0.71910  0.73670  Biso   1.000  H
  H11      1.0000 0.99940  0.21910  0.26330  Biso   1.000  H
  H12      1.0000 0.49940  0.71910  0.26330  Biso   1.000  H
  H13      1.0000 0.99940  0.78090  0.26330  Biso   1.000  H
  H14      1.0000 0.49940  0.28090  0.26330  Biso   1.000  H
  H15      1.0000 0.00060  0.78090  0.73670  Biso   1.000  H
  H16      1.0000 0.50060  0.28090  0.73670  Biso   1.000  H
  F1       1.0000 0.13870  0.00000  0.34420  Biso   1.000  F
  F2       1.0000 0.63870  0.50000  0.34420  Biso   1.000  F
  F3       1.0000 0.86130  0.00000  0.65580  Biso   1.000  F
  F4       1.0000 0.36130  0.50000  0.65580  Biso   1.000  F
  F5       1.0000 0.39900  0.00000  0.58690  Biso   1.000  F
  F6       1.0000 0.89900  0.50000  0.58690  Biso   1.000  F
  F7       1.0000 0.60100  0.00000  0.41310  Biso   1.000  F
  F8       1.0000 0.10100  0.50000  0.41310  Biso   1.000  F
  B1       1.0000 0.24840  0.03390  0.54230  Biso   1.000  B
  B2       1.0000 0.74840  0.53390  0.54230  Biso   1.000  B
  B3       1.0000 0.75160  0.03390  0.45770  Biso   1.000  B
  B4       1.0000 0.25160  0.53390  0.45770  Biso   1.000  B
  B5       1.0000 0.75160  0.96610  0.45770  Biso   1.000  B
  B6       1.0000 0.25160  0.46610  0.45770  Biso   1.000  B
  B7       1.0000 0.24840  0.96610  0.54230  Biso   1.000  B
  B8       1.0000 0.74840  0.46610  0.54230  Biso   1.000  B
  F9       1.0000 0.24910  0.17540  0.55210  Biso   1.000  F
  F10      1.0000 0.74910  0.67540  0.55210  Biso   1.000  F
  F11      1.0000 0.75090  0.17540  0.44790  Biso   1.000  F
  F12      1.0000 0.25090  0.67540  0.44790  Biso   1.000  F
  F13      1.0000 0.75090  0.82460  0.44790  Biso   1.000  F
  F14      1.0000 0.25090  0.32460  0.44790  Biso   1.000  F
  F15      1.0000 0.24910  0.82460  0.55210  Biso   1.000  F
  F16      1.0000 0.74910  0.32460  0.55210  Biso   1.000  F
  F17      1.0000 0.20040  0.97820  0.66440  Biso   1.000  F
  F18      1.0000 0.70040  0.47820  0.66440  Biso   1.000  F
  F19      1.0000 0.79960  0.97820  0.33560  Biso   1.000  F
  F20      1.0000 0.29960  0.47820  0.33560  Biso   1.000  F
  F21      1.0000 0.79960  0.02180  0.33560  Biso   1.000  F
  F22      1.0000 0.29960  0.52180  0.33560  Biso   1.000  F
  F23      1.0000 0.20040  0.02180  0.66440  Biso   1.000  F
  F24      1.0000 0.70040  0.52180  0.66440  Biso   1.000  F
  B9       1.0000 0.24670  0.97940  0.54700  Biso   1.000  B
  B10      1.0000 0.74670  0.47940  0.54700  Biso   1.000  B
  B11      1.0000 0.75330  0.97940  0.45300  Biso   1.000  B
  B12      1.0000 0.25330  0.47940  0.45300  Biso   1.000  B
  B13      1.0000 0.75330  0.02060  0.45300  Biso   1.000  B
  B14      1.0000 0.25330  0.52060  0.45300  Biso   1.000  B
  B15      1.0000 0.24670  0.02060  0.54700  Biso   1.000  B
  B16      1.0000 0.74670  0.52060  0.54700  Biso   1.000  B
  F25      1.0000 0.23460  0.84250  0.58100  Biso   1.000  F
  F26      1.0000 0.73460  0.34250  0.58100  Biso   1.000  F
  F27      1.0000 0.76540  0.84250  0.41900  Biso   1.000  F
  F28      1.0000 0.26540  0.34250  0.41900  Biso   1.000  F
  F29      1.0000 0.76540  0.15750  0.41900  Biso   1.000  F
  F30      1.0000 0.26540  0.65750  0.41900  Biso   1.000  F
  F31      1.0000 0.23460  0.15750  0.58100  Biso   1.000  F
  F32      1.0000 0.73460  0.65750  0.58100  Biso   1.000  F
  F33      1.0000 0.20710  0.06260  0.65600  Biso   1.000  F
  F34      1.0000 0.70710  0.56260  0.65600  Biso   1.000  F
  F35      1.0000 0.79290  0.06260  0.34400  Biso   1.000  F
  F36      1.0000 0.29290  0.56260  0.34400  Biso   1.000  F
  F37      1.0000 0.79290  0.93740  0.34400  Biso   1.000  F
  F38      1.0000 0.29290  0.43740  0.34400  Biso   1.000  F
  F39      1.0000 0.20710  0.93740  0.65600  Biso   1.000  F
  F40      1.0000 0.70710  0.43740  0.65600  Biso   1.000  F
