data_image0
_cell_length_a       9.7093
_cell_length_b       9.7093
_cell_length_c       14.0055
_cell_angle_alpha    90
_cell_angle_beta     90
_cell_angle_gamma    90

_symmetry_space_group_name_H-M    "P 1"
_symmetry_int_tables_number       1

loop_
  _symmetry_equiv_pos_as_xyz
  'x, y, z'

loop_
  _atom_site_label
  _atom_site_occupancy
  _atom_site_fract_x
  _atom_site_fract_y
  _atom_site_fract_z
  _atom_site_thermal_displace_type
  _atom_site_B_iso_or_equiv
  _atom_site_type_symbol
  Cu1      1.0000 0.00000  0.00000  0.25000  Biso   1.000  Cu
  Cu2      1.0000 0.50000  0.50000  0.75000  Biso   1.000  Cu
  Cu3      1.0000 0.00000  0.00000  0.75000  Biso   1.000  Cu
  Cu4      1.0000 0.50000  0.50000  0.25000  Biso   1.000  Cu
  N1       1.0000 0.14870  0.14870  0.25000  Biso   1.000  N
  N2       1.0000 0.85130  0.14870  0.25000  Biso   1.000  N
  N3       1.0000 0.14870  0.85130  0.25000  Biso   1.000  N
  N4       1.0000 0.64870  0.64870  0.75000  Biso   1.000  N
  N5       1.0000 0.35130  0.64870  0.75000  Biso   1.000  N
  N6       1.0000 0.64870  0.35130  0.75000  Biso   1.000  N
  N7       1.0000 0.85130  0.85130  0.25000  Biso   1.000  N
  N8       1.0000 0.35130  0.35130  0.75000  Biso   1.000  N
  N9       1.0000 0.85130  0.85130  0.75000  Biso   1.000  N
  N10      1.0000 0.14870  0.85130  0.75000  Biso   1.000  N
  N11      1.0000 0.85130  0.14870  0.75000  Biso   1.000  N
  N12      1.0000 0.35130  0.35130  0.25000  Biso   1.000  N
  N13      1.0000 0.64870  0.35130  0.25000  Biso   1.000  N
  N14      1.0000 0.35130  0.64870  0.25000  Biso   1.000  N
  N15      1.0000 0.14870  0.14870  0.75000  Biso   1.000  N
  N16      1.0000 0.64870  0.64870  0.25000  Biso   1.000  N
  C1       1.0000 0.23910  0.16040  0.32080  Biso   1.000  C
  C2       1.0000 0.83960  0.23910  0.32080  Biso   1.000  C
  C3       1.0000 0.16040  0.76090  0.32080  Biso   1.000  C
  C4       1.0000 0.16040  0.23910  0.17920  Biso   1.000  C
  C5       1.0000 0.73910  0.66040  0.82080  Biso   1.000  C
  C6       1.0000 0.33960  0.73910  0.82080  Biso   1.000  C
  C7       1.0000 0.66040  0.26090  0.82080  Biso   1.000  C
  C8       1.0000 0.66040  0.73910  0.67920  Biso   1.000  C
  C9       1.0000 0.76090  0.83960  0.32080  Biso   1.000  C
  C10      1.0000 0.76090  0.16040  0.17920  Biso   1.000  C
  C11      1.0000 0.23910  0.83960  0.17920  Biso   1.000  C
  C12      1.0000 0.83960  0.76090  0.17920  Biso   1.000  C
  C13      1.0000 0.26090  0.33960  0.82080  Biso   1.000  C
  C14      1.0000 0.26090  0.66040  0.67920  Biso   1.000  C
  C15      1.0000 0.73910  0.33960  0.67920  Biso   1.000  C
  C16      1.0000 0.33960  0.26090  0.67920  Biso   1.000  C
  C17      1.0000 0.76090  0.83960  0.67920  Biso   1.000  C
  C18      1.0000 0.16040  0.76090  0.67920  Biso   1.000  C
  C19      1.0000 0.83960  0.23910  0.67920  Biso   1.000  C
  C20      1.0000 0.83960  0.76090  0.82080  Biso   1.000  C
  C21      1.0000 0.26090  0.33960  0.17920  Biso   1.000  C
  C22      1.0000 0.66040  0.26090  0.17920  Biso   1.000  C
  C23      1.0000 0.33960  0.73910  0.17920  Biso   1.000  C
  C24      1.0000 0.33960  0.26090  0.32080  Biso   1.000  C
  C25      1.0000 0.23910  0.16040  0.67920  Biso   1.000  C
  C26      1.0000 0.23910  0.83960  0.82080  Biso   1.000  C
  C27      1.0000 0.76090  0.16040  0.82080  Biso   1.000  C
  C28      1.0000 0.16040  0.23910  0.82080  Biso   1.000  C
  C29      1.0000 0.73910  0.66040  0.17920  Biso   1.000  C
  C30      1.0000 0.73910  0.33960  0.32080  Biso   1.000  C
  C31      1.0000 0.26090  0.66040  0.32080  Biso   1.000  C
  C32      1.0000 0.66040  0.73910  0.32080  Biso   1.000  C
  H1       1.0000 0.24600  0.10150  0.36350  Biso   1.000  H
  H2       1.0000 0.89850  0.24600  0.36350  Biso   1.000  H
  H3       1.0000 0.10150  0.75400  0.36350  Biso   1.000  H
  H4       1.0000 0.10150  0.24600  0.13650  Biso   1.000  H
  H5       1.0000 0.74600  0.60150  0.86350  Biso   1.000  H
  H6       1.0000 0.39850  0.74600  0.86350  Biso   1.000  H
  H7       1.0000 0.60150  0.25400  0.86350  Biso   1.000  H
  H8       1.0000 0.60150  0.74600  0.63650  Biso   1.000  H
  H9       1.0000 0.75400  0.89850  0.36350  Biso   1.000  H
  H10      1.0000 0.75400  0.10150  0.13650  Biso   1.000  H
  H11      1.0000 0.24600  0.89850  0.13650  Biso   1.000  H
  H12      1.0000 0.89850  0.75400  0.13650  Biso   1.000  H
  H13      1.0000 0.25400  0.39850  0.86350  Biso   1.000  H
  H14      1.0000 0.25400  0.60150  0.63650  Biso   1.000  H
  H15      1.0000 0.74600  0.39850  0.63650  Biso   1.000  H
  H16      1.0000 0.39850  0.25400  0.63650  Biso   1.000  H
  H17      1.0000 0.75400  0.89850  0.63650  Biso   1.000  H
  H18      1.0000 0.10150  0.75400  0.63650  Biso   1.000  H
  H19      1.0000 0.89850  0.24600  0.63650  Biso   1.000  H
  H20      1.0000 0.89850  0.75400  0.86350  Biso   1.000  H
  H21      1.0000 0.25400  0.39850  0.13650  Biso   1.000  H
  H22      1.0000 0.60150  0.25400  0.13650  Biso   1.000  H
  H23      1.0000 0.39850  0.74600  0.13650  Biso   1.000  H
  H24      1.0000 0.39850  0.25400  0.36350  Biso   1.000  H
  H25      1.0000 0.24600  0.10150  0.63650  Biso   1.000  H
  H26      1.0000 0.24600  0.89850  0.86350  Biso   1.000  H
  H27      1.0000 0.75400  0.10150  0.86350  Biso   1.000  H
  H28      1.0000 0.10150  0.24600  0.86350  Biso   1.000  H
  H29      1.0000 0.74600  0.60150  0.13650  Biso   1.000  H
  H30      1.0000 0.74600  0.39850  0.36350  Biso   1.000  H
  H31      1.0000 0.25400  0.60150  0.36350  Biso   1.000  H
  H32      1.0000 0.60150  0.74600  0.36350  Biso   1.000  H
  O1       1.0000 0.00000  0.00000  0.07770  Biso   1.000  O
  O2       1.0000 0.00000  0.00000  0.42230  Biso   1.000  O
  O3       1.0000 0.50000  0.50000  0.57770  Biso   1.000  O
  O4       1.0000 0.50000  0.50000  0.92230  Biso   1.000  O
  O5       1.0000 0.00000  0.00000  0.92230  Biso   1.000  O
  O6       1.0000 0.00000  0.00000  0.57770  Biso   1.000  O
  O7       1.0000 0.50000  0.50000  0.42230  Biso   1.000  O
  O8       1.0000 0.50000  0.50000  0.07770  Biso   1.000  O
  N17      1.0000 0.01400  0.96080  0.00000  Biso   1.000  N
  N18      1.0000 0.03920  0.01400  0.00000  Biso   1.000  N
  N19      1.0000 0.96080  0.98600  0.00000  Biso   1.000  N
  N20      1.0000 0.96080  0.01400  0.50000  Biso   1.000  N
  N21      1.0000 0.51400  0.46080  0.50000  Biso   1.000  N
  N22      1.0000 0.53920  0.51400  0.50000  Biso   1.000  N
  N23      1.0000 0.46080  0.48600  0.50000  Biso   1.000  N
  N24      1.0000 0.46080  0.51400  0.00000  Biso   1.000  N
  N25      1.0000 0.98600  0.03920  0.00000  Biso   1.000  N
  N26      1.0000 0.98600  0.96080  0.50000  Biso   1.000  N
  N27      1.0000 0.01400  0.03920  0.50000  Biso   1.000  N
  N28      1.0000 0.03920  0.98600  0.50000  Biso   1.000  N
  N29      1.0000 0.48600  0.53920  0.50000  Biso   1.000  N
  N30      1.0000 0.48600  0.46080  0.00000  Biso   1.000  N
  N31      1.0000 0.51400  0.53920  0.00000  Biso   1.000  N
  N32      1.0000 0.53920  0.48600  0.00000  Biso   1.000  N
  O9       1.0000 0.05380  0.84210  0.00000  Biso   1.000  O
  O10      1.0000 0.15790  0.05380  0.00000  Biso   1.000  O
  O11      1.0000 0.84210  0.94620  0.00000  Biso   1.000  O
  O12      1.0000 0.84210  0.05380  0.50000  Biso   1.000  O
  O13      1.0000 0.55380  0.34210  0.50000  Biso   1.000  O
  O14      1.0000 0.65790  0.55380  0.50000  Biso   1.000  O
  O15      1.0000 0.34210  0.44620  0.50000  Biso   1.000  O
  O16      1.0000 0.34210  0.55380  0.00000  Biso   1.000  O
  O17      1.0000 0.94620  0.15790  0.00000  Biso   1.000  O
  O18      1.0000 0.94620  0.84210  0.50000  Biso   1.000  O
  O19      1.0000 0.05380  0.15790  0.50000  Biso   1.000  O
  O20      1.0000 0.15790  0.94620  0.50000  Biso   1.000  O
  O21      1.0000 0.44620  0.65790  0.50000  Biso   1.000  O
  O22      1.0000 0.44620  0.34210  0.00000  Biso   1.000  O
  O23      1.0000 0.55380  0.65790  0.00000  Biso   1.000  O
  O24      1.0000 0.65790  0.44620  0.00000  Biso   1.000  O
  P1       1.0000 0.50000  0.00000  0.00000  Biso   1.000  P
  P2       1.0000 0.00000  0.50000  0.00000  Biso   1.000  P
  P3       1.0000 0.00000  0.50000  0.50000  Biso   1.000  P
  P4       1.0000 0.50000  0.00000  0.50000  Biso   1.000  P
  F1       1.0000 0.56660  0.93340  0.09310  Biso   1.000  F
  F2       1.0000 0.06660  0.56660  0.09310  Biso   1.000  F
  F3       1.0000 0.93340  0.43340  0.09310  Biso   1.000  F
  F4       1.0000 0.93340  0.56660  0.40690  Biso   1.000  F
  F5       1.0000 0.06660  0.43340  0.59310  Biso   1.000  F
  F6       1.0000 0.56660  0.06660  0.59310  Biso   1.000  F
  F7       1.0000 0.43340  0.93340  0.59310  Biso   1.000  F
  F8       1.0000 0.43340  0.06660  0.90690  Biso   1.000  F
  F9       1.0000 0.43340  0.06660  0.09310  Biso   1.000  F
  F10      1.0000 0.43340  0.93340  0.40690  Biso   1.000  F
  F11      1.0000 0.56660  0.06660  0.40690  Biso   1.000  F
  F12      1.0000 0.06660  0.43340  0.40690  Biso   1.000  F
  F13      1.0000 0.93340  0.56660  0.59310  Biso   1.000  F
  F14      1.0000 0.93340  0.43340  0.90690  Biso   1.000  F
  F15      1.0000 0.06660  0.56660  0.90690  Biso   1.000  F
  F16      1.0000 0.56660  0.93340  0.90690  Biso   1.000  F
  F17      1.0000 0.59510  0.90490  0.93400  Biso   1.000  F
  F18      1.0000 0.09510  0.59510  0.93400  Biso   1.000  F
  F19      1.0000 0.90490  0.40490  0.93400  Biso   1.000  F
  F20      1.0000 0.90490  0.59510  0.56600  Biso   1.000  F
  F21      1.0000 0.09510  0.40490  0.43400  Biso   1.000  F
  F22      1.0000 0.59510  0.09510  0.43400  Biso   1.000  F
  F23      1.0000 0.40490  0.90490  0.43400  Biso   1.000  F
  F24      1.0000 0.40490  0.09510  0.06600  Biso   1.000  F
  F25      1.0000 0.40490  0.09510  0.93400  Biso   1.000  F
  F26      1.0000 0.40490  0.90490  0.56600  Biso   1.000  F
  F27      1.0000 0.59510  0.09510  0.56600  Biso   1.000  F
  F28      1.0000 0.09510  0.40490  0.56600  Biso   1.000  F
  F29      1.0000 0.90490  0.59510  0.43400  Biso   1.000  F
  F30      1.0000 0.90490  0.40490  0.06600  Biso   1.000  F
  F31      1.0000 0.09510  0.59510  0.06600  Biso   1.000  F
  F32      1.0000 0.59510  0.90490  0.06600  Biso   1.000  F
  F33      1.0000 0.61620  0.11620  0.00000  Biso   1.000  F
  F34      1.0000 0.88380  0.61620  0.00000  Biso   1.000  F
  F35      1.0000 0.11620  0.38380  0.00000  Biso   1.000  F
  F36      1.0000 0.11620  0.61620  0.50000  Biso   1.000  F
  F37      1.0000 0.38380  0.11620  0.50000  Biso   1.000  F
  F38      1.0000 0.61620  0.88380  0.50000  Biso   1.000  F
  F39      1.0000 0.38380  0.88380  0.00000  Biso   1.000  F
  F40      1.0000 0.88380  0.38380  0.50000  Biso   1.000  F
  P5       1.0000 0.43240  0.06760  0.00000  Biso   1.000  P
  P6       1.0000 0.93240  0.43240  0.00000  Biso   1.000  P
  P7       1.0000 0.06760  0.56760  0.00000  Biso   1.000  P
  P8       1.0000 0.06760  0.43240  0.50000  Biso   1.000  P
  P9       1.0000 0.93240  0.56760  0.50000  Biso   1.000  P
  P10      1.0000 0.43240  0.93240  0.50000  Biso   1.000  P
  P11      1.0000 0.56760  0.06760  0.50000  Biso   1.000  P
  P12      1.0000 0.56760  0.93240  0.00000  Biso   1.000  P
  F41      1.0000 0.43270  0.06730  0.11370  Biso   1.000  F
  F42      1.0000 0.93270  0.43270  0.11370  Biso   1.000  F
  F43      1.0000 0.06730  0.56730  0.11370  Biso   1.000  F
  F44      1.0000 0.06730  0.43270  0.38630  Biso   1.000  F
  F45      1.0000 0.93270  0.56730  0.61370  Biso   1.000  F
  F46      1.0000 0.43270  0.93270  0.61370  Biso   1.000  F
  F47      1.0000 0.56730  0.06730  0.61370  Biso   1.000  F
  F48      1.0000 0.56730  0.93270  0.88630  Biso   1.000  F
  F49      1.0000 0.56730  0.93270  0.11370  Biso   1.000  F
  F50      1.0000 0.56730  0.06730  0.38630  Biso   1.000  F
  F51      1.0000 0.43270  0.93270  0.38630  Biso   1.000  F
  F52      1.0000 0.93270  0.56730  0.38630  Biso   1.000  F
  F53      1.0000 0.06730  0.43270  0.61370  Biso   1.000  F
  F54      1.0000 0.06730  0.56730  0.88630  Biso   1.000  F
  F55      1.0000 0.93270  0.43270  0.88630  Biso   1.000  F
  F56      1.0000 0.43270  0.06730  0.88630  Biso   1.000  F
  F57      1.0000 0.45150  0.23080  0.00000  Biso   1.000  F
  F58      1.0000 0.76920  0.45150  0.00000  Biso   1.000  F
  F59      1.0000 0.23080  0.54850  0.00000  Biso   1.000  F
  F60      1.0000 0.23080  0.45150  0.50000  Biso   1.000  F
  F61      1.0000 0.95150  0.73080  0.50000  Biso   1.000  F
  F62      1.0000 0.26920  0.95150  0.50000  Biso   1.000  F
  F63      1.0000 0.73080  0.04850  0.50000  Biso   1.000  F
  F64      1.0000 0.73080  0.95150  0.00000  Biso   1.000  F
  F65      1.0000 0.54850  0.76920  0.00000  Biso   1.000  F
  F66      1.0000 0.54850  0.23080  0.50000  Biso   1.000  F
  F67      1.0000 0.45150  0.76920  0.50000  Biso   1.000  F
  F68      1.0000 0.76920  0.54850  0.50000  Biso   1.000  F
  F69      1.0000 0.04850  0.26920  0.50000  Biso   1.000  F
  F70      1.0000 0.04850  0.73080  0.00000  Biso   1.000  F
  F71      1.0000 0.95150  0.26920  0.00000  Biso   1.000  F
  F72      1.0000 0.26920  0.04850  0.00000  Biso   1.000  F
  F73      1.0000 0.40700  0.90700  0.00000  Biso   1.000  F
  F74      1.0000 0.09300  0.40700  0.00000  Biso   1.000  F
  F75      1.0000 0.90700  0.59300  0.00000  Biso   1.000  F
  F76      1.0000 0.90700  0.40700  0.50000  Biso   1.000  F
  F77      1.0000 0.59300  0.90700  0.50000  Biso   1.000  F
  F78      1.0000 0.40700  0.09300  0.50000  Biso   1.000  F
  F79      1.0000 0.59300  0.09300  0.00000  Biso   1.000  F
  F80      1.0000 0.09300  0.59300  0.50000  Biso   1.000  F
  F81      1.0000 0.26790  0.08810  0.00000  Biso   1.000  F
  F82      1.0000 0.91190  0.26790  0.00000  Biso   1.000  F
  F83      1.0000 0.08810  0.73210  0.00000  Biso   1.000  F
  F84      1.0000 0.08810  0.26790  0.50000  Biso   1.000  F
  F85      1.0000 0.76790  0.58810  0.50000  Biso   1.000  F
  F86      1.0000 0.41190  0.76790  0.50000  Biso   1.000  F
  F87      1.0000 0.58810  0.23210  0.50000  Biso   1.000  F
  F88      1.0000 0.58810  0.76790  0.00000  Biso   1.000  F
  F89      1.0000 0.73210  0.91190  0.00000  Biso   1.000  F
  F90      1.0000 0.73210  0.08810  0.50000  Biso   1.000  F
  F91      1.0000 0.26790  0.91190  0.50000  Biso   1.000  F
  F92      1.0000 0.91190  0.73210  0.50000  Biso   1.000  F
  F93      1.0000 0.23210  0.41190  0.50000  Biso   1.000  F
  F94      1.0000 0.23210  0.58810  0.00000  Biso   1.000  F
  F95      1.0000 0.76790  0.41190  0.00000  Biso   1.000  F
  F96      1.0000 0.41190  0.23210  0.00000  Biso   1.000  F
  F97      1.0000 0.59500  0.04790  0.00000  Biso   1.000  F
  F98      1.0000 0.95210  0.59500  0.00000  Biso   1.000  F
  F99      1.0000 0.04790  0.40500  0.00000  Biso   1.000  F
  F100     1.0000 0.04790  0.59500  0.50000  Biso   1.000  F
  F101     1.0000 0.09500  0.54790  0.50000  Biso   1.000  F
  F102     1.0000 0.45210  0.09500  0.50000  Biso   1.000  F
  F103     1.0000 0.54790  0.90500  0.50000  Biso   1.000  F
  F104     1.0000 0.54790  0.09500  0.00000  Biso   1.000  F
  F105     1.0000 0.40500  0.95210  0.00000  Biso   1.000  F
  F106     1.0000 0.40500  0.04790  0.50000  Biso   1.000  F
  F107     1.0000 0.59500  0.95210  0.50000  Biso   1.000  F
  F108     1.0000 0.95210  0.40500  0.50000  Biso   1.000  F
  F109     1.0000 0.90500  0.45210  0.50000  Biso   1.000  F
  F110     1.0000 0.90500  0.54790  0.00000  Biso   1.000  F
  F111     1.0000 0.09500  0.45210  0.00000  Biso   1.000  F
  F112     1.0000 0.45210  0.90500  0.00000  Biso   1.000  F
  F113     1.0000 0.50000  0.00000  0.88620  Biso   1.000  F
  F114     1.0000 0.00000  0.50000  0.88620  Biso   1.000  F
  F115     1.0000 0.00000  0.50000  0.61380  Biso   1.000  F
  F116     1.0000 0.00000  0.50000  0.38620  Biso   1.000  F
  F117     1.0000 0.50000  0.00000  0.38620  Biso   1.000  F
  F118     1.0000 0.50000  0.00000  0.11380  Biso   1.000  F
  F119     1.0000 0.50000  0.00000  0.61380  Biso   1.000  F
  F120     1.0000 0.00000  0.50000  0.11380  Biso   1.000  F
  F121     1.0000 0.46800  0.83900  0.00000  Biso   1.000  F
  F122     1.0000 0.16100  0.46800  0.00000  Biso   1.000  F
  F123     1.0000 0.83900  0.53200  0.00000  Biso   1.000  F
  F124     1.0000 0.83900  0.46800  0.50000  Biso   1.000  F
  F125     1.0000 0.96800  0.33900  0.50000  Biso   1.000  F
  F126     1.0000 0.66100  0.96800  0.50000  Biso   1.000  F
  F127     1.0000 0.33900  0.03200  0.50000  Biso   1.000  F
  F128     1.0000 0.33900  0.96800  0.00000  Biso   1.000  F
  F129     1.0000 0.53200  0.16100  0.00000  Biso   1.000  F
  F130     1.0000 0.53200  0.83900  0.50000  Biso   1.000  F
  F131     1.0000 0.46800  0.16100  0.50000  Biso   1.000  F
  F132     1.0000 0.16100  0.53200  0.50000  Biso   1.000  F
  F133     1.0000 0.03200  0.66100  0.50000  Biso   1.000  F
  F134     1.0000 0.03200  0.33900  0.00000  Biso   1.000  F
  F135     1.0000 0.96800  0.66100  0.00000  Biso   1.000  F
  F136     1.0000 0.66100  0.03200  0.00000  Biso   1.000  F
  F137     1.0000 0.66140  0.96800  0.00000  Biso   1.000  F
  F138     1.0000 0.03200  0.66140  0.00000  Biso   1.000  F
  F139     1.0000 0.96800  0.33860  0.00000  Biso   1.000  F
  F140     1.0000 0.96800  0.66140  0.50000  Biso   1.000  F
  F141     1.0000 0.16140  0.46800  0.50000  Biso   1.000  F
  F142     1.0000 0.53200  0.16140  0.50000  Biso   1.000  F
  F143     1.0000 0.46800  0.83860  0.50000  Biso   1.000  F
  F144     1.0000 0.46800  0.16140  0.00000  Biso   1.000  F
  F145     1.0000 0.33860  0.03200  0.00000  Biso   1.000  F
  F146     1.0000 0.33860  0.96800  0.50000  Biso   1.000  F
  F147     1.0000 0.66140  0.03200  0.50000  Biso   1.000  F
  F148     1.0000 0.03200  0.33860  0.50000  Biso   1.000  F
  F149     1.0000 0.83860  0.53200  0.50000  Biso   1.000  F
  F150     1.0000 0.83860  0.46800  0.00000  Biso   1.000  F
  F151     1.0000 0.16140  0.53200  0.00000  Biso   1.000  F
  F152     1.0000 0.53200  0.83860  0.00000  Biso   1.000  F
