data_image0
_cell_length_a       12.2369
_cell_length_b       12.2369
_cell_length_c       39.188
_cell_angle_alpha    90
_cell_angle_beta     90
_cell_angle_gamma    120

_symmetry_space_group_name_H-M    "P 1"
_symmetry_int_tables_number       1

loop_
  _symmetry_equiv_pos_as_xyz
  'x, y, z'

loop_
  _atom_site_label
  _atom_site_occupancy
  _atom_site_fract_x
  _atom_site_fract_y
  _atom_site_fract_z
  _atom_site_thermal_displace_type
  _atom_site_B_iso_or_equiv
  _atom_site_type_symbol
  Cu1      1.0000 0.53849  0.70935  0.23866  Biso   1.000  Cu
  Cu2      1.0000 0.29065  0.82914  0.90533  Biso   1.000  Cu
  Cu3      1.0000 0.17086  0.46151  0.57199  Biso   1.000  Cu
  Cu4      1.0000 0.70935  0.53849  0.76134  Biso   1.000  Cu
  Cu5      1.0000 0.82914  0.29065  0.09467  Biso   1.000  Cu
  Cu6      1.0000 0.46151  0.17086  0.42801  Biso   1.000  Cu
  Cu7      1.0000 0.34848  0.49378  0.25802  Biso   1.000  Cu
  Cu8      1.0000 0.50622  0.85470  0.92469  Biso   1.000  Cu
  Cu9      1.0000 0.14530  0.65152  0.59135  Biso   1.000  Cu
  Cu10     1.0000 0.49378  0.34848  0.74198  Biso   1.000  Cu
  Cu11     1.0000 0.85470  0.50622  0.07531  Biso   1.000  Cu
  Cu12     1.0000 0.65152  0.14530  0.40865  Biso   1.000  Cu
  O1       1.0000 0.24820  0.56790  0.23810  Biso   1.000  O
  O2       1.0000 0.43210  0.68030  0.90477  Biso   1.000  O
  O3       1.0000 0.31970  0.75180  0.57143  Biso   1.000  O
  O4       1.0000 0.56790  0.24820  0.76190  Biso   1.000  O
  O5       1.0000 0.68030  0.43210  0.09523  Biso   1.000  O
  O6       1.0000 0.75180  0.31970  0.42857  Biso   1.000  O
  O7       1.0000 0.41060  0.73540  0.21540  Biso   1.000  O
  O8       1.0000 0.26460  0.67520  0.88207  Biso   1.000  O
  O9       1.0000 0.32480  0.58940  0.54873  Biso   1.000  O
  O10      1.0000 0.73540  0.41060  0.78460  Biso   1.000  O
  O11      1.0000 0.67520  0.26460  0.11793  Biso   1.000  O
  O12      1.0000 0.58940  0.32480  0.45127  Biso   1.000  O
  O13      1.0000 0.93520  0.39080  0.13300  Biso   1.000  O
  O14      1.0000 0.60920  0.54440  0.79967  Biso   1.000  O
  O15      1.0000 0.45560  0.06480  0.46633  Biso   1.000  O
  O16      1.0000 0.39080  0.93520  0.86700  Biso   1.000  O
  O17      1.0000 0.54440  0.60920  0.20033  Biso   1.000  O
  O18      1.0000 0.06480  0.45560  0.53367  Biso   1.000  O
  O19      1.0000 0.92630  0.56600  0.12210  Biso   1.000  O
  O20      1.0000 0.43400  0.36030  0.78877  Biso   1.000  O
  O21      1.0000 0.63970  0.07370  0.45543  Biso   1.000  O
  O22      1.0000 0.56600  0.92630  0.87790  Biso   1.000  O
  O23      1.0000 0.36030  0.43400  0.21123  Biso   1.000  O
  O24      1.0000 0.07370  0.63970  0.54457  Biso   1.000  O
  O25      1.0000 0.48660  0.46000  0.27410  Biso   1.000  O
  O26      1.0000 0.54000  0.02660  0.94077  Biso   1.000  O
  O27      1.0000 0.97340  0.51340  0.60743  Biso   1.000  O
  O28      1.0000 0.46000  0.48660  0.72590  Biso   1.000  O
  O29      1.0000 0.02660  0.54000  0.05923  Biso   1.000  O
  O30      1.0000 0.51340  0.97340  0.39257  Biso   1.000  O
  O31      1.0000 0.63930  0.65650  0.26530  Biso   1.000  O
  O32      1.0000 0.34350  0.98280  0.93197  Biso   1.000  O
  O33      1.0000 0.01720  0.36070  0.59863  Biso   1.000  O
  O34      1.0000 0.65650  0.63930  0.73470  Biso   1.000  O
  O35      1.0000 0.98280  0.34350  0.06803  Biso   1.000  O
  O36      1.0000 0.36070  0.01720  0.40137  Biso   1.000  O
  O37      1.0000 0.63450  0.22190  0.36660  Biso   1.000  O
  O38      1.0000 0.77810  0.41260  0.03327  Biso   1.000  O
  O39      1.0000 0.58740  0.36550  0.69993  Biso   1.000  O
  O40      1.0000 0.22190  0.63450  0.63340  Biso   1.000  O
  O41      1.0000 0.41260  0.77810  0.96673  Biso   1.000  O
  O42      1.0000 0.36550  0.58740  0.30007  Biso   1.000  O
  O43      1.0000 0.49050  0.26830  0.38590  Biso   1.000  O
  O44      1.0000 0.73170  0.22220  0.05257  Biso   1.000  O
  O45      1.0000 0.77780  0.50950  0.71923  Biso   1.000  O
  O46      1.0000 0.26830  0.49050  0.61410  Biso   1.000  O
  O47      1.0000 0.22220  0.73170  0.94743  Biso   1.000  O
  O48      1.0000 0.50950  0.77780  0.28077  Biso   1.000  O
  O49      1.0000 0.70650  0.88920  0.22000  Biso   1.000  O
  O50      1.0000 0.11080  0.81730  0.88667  Biso   1.000  O
  O51      1.0000 0.18270  0.29350  0.55333  Biso   1.000  O
  O52      1.0000 0.88920  0.70650  0.78000  Biso   1.000  O
  O53      1.0000 0.81730  0.11080  0.11333  Biso   1.000  O
  O54      1.0000 0.29350  0.18270  0.44667  Biso   1.000  O
  O55      1.0000 0.20250  0.32470  0.28230  Biso   1.000  O
  O56      1.0000 0.67530  0.87780  0.94897  Biso   1.000  O
  O57      1.0000 0.12220  0.79750  0.61563  Biso   1.000  O
  O58      1.0000 0.32470  0.20250  0.71770  Biso   1.000  O
  O59      1.0000 0.87780  0.67530  0.05103  Biso   1.000  O
  O60      1.0000 0.79750  0.12220  0.38437  Biso   1.000  O
  C1       1.0000 0.56020  0.26280  0.36420  Biso   1.000  C
  C2       1.0000 0.73720  0.29740  0.03087  Biso   1.000  C
  C3       1.0000 0.70260  0.43980  0.69753  Biso   1.000  C
  C4       1.0000 0.26280  0.56020  0.63580  Biso   1.000  C
  C5       1.0000 0.29740  0.73720  0.96913  Biso   1.000  C
  C6       1.0000 0.43980  0.70260  0.30247  Biso   1.000  C
  C7       1.0000 0.59520  0.54690  0.27660  Biso   1.000  C
  C8       1.0000 0.45310  0.04830  0.94327  Biso   1.000  C
  C9       1.0000 0.95170  0.40480  0.60993  Biso   1.000  C
  C10      1.0000 0.54690  0.59520  0.72340  Biso   1.000  C
  C11      1.0000 0.04830  0.45310  0.05673  Biso   1.000  C
  C12      1.0000 0.40480  0.95170  0.39007  Biso   1.000  C
  C13      1.0000 0.56440  0.33670  0.33020  Biso   1.000  C
  C14      1.0000 0.66330  0.22770  0.99687  Biso   1.000  C
  C15      1.0000 0.77230  0.43560  0.66353  Biso   1.000  C
  C16      1.0000 0.33670  0.56440  0.66980  Biso   1.000  C
  C17      1.0000 0.22770  0.66330  0.00313  Biso   1.000  C
  C18      1.0000 0.43560  0.77230  0.33647  Biso   1.000  C
  H1       1.0000 0.48090  0.32660  0.32600  Biso   1.000  H
  H2       1.0000 0.67340  0.15430  0.99267  Biso   1.000  H
  H3       1.0000 0.84570  0.51910  0.65933  Biso   1.000  H
  H4       1.0000 0.32660  0.48090  0.67400  Biso   1.000  H
  H5       1.0000 0.15430  0.67340  0.00733  Biso   1.000  H
  H6       1.0000 0.51910  0.84570  0.34067  Biso   1.000  H
  C19      1.0000 0.95900  0.49560  0.13950  Biso   1.000  C
  C20      1.0000 0.50440  0.46340  0.80617  Biso   1.000  C
  C21      1.0000 0.53660  0.04100  0.47283  Biso   1.000  C
  C22      1.0000 0.49560  0.95900  0.86050  Biso   1.000  C
  C23      1.0000 0.46340  0.50440  0.19383  Biso   1.000  C
  C24      1.0000 0.04100  0.53660  0.52717  Biso   1.000  C
  C25      1.0000 0.29530  0.66560  0.22250  Biso   1.000  C
  C26      1.0000 0.33440  0.62970  0.88917  Biso   1.000  C
  C27      1.0000 0.37030  0.70470  0.55583  Biso   1.000  C
  C28      1.0000 0.66560  0.29530  0.77750  Biso   1.000  C
  C29      1.0000 0.62970  0.33440  0.11083  Biso   1.000  C
  C30      1.0000 0.70470  0.37030  0.44417  Biso   1.000  C
  C31      1.0000 0.66310  0.47810  0.33220  Biso   1.000  C
  C32      1.0000 0.52190  0.18500  0.99887  Biso   1.000  C
  C33      1.0000 0.81500  0.33690  0.66553  Biso   1.000  C
  C34      1.0000 0.47810  0.66310  0.66780  Biso   1.000  C
  C35      1.0000 0.18500  0.52190  0.00113  Biso   1.000  C
  C36      1.0000 0.33690  0.81500  0.33447  Biso   1.000  C
  C37      1.0000 0.69810  0.51780  0.29300  Biso   1.000  C
  C38      1.0000 0.48220  0.18030  0.95967  Biso   1.000  C
  C39      1.0000 0.81970  0.30190  0.62633  Biso   1.000  C
  C40      1.0000 0.51780  0.69810  0.70700  Biso   1.000  C
  C41      1.0000 0.18030  0.48220  0.04033  Biso   1.000  C
  C42      1.0000 0.30190  0.81970  0.37367  Biso   1.000  C
  C43      1.0000 0.16860  0.65450  0.16700  Biso   1.000  C
  C44      1.0000 0.34550  0.51410  0.83367  Biso   1.000  C
  C45      1.0000 0.48590  0.83140  0.50033  Biso   1.000  C
  C46      1.0000 0.65450  0.16860  0.83300  Biso   1.000  C
  C47      1.0000 0.51410  0.34550  0.16633  Biso   1.000  C
  C48      1.0000 0.83140  0.48590  0.49967  Biso   1.000  C
  C49      1.0000 0.03190  0.54500  0.17210  Biso   1.000  C
  C50      1.0000 0.45500  0.48690  0.83877  Biso   1.000  C
  C51      1.0000 0.51310  0.96810  0.50543  Biso   1.000  C
  C52      1.0000 0.54500  0.03190  0.82790  Biso   1.000  C
  C53      1.0000 0.48690  0.45500  0.16123  Biso   1.000  C
  C54      1.0000 0.96810  0.51310  0.49457  Biso   1.000  C
  H7       1.0000 0.03440  0.47570  0.18390  Biso   1.000  H
  H8       1.0000 0.52430  0.55870  0.85057  Biso   1.000  H
  H9       1.0000 0.44130  0.96560  0.51723  Biso   1.000  H
  H10      1.0000 0.47570  0.03440  0.81610  Biso   1.000  H
  H11      1.0000 0.55870  0.52430  0.14943  Biso   1.000  H
  H12      1.0000 0.96560  0.44130  0.48277  Biso   1.000  H
  C55      1.0000 0.61560  0.55310  0.35100  Biso   1.000  C
  C56      1.0000 0.44690  0.06250  0.01767  Biso   1.000  C
  C57      1.0000 0.93750  0.38440  0.68433  Biso   1.000  C
  C58      1.0000 0.55310  0.61560  0.64900  Biso   1.000  C
  C59      1.0000 0.06250  0.44690  0.98233  Biso   1.000  C
  C60      1.0000 0.38440  0.93750  0.31567  Biso   1.000  C
  H13      1.0000 0.53860  0.53950  0.34080  Biso   1.000  H
  H14      1.0000 0.46050  0.99910  0.00747  Biso   1.000  H
  H15      1.0000 0.00090  0.46140  0.67413  Biso   1.000  H
  H16      1.0000 0.53950  0.53860  0.65920  Biso   1.000  H
  H17      1.0000 0.99910  0.46050  0.99253  Biso   1.000  H
  H18      1.0000 0.46140  0.00090  0.32587  Biso   1.000  H
  H19      1.0000 0.60020  0.52660  0.37450  Biso   1.000  H
  H20      1.0000 0.47340  0.07360  0.04117  Biso   1.000  H
  H21      1.0000 0.92640  0.39980  0.70783  Biso   1.000  H
  H22      1.0000 0.52660  0.60020  0.62550  Biso   1.000  H
  H23      1.0000 0.07360  0.47340  0.95883  Biso   1.000  H
  H24      1.0000 0.39980  0.92640  0.29217  Biso   1.000  H
  H25      1.0000 0.67770  0.64120  0.35000  Biso   1.000  H
  H26      1.0000 0.35880  0.03650  0.01667  Biso   1.000  H
  H27      1.0000 0.96350  0.32230  0.68333  Biso   1.000  H
  H28      1.0000 0.64120  0.67770  0.65000  Biso   1.000  H
  H29      1.0000 0.03650  0.35880  0.98333  Biso   1.000  H
  H30      1.0000 0.32230  0.96350  0.31667  Biso   1.000  H
  C61      1.0000 0.23850  0.59000  0.15280  Biso   1.000  C
  C62      1.0000 0.41000  0.64850  0.81947  Biso   1.000  C
  C63      1.0000 0.35150  0.76150  0.48613  Biso   1.000  C
  C64      1.0000 0.59000  0.23850  0.84720  Biso   1.000  C
  C65      1.0000 0.64850  0.41000  0.18053  Biso   1.000  C
  C66      1.0000 0.76150  0.35150  0.51387  Biso   1.000  C
  H31      1.0000 0.23090  0.52650  0.16850  Biso   1.000  H
  H32      1.0000 0.47350  0.70440  0.83517  Biso   1.000  H
  H33      1.0000 0.29560  0.76910  0.50183  Biso   1.000  H
  H34      1.0000 0.52650  0.23090  0.83150  Biso   1.000  H
  H35      1.0000 0.70440  0.47350  0.16483  Biso   1.000  H
  H36      1.0000 0.76910  0.29560  0.49817  Biso   1.000  H
  H37      1.0000 0.20260  0.55180  0.13130  Biso   1.000  H
  H38      1.0000 0.44820  0.65080  0.79797  Biso   1.000  H
  H39      1.0000 0.34920  0.79740  0.46463  Biso   1.000  H
  H40      1.0000 0.55180  0.20260  0.86870  Biso   1.000  H
  H41      1.0000 0.65080  0.44820  0.20203  Biso   1.000  H
  H42      1.0000 0.79740  0.34920  0.53537  Biso   1.000  H
  H43      1.0000 0.32610  0.65170  0.14980  Biso   1.000  H
  H44      1.0000 0.34830  0.67440  0.81647  Biso   1.000  H
  H45      1.0000 0.32560  0.67390  0.48313  Biso   1.000  H
  H46      1.0000 0.65170  0.32610  0.85020  Biso   1.000  H
  H47      1.0000 0.67440  0.34830  0.18353  Biso   1.000  H
  H48      1.0000 0.67390  0.32560  0.51687  Biso   1.000  H
  C67      1.0000 0.68550  0.39840  0.27550  Biso   1.000  C
  C68      1.0000 0.60160  0.28710  0.94217  Biso   1.000  C
  C69      1.0000 0.71290  0.31450  0.60883  Biso   1.000  C
  C70      1.0000 0.39840  0.68550  0.72450  Biso   1.000  C
  C71      1.0000 0.28710  0.60160  0.05783  Biso   1.000  C
  C72      1.0000 0.31450  0.71290  0.39117  Biso   1.000  C
  H49      1.0000 0.64560  0.38630  0.25330  Biso   1.000  H
  H50      1.0000 0.61370  0.25930  0.91997  Biso   1.000  H
  H51      1.0000 0.74070  0.35440  0.58663  Biso   1.000  H
  H52      1.0000 0.38630  0.64560  0.74670  Biso   1.000  H
  H53      1.0000 0.25930  0.61370  0.08003  Biso   1.000  H
  H54      1.0000 0.35440  0.74070  0.41337  Biso   1.000  H
  H55      1.0000 0.76830  0.40750  0.27220  Biso   1.000  H
  H56      1.0000 0.59250  0.36080  0.93887  Biso   1.000  H
  H57      1.0000 0.63920  0.23170  0.60553  Biso   1.000  H
  H58      1.0000 0.40750  0.76830  0.72780  Biso   1.000  H
  H59      1.0000 0.36080  0.59250  0.06113  Biso   1.000  H
  H60      1.0000 0.23170  0.63920  0.39447  Biso   1.000  H
  C73      1.0000 0.60370  0.28300  0.29900  Biso   1.000  C
  C74      1.0000 0.71700  0.32070  0.96567  Biso   1.000  C
  C75      1.0000 0.67930  0.39630  0.63233  Biso   1.000  C
  C76      1.0000 0.28300  0.60370  0.70100  Biso   1.000  C
  C77      1.0000 0.32070  0.71700  0.03433  Biso   1.000  C
  C78      1.0000 0.39630  0.67930  0.36767  Biso   1.000  C
  H61      1.0000 0.65190  0.24440  0.30670  Biso   1.000  H
  H62      1.0000 0.75560  0.40750  0.97337  Biso   1.000  H
  H63      1.0000 0.59250  0.34810  0.64003  Biso   1.000  H
  H64      1.0000 0.24440  0.65190  0.69330  Biso   1.000  H
  H65      1.0000 0.40750  0.75560  0.02663  Biso   1.000  H
  H66      1.0000 0.34810  0.59250  0.35997  Biso   1.000  H
  H67      1.0000 0.52960  0.22020  0.28690  Biso   1.000  H
  H68      1.0000 0.77980  0.30940  0.95357  Biso   1.000  H
  H69      1.0000 0.69060  0.47040  0.62023  Biso   1.000  H
  H70      1.0000 0.22020  0.52960  0.71310  Biso   1.000  H
  H71      1.0000 0.30940  0.77980  0.04643  Biso   1.000  H
  H72      1.0000 0.47040  0.69060  0.37977  Biso   1.000  H
  C79      1.0000 0.20490  0.71210  0.20510  Biso   1.000  C
  C80      1.0000 0.28790  0.49280  0.87177  Biso   1.000  C
  C81      1.0000 0.50720  0.79510  0.53843  Biso   1.000  C
  C82      1.0000 0.71210  0.20490  0.79490  Biso   1.000  C
  C83      1.0000 0.49280  0.28790  0.12823  Biso   1.000  C
  C84      1.0000 0.79510  0.50720  0.46157  Biso   1.000  C
  C85      1.0000 0.78090  0.51070  0.35150  Biso   1.000  C
  C86      1.0000 0.48930  0.27020  0.01817  Biso   1.000  C
  C87      1.0000 0.72980  0.21910  0.68483  Biso   1.000  C
  C88      1.0000 0.51070  0.78090  0.64850  Biso   1.000  C
  C89      1.0000 0.27020  0.48930  0.98183  Biso   1.000  C
  C90      1.0000 0.21910  0.72980  0.31517  Biso   1.000  C
  H73      1.0000 0.82050  0.46750  0.34170  Biso   1.000  H
  H74      1.0000 0.53250  0.35300  0.00837  Biso   1.000  H
  H75      1.0000 0.64700  0.17950  0.67503  Biso   1.000  H
  H76      1.0000 0.46750  0.82050  0.65830  Biso   1.000  H
  H77      1.0000 0.35300  0.53250  0.99163  Biso   1.000  H
  H78      1.0000 0.17950  0.64700  0.32497  Biso   1.000  H
  H79      1.0000 0.83770  0.60020  0.35040  Biso   1.000  H
  H80      1.0000 0.39980  0.23750  0.01707  Biso   1.000  H
  H81      1.0000 0.76250  0.16230  0.68373  Biso   1.000  H
  H82      1.0000 0.60020  0.83770  0.64960  Biso   1.000  H
  H83      1.0000 0.23750  0.39980  0.98293  Biso   1.000  H
  H84      1.0000 0.16230  0.76250  0.31627  Biso   1.000  H
  H85      1.0000 0.76020  0.48560  0.37490  Biso   1.000  H
  H86      1.0000 0.51440  0.27460  0.04157  Biso   1.000  H
  H87      1.0000 0.72540  0.23980  0.70823  Biso   1.000  H
  H88      1.0000 0.48560  0.76020  0.62510  Biso   1.000  H
  H89      1.0000 0.27460  0.51440  0.95843  Biso   1.000  H
  H90      1.0000 0.23980  0.72540  0.29177  Biso   1.000  H
  C91      1.0000 0.98220  0.60800  0.19700  Biso   1.000  C
  C92      1.0000 0.39200  0.37420  0.86367  Biso   1.000  C
  C93      1.0000 0.62580  0.01780  0.53033  Biso   1.000  C
  C94      1.0000 0.60800  0.98220  0.80300  Biso   1.000  C
  C95      1.0000 0.37420  0.39200  0.13633  Biso   1.000  C
  C96      1.0000 0.01780  0.62580  0.46967  Biso   1.000  C
  H91      1.0000 0.98050  0.67870  0.18640  Biso   1.000  H
  H92      1.0000 0.32130  0.30180  0.85307  Biso   1.000  H
  H93      1.0000 0.69820  0.01950  0.51973  Biso   1.000  H
  H94      1.0000 0.67870  0.98050  0.81360  Biso   1.000  H
  H95      1.0000 0.30180  0.32130  0.14693  Biso   1.000  H
  H96      1.0000 0.01950  0.69820  0.48027  Biso   1.000  H
  H97      1.0000 0.89820  0.54800  0.20510  Biso   1.000  H
  H98      1.0000 0.45200  0.35020  0.87177  Biso   1.000  H
  H99      1.0000 0.64980  0.10180  0.53843  Biso   1.000  H
  H100     1.0000 0.54800  0.89820  0.79490  Biso   1.000  H
  H101     1.0000 0.35020  0.45200  0.12823  Biso   1.000  H
  H102     1.0000 0.10180  0.64980  0.46157  Biso   1.000  H
  C97      1.0000 0.07940  0.65200  0.22640  Biso   1.000  C
  C98      1.0000 0.34800  0.42740  0.89307  Biso   1.000  C
  C99      1.0000 0.57260  0.92060  0.55973  Biso   1.000  C
  C100     1.0000 0.65200  0.07940  0.77360  Biso   1.000  C
  C101     1.0000 0.42740  0.34800  0.10693  Biso   1.000  C
  C102     1.0000 0.92060  0.57260  0.44027  Biso   1.000  C
  H103     1.0000 0.06940  0.58220  0.24020  Biso   1.000  H
  H104     1.0000 0.41780  0.48720  0.90687  Biso   1.000  H
  H105     1.0000 0.51280  0.93060  0.57353  Biso   1.000  H
  H106     1.0000 0.58220  0.06940  0.75980  Biso   1.000  H
  H107     1.0000 0.48720  0.41780  0.09313  Biso   1.000  H
  H108     1.0000 0.93060  0.51280  0.42647  Biso   1.000  H
  H109     1.0000 0.07470  0.71420  0.24080  Biso   1.000  H
  H110     1.0000 0.28580  0.36050  0.90747  Biso   1.000  H
  H111     1.0000 0.63950  0.92530  0.57413  Biso   1.000  H
  H112     1.0000 0.71420  0.07470  0.75920  Biso   1.000  H
  H113     1.0000 0.36050  0.28580  0.09253  Biso   1.000  H
  H114     1.0000 0.92530  0.63950  0.42587  Biso   1.000  H
  C103     1.0000 0.18600  0.74800  0.14150  Biso   1.000  C
  C104     1.0000 0.25200  0.43800  0.80817  Biso   1.000  C
  C105     1.0000 0.56200  0.81400  0.47483  Biso   1.000  C
  C106     1.0000 0.74800  0.18600  0.85850  Biso   1.000  C
  C107     1.0000 0.43800  0.25200  0.19183  Biso   1.000  C
  C108     1.0000 0.81400  0.56200  0.52517  Biso   1.000  C
  H115     1.0000 0.14430  0.79230  0.14880  Biso   1.000  H
  H116     1.0000 0.20770  0.35200  0.81547  Biso   1.000  H
  H117     1.0000 0.64800  0.85570  0.48213  Biso   1.000  H
  H118     1.0000 0.79230  0.14430  0.85120  Biso   1.000  H
  H119     1.0000 0.35200  0.20770  0.18453  Biso   1.000  H
  H120     1.0000 0.85570  0.64800  0.51787  Biso   1.000  H
  H121     1.0000 0.27460  0.80620  0.13870  Biso   1.000  H
  H122     1.0000 0.19380  0.46840  0.80537  Biso   1.000  H
  H123     1.0000 0.53160  0.72540  0.47203  Biso   1.000  H
  H124     1.0000 0.80620  0.27460  0.86130  Biso   1.000  H
  H125     1.0000 0.46840  0.19380  0.19463  Biso   1.000  H
  H126     1.0000 0.72540  0.53160  0.52797  Biso   1.000  H
  H127     1.0000 0.15120  0.70630  0.12020  Biso   1.000  H
  H128     1.0000 0.29370  0.44490  0.78687  Biso   1.000  H
  H129     1.0000 0.55510  0.84880  0.45353  Biso   1.000  H
  H130     1.0000 0.70630  0.15120  0.87980  Biso   1.000  H
  H131     1.0000 0.44490  0.29370  0.21313  Biso   1.000  H
  H132     1.0000 0.84880  0.55510  0.54647  Biso   1.000  H
  C109     1.0000 0.82940  0.63300  0.28700  Biso   1.000  C
  C110     1.0000 0.36700  0.19640  0.95367  Biso   1.000  C
  C111     1.0000 0.80360  0.17060  0.62033  Biso   1.000  C
  C112     1.0000 0.63300  0.82940  0.71300  Biso   1.000  C
  C113     1.0000 0.19640  0.36700  0.04633  Biso   1.000  C
  C114     1.0000 0.17060  0.80360  0.37967  Biso   1.000  C
  H133     1.0000 0.83480  0.70510  0.29810  Biso   1.000  H
  H134     1.0000 0.29490  0.12970  0.96477  Biso   1.000  H
  H135     1.0000 0.87030  0.16520  0.63143  Biso   1.000  H
  H136     1.0000 0.70510  0.83480  0.70190  Biso   1.000  H
  H137     1.0000 0.12970  0.29490  0.03523  Biso   1.000  H
  H138     1.0000 0.16520  0.87030  0.36857  Biso   1.000  H
  H139     1.0000 0.89240  0.61600  0.29630  Biso   1.000  H
  H140     1.0000 0.38400  0.27640  0.96297  Biso   1.000  H
  H141     1.0000 0.72360  0.10760  0.62963  Biso   1.000  H
  H142     1.0000 0.61600  0.89240  0.70370  Biso   1.000  H
  H143     1.0000 0.27640  0.38400  0.03703  Biso   1.000  H
  H144     1.0000 0.10760  0.72360  0.37037  Biso   1.000  H
  H145     1.0000 0.84330  0.64840  0.26300  Biso   1.000  H
  H146     1.0000 0.35160  0.19490  0.92967  Biso   1.000  H
  H147     1.0000 0.80510  0.15670  0.59633  Biso   1.000  H
  H148     1.0000 0.64840  0.84330  0.73700  Biso   1.000  H
  H149     1.0000 0.19490  0.35160  0.07033  Biso   1.000  H
  H150     1.0000 0.15670  0.80510  0.40367  Biso   1.000  H
  C115     1.0000 0.29100  0.86730  0.20420  Biso   1.000  C
  C116     1.0000 0.13270  0.42370  0.87087  Biso   1.000  C
  C117     1.0000 0.57630  0.70900  0.53753  Biso   1.000  C
  C118     1.0000 0.86730  0.29100  0.79580  Biso   1.000  C
  C119     1.0000 0.42370  0.13270  0.12913  Biso   1.000  C
  C120     1.0000 0.70900  0.57630  0.46247  Biso   1.000  C
  H151     1.0000 0.36460  0.89200  0.19040  Biso   1.000  H
  H152     1.0000 0.10800  0.47260  0.85707  Biso   1.000  H
  H153     1.0000 0.52740  0.63540  0.52373  Biso   1.000  H
  H154     1.0000 0.89200  0.36460  0.80960  Biso   1.000  H
  H155     1.0000 0.47260  0.10800  0.14293  Biso   1.000  H
  H156     1.0000 0.63540  0.52740  0.47627  Biso   1.000  H
  H157     1.0000 0.24230  0.90160  0.19460  Biso   1.000  H
  H158     1.0000 0.09840  0.34070  0.86127  Biso   1.000  H
  H159     1.0000 0.65930  0.75770  0.52793  Biso   1.000  H
  H160     1.0000 0.90160  0.24230  0.80540  Biso   1.000  H
  H161     1.0000 0.34070  0.09840  0.13873  Biso   1.000  H
  H162     1.0000 0.75770  0.65930  0.47207  Biso   1.000  H
  H163     1.0000 0.31610  0.89870  0.22700  Biso   1.000  H
  H164     1.0000 0.10130  0.41740  0.89367  Biso   1.000  H
  H165     1.0000 0.58260  0.68390  0.56033  Biso   1.000  H
  H166     1.0000 0.89870  0.31610  0.77300  Biso   1.000  H
  H167     1.0000 0.41740  0.10130  0.10633  Biso   1.000  H
  H168     1.0000 0.68390  0.58260  0.43967  Biso   1.000  H
