data_image0
_cell_length_a       10.049
_cell_length_b       14.29
_cell_length_c       18.843
_cell_angle_alpha    75.896
_cell_angle_beta     77.73
_cell_angle_gamma    77.018

_symmetry_space_group_name_H-M    "P 1"
_symmetry_int_tables_number       1

loop_
  _symmetry_equiv_pos_as_xyz
  'x, y, z'

loop_
  _atom_site_label
  _atom_site_occupancy
  _atom_site_fract_x
  _atom_site_fract_y
  _atom_site_fract_z
  _atom_site_thermal_displace_type
  _atom_site_B_iso_or_equiv
  _atom_site_type_symbol
  Cu1      1.0000 0.91199  0.43987  0.95282  Biso   1.000  Cu
  Cu2      1.0000 0.08801  0.56013  0.04718  Biso   1.000  Cu
  O1       1.0000 0.11050  0.38779  0.92668  Biso   1.000  O
  O2       1.0000 0.88950  0.61221  0.07332  Biso   1.000  O
  O3       1.0000 0.21800  0.46776  0.97884  Biso   1.000  O
  O4       1.0000 0.78200  0.53224  0.02116  Biso   1.000  O
  N1       1.0000 0.89500  0.32860  0.03680  Biso   1.000  N
  N2       1.0000 0.10500  0.67140  0.96320  Biso   1.000  N
  N3       1.0000 0.80080  0.23470  0.13591  Biso   1.000  N
  N4       1.0000 0.19920  0.76530  0.86409  Biso   1.000  N
  H1       1.0000 0.73960  0.21310  0.17380  Biso   1.000  H
  H2       1.0000 0.26040  0.78690  0.82620  Biso   1.000  H
  N5       1.0000 0.92570  0.55200  0.86970  Biso   1.000  N
  N6       1.0000 0.07430  0.44800  0.13030  Biso   1.000  N
  N7       1.0000 0.99860  0.64820  0.76601  Biso   1.000  N
  N8       1.0000 0.00140  0.35180  0.23399  Biso   1.000  N
  H3       1.0000 0.05350  0.67160  0.72560  Biso   1.000  H
  H4       1.0000 0.94650  0.32840  0.27440  Biso   1.000  H
  C1       1.0000 0.78030  0.31650  0.08500  Biso   1.000  C
  C2       1.0000 0.21970  0.68350  0.91500  Biso   1.000  C
  H5       1.0000 0.69430  0.36070  0.08330  Biso   1.000  H
  H6       1.0000 0.30570  0.63930  0.91670  Biso   1.000  H
  C3       1.0000 0.93400  0.19080  0.11820  Biso   1.000  C
  C4       1.0000 0.06600  0.80920  0.88180  Biso   1.000  C
  H7       1.0000 0.97850  0.12940  0.14310  Biso   1.000  H
  H8       1.0000 0.02150  0.87060  0.85690  Biso   1.000  H
  C5       1.0000 0.99050  0.25020  0.05930  Biso   1.000  C
  C6       1.0000 0.00950  0.74980  0.94070  Biso   1.000  C
  H9       1.0000 0.08480  0.23900  0.03630  Biso   1.000  H
  H10      1.0000 0.91520  0.76100  0.96370  Biso   1.000  H
  C7       1.0000 0.03040  0.56600  0.81523  Biso   1.000  C
  C8       1.0000 0.96960  0.43400  0.18477  Biso   1.000  C
  H11      1.0000 0.11740  0.52280  0.81160  Biso   1.000  H
  H12      1.0000 0.88260  0.47720  0.18840  Biso   1.000  H
  C9       1.0000 0.86410  0.69020  0.78990  Biso   1.000  C
  C10      1.0000 0.13590  0.30980  0.21010  Biso   1.000  C
  H13      1.0000 0.81260  0.74950  0.76620  Biso   1.000  H
  H14      1.0000 0.18740  0.25050  0.23380  Biso   1.000  H
  C11      1.0000 0.82010  0.62970  0.85400  Biso   1.000  C
  C12      1.0000 0.17990  0.37030  0.14600  Biso   1.000  C
  H15      1.0000 0.73070  0.63940  0.88340  Biso   1.000  H
  H16      1.0000 0.26930  0.36060  0.11660  Biso   1.000  H
  C13      1.0000 0.21550  0.40985  0.93955  Biso   1.000  C
  C14      1.0000 0.78450  0.59015  0.06045  Biso   1.000  C
  C15      1.0000 0.35260  0.35946  0.90484  Biso   1.000  C
  C16      1.0000 0.64740  0.64054  0.09516  Biso   1.000  C
  C17      1.0000 0.35640  0.28747  0.86595  Biso   1.000  C
  C18      1.0000 0.64360  0.71253  0.13405  Biso   1.000  C
  H17      1.0000 0.27240  0.27180  0.86080  Biso   1.000  H
  H18      1.0000 0.72760  0.72820  0.13920  Biso   1.000  H
  C19      1.0000 0.48110  0.23877  0.83489  Biso   1.000  C
  C20      1.0000 0.51890  0.76123  0.16511  Biso   1.000  C
  C21      1.0000 0.48080  0.15860  0.79570  Biso   1.000  C
  C22      1.0000 0.51920  0.84140  0.20430  Biso   1.000  C
  O5       1.0000 0.59600  0.12176  0.76123  Biso   1.000  O
  O6       1.0000 0.40400  0.87824  0.23877  Biso   1.000  O
  O7       1.0000 0.36940  0.13105  0.80058  Biso   1.000  O
  O8       1.0000 0.63060  0.86895  0.19942  Biso   1.000  O
  C23      1.0000 0.60520  0.26120  0.84179  Biso   1.000  C
  C24      1.0000 0.39480  0.73880  0.15821  Biso   1.000  C
  H19      1.0000 0.69100  0.22840  0.81940  Biso   1.000  H
  H20      1.0000 0.30900  0.77160  0.18060  Biso   1.000  H
  C25      1.0000 0.60260  0.33230  0.88182  Biso   1.000  C
  C26      1.0000 0.39740  0.66770  0.11818  Biso   1.000  C
  C27      1.0000 0.73660  0.35510  0.89186  Biso   1.000  C
  C28      1.0000 0.26340  0.64490  0.10814  Biso   1.000  C
  O9       1.0000 0.72780  0.42356  0.92354  Biso   1.000  O
  O10      1.0000 0.27220  0.57644  0.07646  Biso   1.000  O
  O11      1.0000 0.84770  0.30199  0.86934  Biso   1.000  O
  O12      1.0000 0.15230  0.69801  0.13066  Biso   1.000  O
  C29      1.0000 0.47650  0.38080  0.91277  Biso   1.000  C
  C30      1.0000 0.52350  0.61920  0.08723  Biso   1.000  C
  H21      1.0000 0.47450  0.42930  0.93980  Biso   1.000  H
  H22      1.0000 0.52550  0.57070  0.06020  Biso   1.000  H
  Cu3      1.0000 0.60530  0.98988  0.74078  Biso   1.000  Cu
  Cu4      1.0000 0.39470  0.01012  0.25922  Biso   1.000  Cu
  O13      1.0000 0.83840  0.97770  0.71529  Biso   1.000  O
  O14      1.0000 0.16160  0.02230  0.28471  Biso   1.000  O
  N9       1.0000 0.60010  0.93577  0.84803  Biso   1.000  N
  N10      1.0000 0.39990  0.06423  0.15197  Biso   1.000  N
  N11      1.0000 0.64780  0.91340  0.95922  Biso   1.000  N
  N12      1.0000 0.35220  0.08660  0.04078  Biso   1.000  N
  H23      1.0000 0.68740  0.91770  0.99550  Biso   1.000  H
  H24      1.0000 0.31260  0.08230  0.00450  Biso   1.000  H
  N13      1.0000 0.57370  0.04927  0.63819  Biso   1.000  N
  N14      1.0000 0.42630  0.95073  0.36181  Biso   1.000  N
  N15      1.0000 0.60330  0.06590  0.51804  Biso   1.000  N
  N16      1.0000 0.39670  0.93410  0.48196  Biso   1.000  N
  H25      1.0000 0.63560  0.05370  0.47340  Biso   1.000  H
  H26      1.0000 0.36440  0.94630  0.52660  Biso   1.000  H
  C31      1.0000 0.67210  0.95890  0.88911  Biso   1.000  C
  C32      1.0000 0.32790  0.04110  0.11089  Biso   1.000  C
  H27      1.0000 0.73490  0.00350  0.87070  Biso   1.000  H
  H28      1.0000 0.26510  0.99650  0.12930  Biso   1.000  H
  C33      1.0000 0.55000  0.85870  0.96470  Biso   1.000  C
  C34      1.0000 0.45000  0.14130  0.03530  Biso   1.000  C
  H29      1.0000 0.50920  0.81880  0.00830  Biso   1.000  H
  H30      1.0000 0.49080  0.18120  0.99170  Biso   1.000  H
  C35      1.0000 0.52290  0.87290  0.89500  Biso   1.000  C
  C36      1.0000 0.47710  0.12710  0.10500  Biso   1.000  C
  H31      1.0000 0.45930  0.84320  0.88120  Biso   1.000  H
  H32      1.0000 0.54070  0.15680  0.11880  Biso   1.000  H
  C37      1.0000 0.64140  0.01140  0.58063  Biso   1.000  C
  C38      1.0000 0.35860  0.98860  0.41937  Biso   1.000  C
  H33      1.0000 0.70880  0.95280  0.58370  Biso   1.000  H
  H34      1.0000 0.29120  0.04720  0.41630  Biso   1.000  H
  C39      1.0000 0.50590  0.14390  0.53467  Biso   1.000  C
  C40      1.0000 0.49410  0.85610  0.46533  Biso   1.000  C
  H35      1.0000 0.45950  0.19510  0.50100  Biso   1.000  H
  H36      1.0000 0.54050  0.80490  0.49900  Biso   1.000  H
  C41      1.0000 0.48860  0.13340  0.60905  Biso   1.000  C
  C42      1.0000 0.51140  0.86660  0.39095  Biso   1.000  C
  H37      1.0000 0.42710  0.17730  0.63700  Biso   1.000  H
  H38      1.0000 0.57290  0.82270  0.36300  Biso   1.000  H
  O15      1.0000 0.62090  0.86040  0.71718  Biso   1.000  O
  O16      1.0000 0.37910  0.13960  0.28282  Biso   1.000  O
  O17      1.0000 0.39570  0.85869  0.75198  Biso   1.000  O
  O18      1.0000 0.60430  0.14131  0.24802  Biso   1.000  O
  C43      1.0000 0.51280  0.82910  0.71797  Biso   1.000  C
  C44      1.0000 0.48720  0.17090  0.28203  Biso   1.000  C
  C45      1.0000 0.52730  0.75140  0.67392  Biso   1.000  C
  C46      1.0000 0.47270  0.24860  0.32608  Biso   1.000  C
  C47      1.0000 0.65630  0.71001  0.64052  Biso   1.000  C
  C48      1.0000 0.34370  0.28999  0.35948  Biso   1.000  C
  H39      1.0000 0.73730  0.72790  0.64760  Biso   1.000  H
  H40      1.0000 0.26270  0.27210  0.35240  Biso   1.000  H
  C49      1.0000 0.66770  0.64247  0.59664  Biso   1.000  C
  C50      1.0000 0.33230  0.35753  0.40336  Biso   1.000  C
  C51      1.0000 0.80750  0.59974  0.55830  Biso   1.000  C
  C52      1.0000 0.19250  0.40026  0.44170  Biso   1.000  C
  O19      1.0000 0.90908  0.63072  0.56904  Biso   1.000  O
  O20      1.0000 0.09092  0.36928  0.43096  Biso   1.000  O
  O21      1.0000 0.81410  0.54079  0.51954  Biso   1.000  O
  O22      1.0000 0.18590  0.45921  0.48046  Biso   1.000  O
  C53      1.0000 0.54840  0.61665  0.58585  Biso   1.000  C
  C54      1.0000 0.45160  0.38335  0.41415  Biso   1.000  C
  H41      1.0000 0.55580  0.57000  0.55630  Biso   1.000  H
  H42      1.0000 0.44420  0.43000  0.44370  Biso   1.000  H
  C55      1.0000 0.41880  0.65950  0.61857  Biso   1.000  C
  C56      1.0000 0.58120  0.34050  0.38143  Biso   1.000  C
  C57      1.0000 0.28900  0.63940  0.60316  Biso   1.000  C
  C58      1.0000 0.71100  0.36060  0.39684  Biso   1.000  C
  O23      1.0000 0.30154  0.57955  0.56250  Biso   1.000  O
  O24      1.0000 0.69846  0.42045  0.43750  Biso   1.000  O
  O25      1.0000 0.17470  0.68511  0.62976  Biso   1.000  O
  O26      1.0000 0.82530  0.31489  0.37024  Biso   1.000  O
  C59      1.0000 0.40890  0.72590  0.66317  Biso   1.000  C
  C60      1.0000 0.59110  0.27410  0.33683  Biso   1.000  C
  H43      1.0000 0.32060  0.75410  0.68640  Biso   1.000  H
  H44      1.0000 0.67940  0.24590  0.31360  Biso   1.000  H
  Cu5      1.0000 0.10867  0.57618  0.54772  Biso   1.000  Cu
  Cu6      1.0000 0.89133  0.42382  0.45228  Biso   1.000  Cu
  N17      1.0000 0.13000  0.67418  0.45438  Biso   1.000  N
  N18      1.0000 0.87000  0.32582  0.54562  Biso   1.000  N
  N19      1.0000 0.21300  0.77680  0.35822  Biso   1.000  N
  N20      1.0000 0.78700  0.22320  0.64178  Biso   1.000  N
  H45      1.0000 0.26970  0.81350  0.32810  Biso   1.000  H
  H46      1.0000 0.73030  0.18650  0.67190  Biso   1.000  H
  N21      1.0000 0.09430  0.47184  0.63812  Biso   1.000  N
  N22      1.0000 0.90570  0.52816  0.36188  Biso   1.000  N
  N23      1.0000 0.02190  0.37610  0.74215  Biso   1.000  N
  N24      1.0000 0.97810  0.62390  0.25785  Biso   1.000  N
  H47      1.0000 0.96680  0.35270  0.78230  Biso   1.000  H
  H48      1.0000 0.03320  0.64730  0.21770  Biso   1.000  H
  C61      1.0000 0.23620  0.71880  0.42330  Biso   1.000  C
  C62      1.0000 0.76380  0.28120  0.57670  Biso   1.000  C
  H49      1.0000 0.31720  0.71080  0.44420  Biso   1.000  H
  H50      1.0000 0.68280  0.28920  0.55580  Biso   1.000  H
  C63      1.0000 0.09000  0.76970  0.34650  Biso   1.000  C
  C64      1.0000 0.91000  0.23030  0.65350  Biso   1.000  C
  H51      1.0000 0.04700  0.80310  0.30480  Biso   1.000  H
  H52      1.0000 0.95300  0.19690  0.69520  Biso   1.000  H
  C65      1.0000 0.03860  0.70610  0.40536  Biso   1.000  C
  C66      1.0000 0.96140  0.29390  0.59464  Biso   1.000  C
  H53      1.0000 0.95190  0.68630  0.41200  Biso   1.000  H
  H54      1.0000 0.04810  0.31370  0.58800  Biso   1.000  H
  C67      1.0000 0.98890  0.45710  0.69203  Biso   1.000  C
  C68      1.0000 0.01110  0.54290  0.30797  Biso   1.000  C
  H55      1.0000 0.90080  0.49900  0.69480  Biso   1.000  H
  H56      1.0000 0.09920  0.50100  0.30520  Biso   1.000  H
  C69      1.0000 0.15700  0.33570  0.72005  Biso   1.000  C
  C70      1.0000 0.84300  0.66430  0.27995  Biso   1.000  C
  H57      1.0000 0.20950  0.27770  0.74480  Biso   1.000  H
  H58      1.0000 0.79050  0.72230  0.25520  Biso   1.000  H
  C71      1.0000 0.20020  0.39530  0.65606  Biso   1.000  C
  C72      1.0000 0.79980  0.60470  0.34394  Biso   1.000  C
  H59      1.0000 0.29040  0.38600  0.62750  Biso   1.000  H
  H60      1.0000 0.70960  0.61400  0.37250  Biso   1.000  H
  O27      1.0000 0.03180  0.95500  0.19770  Biso   1.000  O
  O28      1.0000 0.96820  0.04500  0.80230  Biso   1.000  O
  O29      1.0000 0.79510  0.95140  0.05770  Biso   1.000  O
  O30      1.0000 0.20490  0.04860  0.94230  Biso   1.000  O
  O31      1.0000 0.08230  0.89170  0.06537  Biso   1.000  O
  O32      1.0000 0.91770  0.10830  0.93463  Biso   1.000  O
  O33      1.0000 0.23560  0.03706  0.73493  Biso   1.000  O
  O34      1.0000 0.76440  0.96294  0.26507  Biso   1.000  O
  O35      1.0000 0.04420  0.87717  0.61982  Biso   1.000  O
  O36      1.0000 0.95580  0.12283  0.38018  Biso   1.000  O
  H61      1.0000 0.87900  0.99410  0.74940  Biso   1.000  H
  H62      1.0000 0.12100  0.00590  0.25060  Biso   1.000  H
  H63      1.0000 0.27700  0.05840  0.76760  Biso   1.000  H
  H64      1.0000 0.72300  0.94160  0.23240  Biso   1.000  H
  H65      1.0000 0.04500  0.93640  0.15170  Biso   1.000  H
  H66      1.0000 0.95500  0.06360  0.84830  Biso   1.000  H
  H67      1.0000 0.09500  0.82420  0.08580  Biso   1.000  H
  H68      1.0000 0.90500  0.17580  0.91420  Biso   1.000  H
  H69      1.0000 0.90700  0.93850  0.68900  Biso   1.000  H
  H70      1.0000 0.09300  0.06150  0.31100  Biso   1.000  H
  H71      1.0000 0.93930  0.95300  0.21760  Biso   1.000  H
  H72      1.0000 0.06070  0.04700  0.78240  Biso   1.000  H
  H73      1.0000 0.15600  0.89900  0.02530  Biso   1.000  H
  H74      1.0000 0.84400  0.10100  0.97470  Biso   1.000  H
  H75      1.0000 0.26500  0.96810  0.74600  Biso   1.000  H
  H76      1.0000 0.73500  0.03190  0.25400  Biso   1.000  H
  H77      1.0000 0.10730  0.91790  0.61700  Biso   1.000  H
  H78      1.0000 0.89270  0.08210  0.38300  Biso   1.000  H
  H79      1.0000 0.09700  0.81380  0.62400  Biso   1.000  H
  H80      1.0000 0.90300  0.18620  0.37600  Biso   1.000  H
  O37      1.0000 0.79110  0.98277  0.40676  Biso   1.000  O
  O38      1.0000 0.20890  0.01723  0.59324  Biso   1.000  O
  H81      1.0000 0.76400  0.96370  0.36890  Biso   1.000  H
  H82      1.0000 0.23600  0.03630  0.63110  Biso   1.000  H
  H83      1.0000 0.80600  0.92560  0.44320  Biso   1.000  H
  H84      1.0000 0.19400  0.07440  0.55680  Biso   1.000  H
  O39      1.0000 0.88780  0.84623  0.52642  Biso   1.000  O
  O40      1.0000 0.11220  0.15377  0.47358  Biso   1.000  O
  H85      1.0000 0.93600  0.86750  0.55540  Biso   1.000  H
  H86      1.0000 0.06400  0.13250  0.44460  Biso   1.000  H
  H87      1.0000 0.90400  0.77750  0.54200  Biso   1.000  H
  H88      1.0000 0.09600  0.22250  0.45800  Biso   1.000  H
  H89      1.0000 0.88960  0.92400  0.05670  Biso   1.000  H
  H90      1.0000 0.11040  0.07600  0.94330  Biso   1.000  H
  H91      1.0000 0.75500  0.92900  0.10710  Biso   1.000  H
  H92      1.0000 0.24500  0.07100  0.89290  Biso   1.000  H
