data_image0
_cell_length_a       12.63
_cell_length_b       7.5355
_cell_length_c       19.518
_cell_angle_alpha    90
_cell_angle_beta     93.73
_cell_angle_gamma    90

_symmetry_space_group_name_H-M    "P 1"
_symmetry_int_tables_number       1

loop_
  _symmetry_equiv_pos_as_xyz
  'x, y, z'

loop_
  _atom_site_label
  _atom_site_occupancy
  _atom_site_fract_x
  _atom_site_fract_y
  _atom_site_fract_z
  _atom_site_thermal_displace_type
  _atom_site_B_iso_or_equiv
  _atom_site_type_symbol
  As1      1.0000 0.87543  0.05283  0.11237  Biso   1.000  As
  As2      1.0000 0.62457  0.55283  0.38763  Biso   1.000  As
  As3      1.0000 0.12457  0.94717  0.88763  Biso   1.000  As
  As4      1.0000 0.37543  0.44717  0.61237  Biso   1.000  As
  Cu1      1.0000 0.75847  0.82593  0.00007  Biso   1.000  Cu
  Cu2      1.0000 0.74153  0.32593  0.49993  Biso   1.000  Cu
  Cu3      1.0000 0.24153  0.17407  0.99993  Biso   1.000  Cu
  Cu4      1.0000 0.25847  0.67407  0.50007  Biso   1.000  Cu
  V1       1.0000 0.07816  0.87557  0.04905  Biso   1.000  V
  V2       1.0000 0.42184  0.37557  0.45095  Biso   1.000  V
  V3       1.0000 0.92184  0.12443  0.95095  Biso   1.000  V
  V4       1.0000 0.57816  0.62443  0.54905  Biso   1.000  V
  V5       1.0000 0.93233  0.45932  0.05689  Biso   1.000  V
  V6       1.0000 0.56767  0.95932  0.44311  Biso   1.000  V
  V7       1.0000 0.06767  0.54068  0.94311  Biso   1.000  V
  V8       1.0000 0.43233  0.04068  0.55689  Biso   1.000  V
  V9       1.0000 0.90851  0.38144  0.22952  Biso   1.000  V
  V10      1.0000 0.59149  0.88144  0.27048  Biso   1.000  V
  V11      1.0000 0.09149  0.61856  0.77048  Biso   1.000  V
  V12      1.0000 0.40851  0.11856  0.72952  Biso   1.000  V
  O1       1.0000 0.98941  0.93290  0.12087  Biso   1.000  O
  O2       1.0000 0.51059  0.43290  0.37913  Biso   1.000  O
  O3       1.0000 0.01059  0.06710  0.87913  Biso   1.000  O
  O4       1.0000 0.48941  0.56710  0.62087  Biso   1.000  O
  O5       1.0000 0.76985  0.92580  0.09185  Biso   1.000  O
  O6       1.0000 0.73015  0.42580  0.40815  Biso   1.000  O
  O7       1.0000 0.23015  0.07420  0.90815  Biso   1.000  O
  O8       1.0000 0.26985  0.57420  0.59185  Biso   1.000  O
  N1       1.0000 0.60190  0.78760  0.00730  Biso   1.000  N
  N2       1.0000 0.89810  0.28760  0.49270  Biso   1.000  N
  N3       1.0000 0.39810  0.21240  0.99270  Biso   1.000  N
  N4       1.0000 0.10190  0.71240  0.50730  Biso   1.000  N
  N5       1.0000 0.72490  0.74470  0.90420  Biso   1.000  N
  N6       1.0000 0.77510  0.24470  0.59580  Biso   1.000  N
  N7       1.0000 0.27510  0.25530  0.09580  Biso   1.000  N
  N8       1.0000 0.22490  0.75530  0.40420  Biso   1.000  N
  O9       1.0000 0.02859  0.62810  0.03341  Biso   1.000  O
  O10      1.0000 0.47141  0.12810  0.46659  Biso   1.000  O
  O11      1.0000 0.97141  0.37190  0.96659  Biso   1.000  O
  O12      1.0000 0.52859  0.87190  0.53341  Biso   1.000  O
  O13      1.0000 0.90417  0.91370  0.98392  Biso   1.000  O
  O14      1.0000 0.59583  0.41370  0.51608  Biso   1.000  O
  O15      1.0000 0.09583  0.08630  0.01608  Biso   1.000  O
  O16      1.0000 0.40417  0.58630  0.48392  Biso   1.000  O
  O17      1.0000 0.88176  0.20660  0.04736  Biso   1.000  O
  O18      1.0000 0.61824  0.70660  0.45264  Biso   1.000  O
  O19      1.0000 0.11824  0.79340  0.95264  Biso   1.000  O
  O20      1.0000 0.38176  0.29340  0.54736  Biso   1.000  O
  O21      1.0000 0.85790  0.15520  0.18603  Biso   1.000  O
  O22      1.0000 0.64210  0.65520  0.31397  Biso   1.000  O
  O23      1.0000 0.14210  0.84480  0.81397  Biso   1.000  O
  O24      1.0000 0.35790  0.34480  0.68603  Biso   1.000  O
  O25      1.0000 0.18660  0.83720  0.09317  Biso   1.000  O
  O26      1.0000 0.31340  0.33720  0.40683  Biso   1.000  O
  O27      1.0000 0.81340  0.16280  0.90683  Biso   1.000  O
  O28      1.0000 0.68660  0.66280  0.59317  Biso   1.000  O
  O29      1.0000 0.80960  0.27450  0.29764  Biso   1.000  O
  O30      1.0000 0.69040  0.77450  0.20236  Biso   1.000  O
  O31      1.0000 0.19040  0.72550  0.70236  Biso   1.000  O
  O32      1.0000 0.30960  0.22550  0.79764  Biso   1.000  O
  C1       1.0000 0.55440  0.72400  0.94768  Biso   1.000  C
  C2       1.0000 0.94560  0.22400  0.55232  Biso   1.000  C
  C3       1.0000 0.44560  0.27600  0.05232  Biso   1.000  C
  C4       1.0000 0.05440  0.77600  0.44768  Biso   1.000  C
  O33      1.0000 0.96990  0.41930  0.14018  Biso   1.000  O
  O34      1.0000 0.53010  0.91930  0.35982  Biso   1.000  O
  O35      1.0000 0.03010  0.58070  0.85982  Biso   1.000  O
  O36      1.0000 0.46990  0.08070  0.64018  Biso   1.000  O
  O37      1.0000 0.01520  0.37910  0.27971  Biso   1.000  O
  O38      1.0000 0.48480  0.87910  0.22029  Biso   1.000  O
  O39      1.0000 0.98480  0.62090  0.72029  Biso   1.000  O
  O40      1.0000 0.51520  0.12090  0.77971  Biso   1.000  O
  C5       1.0000 0.57560  0.64530  0.82790  Biso   1.000  C
  C6       1.0000 0.92440  0.14530  0.67210  Biso   1.000  C
  C7       1.0000 0.42440  0.35470  0.17210  Biso   1.000  C
  C8       1.0000 0.07560  0.85470  0.32790  Biso   1.000  C
  C9       1.0000 0.43340  0.77810  0.05620  Biso   1.000  C
  C10      1.0000 0.06660  0.27810  0.44380  Biso   1.000  C
  C11      1.0000 0.56660  0.22190  0.94380  Biso   1.000  C
  C12      1.0000 0.93340  0.72190  0.55620  Biso   1.000  C
  C13      1.0000 0.61970  0.70350  0.89154  Biso   1.000  C
  C14      1.0000 0.88030  0.20350  0.60846  Biso   1.000  C
  C15      1.0000 0.38030  0.29650  0.10846  Biso   1.000  C
  C16      1.0000 0.11970  0.79650  0.39154  Biso   1.000  C
  C17      1.0000 0.44500  0.68330  0.93970  Biso   1.000  C
  C18      1.0000 0.05500  0.18330  0.56030  Biso   1.000  C
  C19      1.0000 0.55500  0.31670  0.06030  Biso   1.000  C
  C20      1.0000 0.94500  0.81670  0.43970  Biso   1.000  C
  C21      1.0000 0.54230  0.81690  0.05990  Biso   1.000  C
  C22      1.0000 0.95770  0.31690  0.44010  Biso   1.000  C
  C23      1.0000 0.45770  0.18310  0.94010  Biso   1.000  C
  C24      1.0000 0.04230  0.68310  0.55990  Biso   1.000  C
  O41      1.0000 0.85520  0.57530  0.23410  Biso   1.000  O
  O42      1.0000 0.64480  0.07530  0.26590  Biso   1.000  O
  O43      1.0000 0.14480  0.42470  0.76590  Biso   1.000  O
  O44      1.0000 0.35520  0.92470  0.73410  Biso   1.000  O
  C25      1.0000 0.38480  0.71240  0.99720  Biso   1.000  C
  C26      1.0000 0.11520  0.21240  0.50280  Biso   1.000  C
  C27      1.0000 0.61520  0.28760  0.00280  Biso   1.000  C
  C28      1.0000 0.88480  0.78760  0.49720  Biso   1.000  C
  C29      1.0000 0.78770  0.72960  0.85210  Biso   1.000  C
  C30      1.0000 0.71230  0.22960  0.64790  Biso   1.000  C
  C31      1.0000 0.21230  0.27040  0.14790  Biso   1.000  C
  C32      1.0000 0.28770  0.77040  0.35210  Biso   1.000  C
  C33      1.0000 0.40260  0.61930  0.87480  Biso   1.000  C
  C34      1.0000 0.09740  0.11930  0.62520  Biso   1.000  C
  C35      1.0000 0.59740  0.38070  0.12520  Biso   1.000  C
  C36      1.0000 0.90260  0.88070  0.37480  Biso   1.000  C
  C37      1.0000 0.46410  0.60200  0.82080  Biso   1.000  C
  C38      1.0000 0.03590  0.10200  0.67920  Biso   1.000  C
  C39      1.0000 0.53590  0.39800  0.17920  Biso   1.000  C
  C40      1.0000 0.96410  0.89800  0.32080  Biso   1.000  C
  C41      1.0000 0.75060  0.67280  0.78680  Biso   1.000  C
  C42      1.0000 0.74940  0.17280  0.71320  Biso   1.000  C
  C43      1.0000 0.24940  0.32720  0.21320  Biso   1.000  C
  C44      1.0000 0.25060  0.82720  0.28680  Biso   1.000  C
  C45      1.0000 0.64530  0.63120  0.77430  Biso   1.000  C
  C46      1.0000 0.85470  0.13120  0.72570  Biso   1.000  C
  C47      1.0000 0.35470  0.36880  0.22570  Biso   1.000  C
  C48      1.0000 0.14530  0.86880  0.27430  Biso   1.000  C
  H1       1.0000 0.58500  0.87300  0.10300  Biso   1.000  H
  H2       1.0000 0.91500  0.37300  0.39700  Biso   1.000  H
  H3       1.0000 0.41500  0.12700  0.89700  Biso   1.000  H
  H4       1.0000 0.08500  0.62700  0.60300  Biso   1.000  H
  H5       1.0000 0.85800  0.76400  0.85900  Biso   1.000  H
  H6       1.0000 0.64200  0.26400  0.64100  Biso   1.000  H
  H7       1.0000 0.14200  0.23600  0.14100  Biso   1.000  H
  H8       1.0000 0.35800  0.73600  0.35900  Biso   1.000  H
  H9       1.0000 0.79600  0.67000  0.75000  Biso   1.000  H
  H10      1.0000 0.70400  0.17000  0.75000  Biso   1.000  H
  H11      1.0000 0.20400  0.33000  0.25000  Biso   1.000  H
  H12      1.0000 0.29600  0.83000  0.25000  Biso   1.000  H
  H13      1.0000 0.61500  0.58400  0.73400  Biso   1.000  H
  H14      1.0000 0.88500  0.08400  0.76600  Biso   1.000  H
  H15      1.0000 0.38500  0.41600  0.26600  Biso   1.000  H
  H16      1.0000 0.11500  0.91600  0.23400  Biso   1.000  H
  H17      1.0000 0.40300  0.80800  0.09600  Biso   1.000  H
  H18      1.0000 0.09700  0.30800  0.40400  Biso   1.000  H
  H19      1.0000 0.59700  0.19200  0.90400  Biso   1.000  H
  H20      1.0000 0.90300  0.69200  0.59600  Biso   1.000  H
  H21      1.0000 0.43500  0.55600  0.78100  Biso   1.000  H
  H22      1.0000 0.06500  0.05600  0.71900  Biso   1.000  H
  H23      1.0000 0.56500  0.44400  0.21900  Biso   1.000  H
  H24      1.0000 0.93500  0.94400  0.28100  Biso   1.000  H
  H25      1.0000 0.32200  0.68900  0.99300  Biso   1.000  H
  H26      1.0000 0.17800  0.18900  0.50700  Biso   1.000  H
  H27      1.0000 0.67800  0.31100  0.00700  Biso   1.000  H
  H28      1.0000 0.82200  0.81100  0.49300  Biso   1.000  H
  O45      1.0000 0.81853  0.55900  0.05104  Biso   1.000  O
  O46      1.0000 0.68147  0.05900  0.44896  Biso   1.000  O
  O47      1.0000 0.18147  0.44100  0.94896  Biso   1.000  O
  O48      1.0000 0.31853  0.94100  0.55104  Biso   1.000  O
  H29      1.0000 0.77800  0.34400  0.32300  Biso   1.000  H
  H30      1.0000 0.72200  0.84400  0.17700  Biso   1.000  H
  H31      1.0000 0.22200  0.65600  0.67700  Biso   1.000  H
  H32      1.0000 0.27800  0.15600  0.82300  Biso   1.000  H
  H33      1.0000 0.33500  0.59300  0.87300  Biso   1.000  H
  H34      1.0000 0.16500  0.09300  0.62700  Biso   1.000  H
  H35      1.0000 0.66500  0.40700  0.12700  Biso   1.000  H
  H36      1.0000 0.83500  0.90700  0.37300  Biso   1.000  H
  H37      1.0000 0.76200  0.20500  0.28400  Biso   1.000  H
  H38      1.0000 0.73800  0.70500  0.21600  Biso   1.000  H
  H39      1.0000 0.23800  0.79500  0.71600  Biso   1.000  H
  H40      1.0000 0.26200  0.29500  0.78400  Biso   1.000  H
