data_image0
_cell_length_a       13.023
_cell_length_b       10.525
_cell_length_c       14.555
_cell_angle_alpha    90
_cell_angle_beta     95.706
_cell_angle_gamma    90

_symmetry_space_group_name_H-M    "P 1"
_symmetry_int_tables_number       1

loop_
  _symmetry_equiv_pos_as_xyz
  'x, y, z'

loop_
  _atom_site_label
  _atom_site_occupancy
  _atom_site_fract_x
  _atom_site_fract_y
  _atom_site_fract_z
  _atom_site_thermal_displace_type
  _atom_site_B_iso_or_equiv
  _atom_site_type_symbol
  F1       1.0000 0.66510  0.37900  0.76320  Biso   1.000  F
  F2       1.0000 0.83490  0.87900  0.73680  Biso   1.000  F
  F3       1.0000 0.33490  0.62100  0.23680  Biso   1.000  F
  F4       1.0000 0.16510  0.12100  0.26320  Biso   1.000  F
  F5       1.0000 0.64230  0.18500  0.72860  Biso   1.000  F
  F6       1.0000 0.85770  0.68500  0.77140  Biso   1.000  F
  F7       1.0000 0.35770  0.81500  0.27140  Biso   1.000  F
  F8       1.0000 0.14230  0.31500  0.22860  Biso   1.000  F
  F9       1.0000 0.78610  0.24580  0.79720  Biso   1.000  F
  F10      1.0000 0.71390  0.74580  0.70280  Biso   1.000  F
  F11      1.0000 0.21390  0.75420  0.20280  Biso   1.000  F
  F12      1.0000 0.28610  0.25420  0.29720  Biso   1.000  F
  Cu1      1.0000 0.85859  0.50966  0.22045  Biso   1.000  Cu
  Cu2      1.0000 0.64141  0.00966  0.27955  Biso   1.000  Cu
  Cu3      1.0000 0.14141  0.49034  0.77955  Biso   1.000  Cu
  Cu4      1.0000 0.35859  0.99034  0.72045  Biso   1.000  Cu
  O1       1.0000 0.80730  0.41850  0.32170  Biso   1.000  O
  O2       1.0000 0.69270  0.91850  0.17830  Biso   1.000  O
  O3       1.0000 0.19270  0.58150  0.67830  Biso   1.000  O
  O4       1.0000 0.30730  0.08150  0.82170  Biso   1.000  O
  O5       1.0000 0.96840  0.37240  0.38110  Biso   1.000  O
  O6       1.0000 0.53160  0.87240  0.11890  Biso   1.000  O
  O7       1.0000 0.03160  0.62760  0.61890  Biso   1.000  O
  O8       1.0000 0.46840  0.12760  0.88110  Biso   1.000  O
  O9       1.0000 0.63780  0.11580  0.39140  Biso   1.000  O
  O10      1.0000 0.86220  0.61580  0.10860  Biso   1.000  O
  O11      1.0000 0.36220  0.88420  0.60860  Biso   1.000  O
  O12      1.0000 0.13780  0.38420  0.89140  Biso   1.000  O
  O13      1.0000 0.79780  0.11740  0.35420  Biso   1.000  O
  O14      1.0000 0.70220  0.61740  0.14580  Biso   1.000  O
  O15      1.0000 0.20220  0.88260  0.64580  Biso   1.000  O
  O16      1.0000 0.29780  0.38260  0.85420  Biso   1.000  O
  N1       1.0000 0.88360  0.35480  0.14680  Biso   1.000  N
  N2       1.0000 0.61640  0.85480  0.35320  Biso   1.000  N
  N3       1.0000 0.11640  0.64520  0.85320  Biso   1.000  N
  N4       1.0000 0.38360  0.14520  0.64680  Biso   1.000  N
  N5       1.0000 0.90210  0.66290  0.29610  Biso   1.000  N
  N6       1.0000 0.59790  0.16290  0.20390  Biso   1.000  N
  N7       1.0000 0.09790  0.33710  0.70390  Biso   1.000  N
  N8       1.0000 0.40210  0.83710  0.79610  Biso   1.000  N
  C1       1.0000 0.83030  0.34400  0.47460  Biso   1.000  C
  C2       1.0000 0.66970  0.84400  0.02540  Biso   1.000  C
  C3       1.0000 0.16970  0.65600  0.52540  Biso   1.000  C
  C4       1.0000 0.33030  0.15600  0.97460  Biso   1.000  C
  C5       1.0000 0.76260  0.24270  0.48340  Biso   1.000  C
  C6       1.0000 0.73740  0.74270  0.01660  Biso   1.000  C
  C7       1.0000 0.23740  0.75730  0.51660  Biso   1.000  C
  C8       1.0000 0.26260  0.25730  0.98340  Biso   1.000  C
  C9       1.0000 0.72060  0.22020  0.56740  Biso   1.000  C
  C10      1.0000 0.77940  0.72020  0.93260  Biso   1.000  C
  C11      1.0000 0.27940  0.77980  0.43260  Biso   1.000  C
  C12      1.0000 0.22060  0.27980  0.06740  Biso   1.000  C
  H1       1.0000 0.67490  0.15360  0.57380  Biso   1.000  H
  H2       1.0000 0.82510  0.65360  0.92620  Biso   1.000  H
  H3       1.0000 0.32510  0.84640  0.42620  Biso   1.000  H
  H4       1.0000 0.17490  0.34640  0.07380  Biso   1.000  H
  C13      1.0000 0.74990  0.30060  0.63940  Biso   1.000  C
  C14      1.0000 0.75010  0.80060  0.86060  Biso   1.000  C
  C15      1.0000 0.25010  0.69940  0.36060  Biso   1.000  C
  C16      1.0000 0.24990  0.19940  0.13940  Biso   1.000  C
  C17      1.0000 0.81850  0.39510  0.63250  Biso   1.000  C
  C18      1.0000 0.68150  0.89510  0.86750  Biso   1.000  C
  C19      1.0000 0.18150  0.60490  0.36750  Biso   1.000  C
  C20      1.0000 0.31850  0.10490  0.13250  Biso   1.000  C
  H5       1.0000 0.83760  0.44580  0.68360  Biso   1.000  H
  H6       1.0000 0.66240  0.94580  0.81640  Biso   1.000  H
  H7       1.0000 0.16240  0.55420  0.31640  Biso   1.000  H
  H8       1.0000 0.33760  0.05420  0.18360  Biso   1.000  H
  C21      1.0000 0.86100  0.41800  0.55040  Biso   1.000  C
  C22      1.0000 0.63900  0.91800  0.94960  Biso   1.000  C
  C23      1.0000 0.13900  0.58200  0.44960  Biso   1.000  C
  C24      1.0000 0.36100  0.08200  0.05040  Biso   1.000  C
  H9       1.0000 0.90940  0.48220  0.54660  Biso   1.000  H
  H10      1.0000 0.59060  0.98220  0.95340  Biso   1.000  H
  H11      1.0000 0.09060  0.51780  0.45340  Biso   1.000  H
  H12      1.0000 0.40940  0.01780  0.04660  Biso   1.000  H
  C25      1.0000 0.87380  0.37660  0.38560  Biso   1.000  C
  C26      1.0000 0.62620  0.87660  0.11440  Biso   1.000  C
  C27      1.0000 0.12620  0.62340  0.61440  Biso   1.000  C
  C28      1.0000 0.37380  0.12340  0.88560  Biso   1.000  C
  C29      1.0000 0.73280  0.15220  0.40320  Biso   1.000  C
  C30      1.0000 0.76720  0.65220  0.09680  Biso   1.000  C
  C31      1.0000 0.26720  0.84780  0.59680  Biso   1.000  C
  C32      1.0000 0.23280  0.34780  0.90320  Biso   1.000  C
  C33      1.0000 0.71320  0.27860  0.73190  Biso   1.000  C
  C34      1.0000 0.78680  0.77860  0.76810  Biso   1.000  C
  C35      1.0000 0.28680  0.72140  0.26810  Biso   1.000  C
  C36      1.0000 0.21320  0.22140  0.23190  Biso   1.000  C
  C37      1.0000 0.87680  0.68270  0.38170  Biso   1.000  C
  C38      1.0000 0.62320  0.18270  0.11830  Biso   1.000  C
  C39      1.0000 0.12320  0.31730  0.61830  Biso   1.000  C
  C40      1.0000 0.37680  0.81730  0.88170  Biso   1.000  C
  H13      1.0000 0.83400  0.62410  0.40680  Biso   1.000  H
  H14      1.0000 0.66600  0.12410  0.09320  Biso   1.000  H
  H15      1.0000 0.16600  0.37590  0.59320  Biso   1.000  H
  H16      1.0000 0.33400  0.87590  0.90680  Biso   1.000  H
  C41      1.0000 0.91250  0.78990  0.43660  Biso   1.000  C
  C42      1.0000 0.58750  0.28990  0.06340  Biso   1.000  C
  C43      1.0000 0.08750  0.21010  0.56340  Biso   1.000  C
  C44      1.0000 0.41250  0.71010  0.93660  Biso   1.000  C
  H17      1.0000 0.89570  0.79840  0.49700  Biso   1.000  H
  H18      1.0000 0.60430  0.29840  0.00300  Biso   1.000  H
  H19      1.0000 0.10430  0.20160  0.50300  Biso   1.000  H
  H20      1.0000 0.39570  0.70160  0.99700  Biso   1.000  H
  C45      1.0000 0.97150  0.87930  0.39880  Biso   1.000  C
  C46      1.0000 0.52850  0.37930  0.10120  Biso   1.000  C
  C47      1.0000 0.02850  0.12070  0.60120  Biso   1.000  C
  C48      1.0000 0.47150  0.62070  0.89880  Biso   1.000  C
  C49      1.0000 0.99630  0.85780  0.31200  Biso   1.000  C
  C50      1.0000 0.50370  0.35780  0.18800  Biso   1.000  C
  C51      1.0000 0.00370  0.14220  0.68800  Biso   1.000  C
  C52      1.0000 0.49630  0.64220  0.81200  Biso   1.000  C
  H21      1.0000 0.03810  0.91510  0.28460  Biso   1.000  H
  H22      1.0000 0.46190  0.41510  0.21540  Biso   1.000  H
  H23      1.0000 0.96190  0.08490  0.71540  Biso   1.000  H
  H24      1.0000 0.53810  0.58490  0.78460  Biso   1.000  H
  C53      1.0000 0.96030  0.75270  0.26460  Biso   1.000  C
  C54      1.0000 0.53970  0.25270  0.23540  Biso   1.000  C
  C55      1.0000 0.03970  0.24730  0.73540  Biso   1.000  C
  C56      1.0000 0.46030  0.74730  0.76460  Biso   1.000  C
  H25      1.0000 0.97830  0.74320  0.20470  Biso   1.000  H
  H26      1.0000 0.52170  0.24320  0.29530  Biso   1.000  H
  H27      1.0000 0.02170  0.25680  0.79530  Biso   1.000  H
  H28      1.0000 0.47830  0.75680  0.70470  Biso   1.000  H
  C57      1.0000 0.01460  0.99520  0.45340  Biso   1.000  C
  C58      1.0000 0.48540  0.49520  0.04660  Biso   1.000  C
  C59      1.0000 0.98540  0.00480  0.54660  Biso   1.000  C
  C60      1.0000 0.51460  0.50480  0.95340  Biso   1.000  C
  H29      1.0000 0.08930  0.99290  0.45630  Biso   1.000  H
  H30      1.0000 0.41070  0.49290  0.04370  Biso   1.000  H
  H31      1.0000 0.91070  0.00710  0.54370  Biso   1.000  H
  H32      1.0000 0.58930  0.50710  0.95630  Biso   1.000  H
  H33      1.0000 0.99160  0.07130  0.41980  Biso   1.000  H
  H34      1.0000 0.50840  0.57130  0.08020  Biso   1.000  H
  H35      1.0000 0.00840  0.92870  0.58020  Biso   1.000  H
  H36      1.0000 0.49160  0.42870  0.91980  Biso   1.000  H
  C61      1.0000 0.87260  0.23810  0.17950  Biso   1.000  C
  C62      1.0000 0.62740  0.73810  0.32050  Biso   1.000  C
  C63      1.0000 0.12740  0.76190  0.82050  Biso   1.000  C
  C64      1.0000 0.37260  0.26190  0.67950  Biso   1.000  C
  H37      1.0000 0.85170  0.22980  0.23850  Biso   1.000  H
  H38      1.0000 0.64830  0.72980  0.26150  Biso   1.000  H
  H39      1.0000 0.14830  0.77020  0.76150  Biso   1.000  H
  H40      1.0000 0.35170  0.27020  0.73850  Biso   1.000  H
  C65      1.0000 0.89030  0.12820  0.13140  Biso   1.000  C
  C66      1.0000 0.60970  0.62820  0.36860  Biso   1.000  C
  C67      1.0000 0.10970  0.87180  0.86860  Biso   1.000  C
  C68      1.0000 0.39030  0.37180  0.63140  Biso   1.000  C
  H41      1.0000 0.88020  0.04920  0.15770  Biso   1.000  H
  H42      1.0000 0.61980  0.54920  0.34230  Biso   1.000  H
  H43      1.0000 0.11980  0.95080  0.84230  Biso   1.000  H
  H44      1.0000 0.38020  0.45080  0.65770  Biso   1.000  H
  C69      1.0000 0.92270  0.13610  0.04510  Biso   1.000  C
  C70      1.0000 0.57730  0.63610  0.45490  Biso   1.000  C
  C71      1.0000 0.07730  0.86390  0.95490  Biso   1.000  C
  C72      1.0000 0.42270  0.36390  0.54510  Biso   1.000  C
  C73      1.0000 0.93350  0.25360  0.01170  Biso   1.000  C
  C74      1.0000 0.56650  0.75360  0.48830  Biso   1.000  C
  C75      1.0000 0.06650  0.74640  0.98830  Biso   1.000  C
  C76      1.0000 0.43350  0.24640  0.51170  Biso   1.000  C
  H45      1.0000 0.95430  0.26350  0.95280  Biso   1.000  H
  H46      1.0000 0.54570  0.76350  0.54720  Biso   1.000  H
  H47      1.0000 0.04570  0.73650  0.04720  Biso   1.000  H
  H48      1.0000 0.45430  0.23650  0.45280  Biso   1.000  H
  C77      1.0000 0.91450  0.36060  0.06300  Biso   1.000  C
  C78      1.0000 0.58550  0.86060  0.43700  Biso   1.000  C
  C79      1.0000 0.08550  0.63940  0.93700  Biso   1.000  C
  C80      1.0000 0.41450  0.13940  0.56300  Biso   1.000  C
  H49      1.0000 0.92390  0.44020  0.03740  Biso   1.000  H
  H50      1.0000 0.57610  0.94020  0.46260  Biso   1.000  H
  H51      1.0000 0.07610  0.55980  0.96260  Biso   1.000  H
  H52      1.0000 0.42390  0.05980  0.53740  Biso   1.000  H
  C81      1.0000 0.94450  0.01840  0.99230  Biso   1.000  C
  C82      1.0000 0.55550  0.51840  0.50770  Biso   1.000  C
  C83      1.0000 0.05550  0.98160  0.00770  Biso   1.000  C
  C84      1.0000 0.44450  0.48160  0.49230  Biso   1.000  C
  H53      1.0000 0.90220  0.94920  0.01130  Biso   1.000  H
  H54      1.0000 0.59780  0.44920  0.48870  Biso   1.000  H
  H55      1.0000 0.09780  0.05080  0.98870  Biso   1.000  H
  H56      1.0000 0.40220  0.55080  0.51130  Biso   1.000  H
  H57      1.0000 0.92610  0.03310  0.92690  Biso   1.000  H
  H58      1.0000 0.57390  0.53310  0.57310  Biso   1.000  H
  H59      1.0000 0.07390  0.96690  0.07310  Biso   1.000  H
  H60      1.0000 0.42610  0.46690  0.42690  Biso   1.000  H
  F13      1.0000 0.75390  0.36490  0.79300  Biso   1.000  F
  F14      1.0000 0.74610  0.86490  0.70700  Biso   1.000  F
  F15      1.0000 0.24610  0.63510  0.20700  Biso   1.000  F
  F16      1.0000 0.25390  0.13510  0.29300  Biso   1.000  F
  F17      1.0000 0.61230  0.28600  0.73300  Biso   1.000  F
  F18      1.0000 0.88770  0.78600  0.76700  Biso   1.000  F
  F19      1.0000 0.38770  0.71400  0.26700  Biso   1.000  F
  F20      1.0000 0.11230  0.21400  0.23300  Biso   1.000  F
  F21      1.0000 0.74350  0.16690  0.76820  Biso   1.000  F
  F22      1.0000 0.75650  0.66690  0.73180  Biso   1.000  F
  F23      1.0000 0.25650  0.83310  0.23180  Biso   1.000  F
  F24      1.0000 0.24350  0.33310  0.26820  Biso   1.000  F
