data_image0
_cell_length_a       14.162
_cell_length_b       13.601
_cell_length_c       10.898
_cell_angle_alpha    90
_cell_angle_beta     90
_cell_angle_gamma    90

_symmetry_space_group_name_H-M    "P 1"
_symmetry_int_tables_number       1

loop_
  _symmetry_equiv_pos_as_xyz
  'x, y, z'

loop_
  _atom_site_label
  _atom_site_occupancy
  _atom_site_fract_x
  _atom_site_fract_y
  _atom_site_fract_z
  _atom_site_thermal_displace_type
  _atom_site_B_iso_or_equiv
  _atom_site_type_symbol
  Cu1      1.0000 0.02834  0.87085  0.72098  Biso   1.000  Cu
  Cu2      1.0000 0.97166  0.12915  0.22098  Biso   1.000  Cu
  Cu3      1.0000 0.52834  0.62915  0.72098  Biso   1.000  Cu
  Cu4      1.0000 0.47166  0.37085  0.22098  Biso   1.000  Cu
  N1       1.0000 0.45570  0.68909  0.86330  Biso   1.000  N
  N2       1.0000 0.54430  0.31091  0.36330  Biso   1.000  N
  N3       1.0000 0.95570  0.81091  0.86330  Biso   1.000  N
  N4       1.0000 0.04430  0.18909  0.36330  Biso   1.000  N
  N5       1.0000 0.11609  0.85501  0.57520  Biso   1.000  N
  N6       1.0000 0.88391  0.14499  0.07520  Biso   1.000  N
  N7       1.0000 0.61609  0.64499  0.57520  Biso   1.000  N
  N8       1.0000 0.38391  0.35501  0.07520  Biso   1.000  N
  O1       1.0000 0.91351  0.86572  0.62194  Biso   1.000  O
  O2       1.0000 0.08649  0.13428  0.12194  Biso   1.000  O
  O3       1.0000 0.41351  0.63428  0.62194  Biso   1.000  O
  O4       1.0000 0.58649  0.36572  0.12194  Biso   1.000  O
  O5       1.0000 0.90840  0.02918  0.62930  Biso   1.000  O
  O6       1.0000 0.09160  0.97082  0.12930  Biso   1.000  O
  O7       1.0000 0.40840  0.47082  0.62930  Biso   1.000  O
  O8       1.0000 0.59160  0.52918  0.12930  Biso   1.000  O
  O9       1.0000 0.86372  0.09279  0.32446  Biso   1.000  O
  O10      1.0000 0.13628  0.90721  0.82446  Biso   1.000  O
  O11      1.0000 0.36372  0.40721  0.32446  Biso   1.000  O
  O12      1.0000 0.63628  0.59279  0.82446  Biso   1.000  O
  O13      1.0000 0.92087  0.94112  0.31410  Biso   1.000  O
  O14      1.0000 0.07913  0.05888  0.81410  Biso   1.000  O
  O15      1.0000 0.42087  0.55888  0.31410  Biso   1.000  O
  O16      1.0000 0.57913  0.44112  0.81410  Biso   1.000  O
  C1       1.0000 0.87484  0.94950  0.60270  Biso   1.000  C
  C2       1.0000 0.12516  0.05050  0.10270  Biso   1.000  C
  C3       1.0000 0.37484  0.55050  0.60270  Biso   1.000  C
  C4       1.0000 0.62516  0.44950  0.10270  Biso   1.000  C
  C5       1.0000 0.78007  0.94520  0.53780  Biso   1.000  C
  C6       1.0000 0.21993  0.05480  0.03780  Biso   1.000  C
  C7       1.0000 0.28007  0.55480  0.53780  Biso   1.000  C
  C8       1.0000 0.71993  0.44520  0.03780  Biso   1.000  C
  C9       1.0000 0.69806  0.92160  0.60230  Biso   1.000  C
  C10      1.0000 0.30194  0.07840  0.10230  Biso   1.000  C
  C11      1.0000 0.19806  0.57840  0.60230  Biso   1.000  C
  C12      1.0000 0.80194  0.42160  0.10230  Biso   1.000  C
  C13      1.0000 0.61277  0.91090  0.54250  Biso   1.000  C
  C14      1.0000 0.38723  0.08910  0.04250  Biso   1.000  C
  C15      1.0000 0.11277  0.58910  0.54250  Biso   1.000  C
  C16      1.0000 0.88723  0.41090  0.04250  Biso   1.000  C
  C17      1.0000 0.60798  0.92430  0.41630  Biso   1.000  C
  C18      1.0000 0.39202  0.07570  0.91630  Biso   1.000  C
  C19      1.0000 0.10798  0.57570  0.41630  Biso   1.000  C
  C20      1.0000 0.89202  0.42430  0.91630  Biso   1.000  C
  C21      1.0000 0.68870  0.95200  0.35220  Biso   1.000  C
  C22      1.0000 0.31130  0.04800  0.85220  Biso   1.000  C
  C23      1.0000 0.18870  0.54800  0.35220  Biso   1.000  C
  C24      1.0000 0.81130  0.45200  0.85220  Biso   1.000  C
  C25      1.0000 0.77400  0.96520  0.41320  Biso   1.000  C
  C26      1.0000 0.22600  0.03480  0.91320  Biso   1.000  C
  C27      1.0000 0.27400  0.53480  0.41320  Biso   1.000  C
  C28      1.0000 0.72600  0.46520  0.91320  Biso   1.000  C
  C29      1.0000 0.86078  0.99970  0.34360  Biso   1.000  C
  C30      1.0000 0.13922  0.00030  0.84360  Biso   1.000  C
  C31      1.0000 0.36078  0.50030  0.34360  Biso   1.000  C
  C32      1.0000 0.63922  0.49970  0.84360  Biso   1.000  C
  C33      1.0000 0.38165  0.74850  0.84490  Biso   1.000  C
  C34      1.0000 0.61835  0.25150  0.34490  Biso   1.000  C
  C35      1.0000 0.88165  0.75150  0.84490  Biso   1.000  C
  C36      1.0000 0.11835  0.24850  0.34490  Biso   1.000  C
  H1       1.0000 0.36650  0.76590  0.76470  Biso   1.000  H
  H2       1.0000 0.63350  0.23410  0.26470  Biso   1.000  H
  H3       1.0000 0.86650  0.73410  0.76470  Biso   1.000  H
  H4       1.0000 0.13350  0.26590  0.26470  Biso   1.000  H
  C37      1.0000 0.32700  0.78490  0.93850  Biso   1.000  C
  C38      1.0000 0.67300  0.21510  0.43850  Biso   1.000  C
  C39      1.0000 0.82700  0.71510  0.93850  Biso   1.000  C
  C40      1.0000 0.17300  0.28490  0.43850  Biso   1.000  C
  H5       1.0000 0.27610  0.82560  0.92040  Biso   1.000  H
  H6       1.0000 0.72390  0.17440  0.42040  Biso   1.000  H
  H7       1.0000 0.77610  0.67440  0.92040  Biso   1.000  H
  H8       1.0000 0.22390  0.32560  0.42040  Biso   1.000  H
  C41      1.0000 0.34670  0.76180  0.05860  Biso   1.000  C
  C42      1.0000 0.65330  0.23820  0.55860  Biso   1.000  C
  C43      1.0000 0.84670  0.73820  0.05860  Biso   1.000  C
  C44      1.0000 0.15330  0.26180  0.55860  Biso   1.000  C
  C45      1.0000 0.42550  0.70250  0.07830  Biso   1.000  C
  C46      1.0000 0.57450  0.29750  0.57830  Biso   1.000  C
  C47      1.0000 0.92550  0.79750  0.07830  Biso   1.000  C
  C48      1.0000 0.07450  0.20250  0.57830  Biso   1.000  C
  H9       1.0000 0.44350  0.68570  0.15760  Biso   1.000  H
  H10      1.0000 0.55650  0.31430  0.65760  Biso   1.000  H
  H11      1.0000 0.94350  0.81430  0.15760  Biso   1.000  H
  H12      1.0000 0.05650  0.18570  0.65760  Biso   1.000  H
  C49      1.0000 0.47640  0.66910  0.97940  Biso   1.000  C
  C50      1.0000 0.52360  0.33090  0.47940  Biso   1.000  C
  C51      1.0000 0.97640  0.83090  0.97940  Biso   1.000  C
  C52      1.0000 0.02360  0.16910  0.47940  Biso   1.000  C
  H13      1.0000 0.52890  0.62990  0.99480  Biso   1.000  H
  H14      1.0000 0.47110  0.37010  0.49480  Biso   1.000  H
  H15      1.0000 0.02890  0.87010  0.99480  Biso   1.000  H
  H16      1.0000 0.97110  0.12990  0.49480  Biso   1.000  H
  C53      1.0000 0.28490  0.79660  0.15890  Biso   1.000  C
  C54      1.0000 0.71510  0.20340  0.65890  Biso   1.000  C
  C55      1.0000 0.78490  0.70340  0.15890  Biso   1.000  C
  C56      1.0000 0.21510  0.29660  0.65890  Biso   1.000  C
  H17      1.0000 0.23250  0.83410  0.13720  Biso   1.000  H
  H18      1.0000 0.76750  0.16590  0.63720  Biso   1.000  H
  H19      1.0000 0.73250  0.66590  0.13720  Biso   1.000  H
  H20      1.0000 0.26750  0.33410  0.63720  Biso   1.000  H
  C57      1.0000 0.29800  0.77890  0.27690  Biso   1.000  C
  C58      1.0000 0.70200  0.22110  0.77690  Biso   1.000  C
  C59      1.0000 0.79800  0.72110  0.27690  Biso   1.000  C
  C60      1.0000 0.20200  0.27890  0.77690  Biso   1.000  C
  H21      1.0000 0.35200  0.74410  0.29850  Biso   1.000  H
  H22      1.0000 0.64800  0.25590  0.79850  Biso   1.000  H
  H23      1.0000 0.85200  0.75590  0.29850  Biso   1.000  H
  H24      1.0000 0.14800  0.24410  0.79850  Biso   1.000  H
  C61      1.0000 0.20518  0.82540  0.59290  Biso   1.000  C
  C62      1.0000 0.79482  0.17460  0.09290  Biso   1.000  C
  C63      1.0000 0.70518  0.67460  0.59290  Biso   1.000  C
  C64      1.0000 0.29482  0.32540  0.09290  Biso   1.000  C
  H25      1.0000 0.22780  0.82100  0.67280  Biso   1.000  H
  H26      1.0000 0.77220  0.17900  0.17280  Biso   1.000  H
  H27      1.0000 0.72780  0.67900  0.67280  Biso   1.000  H
  H28      1.0000 0.27220  0.32100  0.17280  Biso   1.000  H
  C65      1.0000 0.26460  0.80130  0.49760  Biso   1.000  C
  C66      1.0000 0.73540  0.19870  0.99760  Biso   1.000  C
  C67      1.0000 0.76460  0.69870  0.49760  Biso   1.000  C
  C68      1.0000 0.23540  0.30130  0.99760  Biso   1.000  C
  H29      1.0000 0.32540  0.77930  0.51430  Biso   1.000  H
  H30      1.0000 0.67460  0.22070  0.01430  Biso   1.000  H
  H31      1.0000 0.82540  0.72070  0.51430  Biso   1.000  H
  H32      1.0000 0.17460  0.27930  0.01430  Biso   1.000  H
  C69      1.0000 0.23475  0.80940  0.37760  Biso   1.000  C
  C70      1.0000 0.76525  0.19060  0.87760  Biso   1.000  C
  C71      1.0000 0.73475  0.69060  0.37760  Biso   1.000  C
  C72      1.0000 0.26525  0.30940  0.87760  Biso   1.000  C
  C73      1.0000 0.14310  0.84210  0.36020  Biso   1.000  C
  C74      1.0000 0.85690  0.15790  0.86020  Biso   1.000  C
  C75      1.0000 0.64310  0.65790  0.36020  Biso   1.000  C
  C76      1.0000 0.35690  0.34210  0.86020  Biso   1.000  C
  H33      1.0000 0.11940  0.84990  0.28120  Biso   1.000  H
  H34      1.0000 0.88060  0.15010  0.78120  Biso   1.000  H
  H35      1.0000 0.61940  0.65010  0.28120  Biso   1.000  H
  H36      1.0000 0.38060  0.34990  0.78120  Biso   1.000  H
  C77      1.0000 0.08720  0.86310  0.45980  Biso   1.000  C
  C78      1.0000 0.91280  0.13690  0.95980  Biso   1.000  C
  C79      1.0000 0.58720  0.63690  0.45980  Biso   1.000  C
  C80      1.0000 0.41280  0.36310  0.95980  Biso   1.000  C
  H37      1.0000 0.02570  0.88410  0.44560  Biso   1.000  H
  H38      1.0000 0.97430  0.11590  0.94560  Biso   1.000  H
  H39      1.0000 0.52570  0.61590  0.44560  Biso   1.000  H
  H40      1.0000 0.47430  0.38410  0.94560  Biso   1.000  H
  Cl1      1.0000 0.70457  0.90652  0.75945  Biso   1.000  Cl
  Cl2      1.0000 0.29543  0.09348  0.25945  Biso   1.000  Cl
  Cl3      1.0000 0.20457  0.59348  0.75945  Biso   1.000  Cl
  Cl4      1.0000 0.79543  0.40652  0.25945  Biso   1.000  Cl
  Cl5      1.0000 0.51327  0.87868  0.62348  Biso   1.000  Cl
  Cl6      1.0000 0.48673  0.12132  0.12348  Biso   1.000  Cl
  Cl7      1.0000 0.01327  0.62132  0.62348  Biso   1.000  Cl
  Cl8      1.0000 0.98673  0.37868  0.12348  Biso   1.000  Cl
  Cl9      1.0000 0.50328  0.90610  0.34016  Biso   1.000  Cl
  Cl10     1.0000 0.49672  0.09390  0.84016  Biso   1.000  Cl
  Cl11     1.0000 0.00328  0.59390  0.34016  Biso   1.000  Cl
  Cl12     1.0000 0.99672  0.40610  0.84016  Biso   1.000  Cl
  Cl13     1.0000 0.68430  0.96891  0.19597  Biso   1.000  Cl
  Cl14     1.0000 0.31570  0.03109  0.69597  Biso   1.000  Cl
  Cl15     1.0000 0.18430  0.53109  0.19597  Biso   1.000  Cl
  Cl16     1.0000 0.81570  0.46891  0.69597  Biso   1.000  Cl
