data_image0
_cell_length_a       13.567
_cell_length_b       11.779
_cell_length_c       11.206
_cell_angle_alpha    90
_cell_angle_beta     90
_cell_angle_gamma    90

_symmetry_space_group_name_H-M    "P 1"
_symmetry_int_tables_number       1

loop_
  _symmetry_equiv_pos_as_xyz
  'x, y, z'

loop_
  _atom_site_label
  _atom_site_occupancy
  _atom_site_fract_x
  _atom_site_fract_y
  _atom_site_fract_z
  _atom_site_thermal_displace_type
  _atom_site_B_iso_or_equiv
  _atom_site_type_symbol
  Cu1      1.0000 0.96580  0.36311  0.00323  Biso   1.000  Cu
  Cu2      1.0000 0.03420  0.63689  0.50323  Biso   1.000  Cu
  Cu3      1.0000 0.46580  0.13689  0.00323  Biso   1.000  Cu
  Cu4      1.0000 0.53420  0.86311  0.50323  Biso   1.000  Cu
  F1       1.0000 0.64657  0.48890  0.95800  Biso   1.000  F
  F2       1.0000 0.35343  0.51110  0.45800  Biso   1.000  F
  F3       1.0000 0.14657  0.01110  0.95800  Biso   1.000  F
  F4       1.0000 0.85343  0.98890  0.45800  Biso   1.000  F
  F5       1.0000 0.49255  0.55020  0.82130  Biso   1.000  F
  F6       1.0000 0.50745  0.44980  0.32130  Biso   1.000  F
  F7       1.0000 0.99255  0.94980  0.82130  Biso   1.000  F
  F8       1.0000 0.00745  0.05020  0.32130  Biso   1.000  F
  F9       1.0000 0.52051  0.60420  0.58900  Biso   1.000  F
  F10      1.0000 0.47949  0.39580  0.08900  Biso   1.000  F
  F11      1.0000 0.02051  0.89580  0.58900  Biso   1.000  F
  F12      1.0000 0.97949  0.10420  0.08900  Biso   1.000  F
  F13      1.0000 0.70113  0.59830  0.49460  Biso   1.000  F
  F14      1.0000 0.29887  0.40170  0.99460  Biso   1.000  F
  F15      1.0000 0.20113  0.90170  0.49460  Biso   1.000  F
  F16      1.0000 0.79887  0.09830  0.99460  Biso   1.000  F
  N1       1.0000 0.39000  0.14710  0.15850  Biso   1.000  N
  N2       1.0000 0.61000  0.85290  0.65850  Biso   1.000  N
  N3       1.0000 0.89000  0.35290  0.15850  Biso   1.000  N
  N4       1.0000 0.11000  0.64710  0.65850  Biso   1.000  N
  N5       1.0000 0.02970  0.30750  0.85090  Biso   1.000  N
  N6       1.0000 0.97030  0.69250  0.35090  Biso   1.000  N
  N7       1.0000 0.52970  0.19250  0.85090  Biso   1.000  N
  N8       1.0000 0.47030  0.80750  0.35090  Biso   1.000  N
  O1       1.0000 0.84136  0.37280  0.91410  Biso   1.000  O
  O2       1.0000 0.15864  0.62720  0.41410  Biso   1.000  O
  O3       1.0000 0.34136  0.12720  0.91410  Biso   1.000  O
  O4       1.0000 0.65864  0.87280  0.41410  Biso   1.000  O
  O5       1.0000 0.90391  0.54550  0.90300  Biso   1.000  O
  O6       1.0000 0.09609  0.45450  0.40300  Biso   1.000  O
  O7       1.0000 0.40391  0.95450  0.90300  Biso   1.000  O
  O8       1.0000 0.59609  0.04550  0.40300  Biso   1.000  O
  O9       1.0000 0.90444  0.63050  0.57780  Biso   1.000  O
  O10      1.0000 0.09556  0.36950  0.07780  Biso   1.000  O
  O11      1.0000 0.40444  0.86950  0.57780  Biso   1.000  O
  O12      1.0000 0.59556  0.13050  0.07780  Biso   1.000  O
  O13      1.0000 0.92286  0.44900  0.63180  Biso   1.000  O
  O14      1.0000 0.07714  0.55100  0.13180  Biso   1.000  O
  O15      1.0000 0.42286  0.05100  0.63180  Biso   1.000  O
  O16      1.0000 0.57714  0.94900  0.13180  Biso   1.000  O
  C1       1.0000 0.84170  0.47460  0.87590  Biso   1.000  C
  C2       1.0000 0.15830  0.52540  0.37590  Biso   1.000  C
  C3       1.0000 0.34170  0.02540  0.87590  Biso   1.000  C
  C4       1.0000 0.65830  0.97460  0.37590  Biso   1.000  C
  C5       1.0000 0.75680  0.50870  0.79590  Biso   1.000  C
  C6       1.0000 0.24320  0.49130  0.29590  Biso   1.000  C
  C7       1.0000 0.25680  0.99130  0.79590  Biso   1.000  C
  C8       1.0000 0.74320  0.00870  0.29590  Biso   1.000  C
  C9       1.0000 0.66260  0.51360  0.84170  Biso   1.000  C
  C10      1.0000 0.33740  0.48640  0.34170  Biso   1.000  C
  C11      1.0000 0.16260  0.98640  0.84170  Biso   1.000  C
  C12      1.0000 0.83740  0.01360  0.34170  Biso   1.000  C
  C13      1.0000 0.58410  0.54600  0.77400  Biso   1.000  C
  C14      1.0000 0.41590  0.45400  0.27400  Biso   1.000  C
  C15      1.0000 0.08410  0.95400  0.77400  Biso   1.000  C
  C16      1.0000 0.91590  0.04600  0.27400  Biso   1.000  C
  C17      1.0000 0.59790  0.57350  0.65740  Biso   1.000  C
  C18      1.0000 0.40210  0.42650  0.15740  Biso   1.000  C
  C19      1.0000 0.09790  0.92650  0.65740  Biso   1.000  C
  C20      1.0000 0.90210  0.07350  0.15740  Biso   1.000  C
  C21      1.0000 0.69210  0.57160  0.60980  Biso   1.000  C
  C22      1.0000 0.30790  0.42840  0.10980  Biso   1.000  C
  C23      1.0000 0.19210  0.92840  0.60980  Biso   1.000  C
  C24      1.0000 0.80790  0.07160  0.10980  Biso   1.000  C
  C25      1.0000 0.77200  0.53990  0.67720  Biso   1.000  C
  C26      1.0000 0.22800  0.46010  0.17720  Biso   1.000  C
  C27      1.0000 0.27200  0.96010  0.67720  Biso   1.000  C
  C28      1.0000 0.72800  0.03990  0.17720  Biso   1.000  C
  C29      1.0000 0.87590  0.53690  0.62480  Biso   1.000  C
  C30      1.0000 0.12410  0.46310  0.12480  Biso   1.000  C
  C31      1.0000 0.37590  0.96310  0.62480  Biso   1.000  C
  C32      1.0000 0.62410  0.03690  0.12480  Biso   1.000  C
  C33      1.0000 0.98160  0.23970  0.77570  Biso   1.000  C
  C34      1.0000 0.01840  0.76030  0.27570  Biso   1.000  C
  C35      1.0000 0.48160  0.26030  0.77570  Biso   1.000  C
  C36      1.0000 0.51840  0.73970  0.27570  Biso   1.000  C
  H1       1.0000 0.91960  0.21340  0.79810  Biso   1.000  H
  H2       1.0000 0.08040  0.78660  0.29810  Biso   1.000  H
  H3       1.0000 0.41960  0.28660  0.79810  Biso   1.000  H
  H4       1.0000 0.58040  0.71340  0.29810  Biso   1.000  H
  C37      1.0000 0.01830  0.20630  0.66690  Biso   1.000  C
  C38      1.0000 0.98170  0.79370  0.16690  Biso   1.000  C
  C39      1.0000 0.51830  0.29370  0.66690  Biso   1.000  C
  C40      1.0000 0.48170  0.70630  0.16690  Biso   1.000  C
  H5       1.0000 0.98170  0.15860  0.61770  Biso   1.000  H
  H6       1.0000 0.01830  0.84140  0.11770  Biso   1.000  H
  H7       1.0000 0.48170  0.34140  0.61770  Biso   1.000  H
  H8       1.0000 0.51830  0.65860  0.11770  Biso   1.000  H
  C41      1.0000 0.10990  0.24430  0.63150  Biso   1.000  C
  C42      1.0000 0.89010  0.75570  0.13150  Biso   1.000  C
  C43      1.0000 0.60990  0.25570  0.63150  Biso   1.000  C
  C44      1.0000 0.39010  0.74430  0.13150  Biso   1.000  C
  C45      1.0000 0.15970  0.31530  0.70790  Biso   1.000  C
  C46      1.0000 0.84030  0.68470  0.20790  Biso   1.000  C
  C47      1.0000 0.65970  0.18470  0.70790  Biso   1.000  C
  C48      1.0000 0.34030  0.81530  0.20790  Biso   1.000  C
  H9       1.0000 0.22150  0.34300  0.68690  Biso   1.000  H
  H10      1.0000 0.77850  0.65700  0.18690  Biso   1.000  H
  H11      1.0000 0.72150  0.15700  0.68690  Biso   1.000  H
  H12      1.0000 0.27850  0.84300  0.18690  Biso   1.000  H
  C49      1.0000 0.11760  0.34620  0.81720  Biso   1.000  C
  C50      1.0000 0.88240  0.65380  0.31720  Biso   1.000  C
  C51      1.0000 0.61760  0.15380  0.81720  Biso   1.000  C
  C52      1.0000 0.38240  0.84620  0.31720  Biso   1.000  C
  H13      1.0000 0.15180  0.39490  0.86760  Biso   1.000  H
  H14      1.0000 0.84820  0.60510  0.36760  Biso   1.000  H
  H15      1.0000 0.65180  0.10510  0.86760  Biso   1.000  H
  H16      1.0000 0.34820  0.89490  0.36760  Biso   1.000  H
  C53      1.0000 0.15150  0.21300  0.51340  Biso   1.000  C
  C54      1.0000 0.84850  0.78700  0.01340  Biso   1.000  C
  C55      1.0000 0.65150  0.28700  0.51340  Biso   1.000  C
  C56      1.0000 0.34850  0.71300  0.01340  Biso   1.000  C
  H17      1.0000 0.10760  0.19720  0.45180  Biso   1.000  H
  H18      1.0000 0.89240  0.80280  0.95180  Biso   1.000  H
  H19      1.0000 0.60760  0.30280  0.45180  Biso   1.000  H
  H20      1.0000 0.39240  0.69720  0.95180  Biso   1.000  H
  C57      1.0000 0.24460  0.20630  0.49070  Biso   1.000  C
  C58      1.0000 0.75540  0.79370  0.99070  Biso   1.000  C
  C59      1.0000 0.74460  0.29370  0.49070  Biso   1.000  C
  C60      1.0000 0.25540  0.70630  0.99070  Biso   1.000  C
  H21      1.0000 0.28720  0.21890  0.55440  Biso   1.000  H
  H22      1.0000 0.71280  0.78110  0.05440  Biso   1.000  H
  H23      1.0000 0.78720  0.28110  0.55440  Biso   1.000  H
  H24      1.0000 0.21280  0.71890  0.05440  Biso   1.000  H
  C61      1.0000 0.43810  0.15350  0.26220  Biso   1.000  C
  C62      1.0000 0.56190  0.84650  0.76220  Biso   1.000  C
  C63      1.0000 0.93810  0.34650  0.26220  Biso   1.000  C
  C64      1.0000 0.06190  0.65350  0.76220  Biso   1.000  C
  H25      1.0000 0.50640  0.14660  0.26150  Biso   1.000  H
  H26      1.0000 0.49360  0.85340  0.76150  Biso   1.000  H
  H27      1.0000 0.00640  0.35340  0.26150  Biso   1.000  H
  H28      1.0000 0.99360  0.64660  0.76150  Biso   1.000  H
  C65      1.0000 0.39210  0.16960  0.36950  Biso   1.000  C
  C66      1.0000 0.60790  0.83040  0.86950  Biso   1.000  C
  C67      1.0000 0.89210  0.33040  0.36950  Biso   1.000  C
  C68      1.0000 0.10790  0.66960  0.86950  Biso   1.000  C
  H29      1.0000 0.42900  0.17290  0.43940  Biso   1.000  H
  H30      1.0000 0.57100  0.82710  0.93940  Biso   1.000  H
  H31      1.0000 0.92900  0.32710  0.43940  Biso   1.000  H
  H32      1.0000 0.07100  0.67290  0.93940  Biso   1.000  H
  C69      1.0000 0.29060  0.18090  0.37430  Biso   1.000  C
  C70      1.0000 0.70940  0.81910  0.87430  Biso   1.000  C
  C71      1.0000 0.79060  0.31910  0.37430  Biso   1.000  C
  C72      1.0000 0.20940  0.68090  0.87430  Biso   1.000  C
  C73      1.0000 0.24120  0.17320  0.26760  Biso   1.000  C
  C74      1.0000 0.75880  0.82680  0.76760  Biso   1.000  C
  C75      1.0000 0.74120  0.32680  0.26760  Biso   1.000  C
  C76      1.0000 0.25880  0.67320  0.76760  Biso   1.000  C
  H33      1.0000 0.17280  0.17930  0.26660  Biso   1.000  H
  H34      1.0000 0.82720  0.82070  0.76660  Biso   1.000  H
  H35      1.0000 0.67280  0.32070  0.26660  Biso   1.000  H
  H36      1.0000 0.32720  0.67930  0.76660  Biso   1.000  H
  C77      1.0000 0.29140  0.15640  0.16180  Biso   1.000  C
  C78      1.0000 0.70860  0.84360  0.66180  Biso   1.000  C
  C79      1.0000 0.79140  0.34360  0.16180  Biso   1.000  C
  C80      1.0000 0.20860  0.65640  0.66180  Biso   1.000  C
  H37      1.0000 0.25600  0.15150  0.09100  Biso   1.000  H
  H38      1.0000 0.74400  0.84850  0.59100  Biso   1.000  H
  H39      1.0000 0.75600  0.34850  0.09100  Biso   1.000  H
  H40      1.0000 0.24400  0.65150  0.59100  Biso   1.000  H
