data_image0
_cell_length_a       8.9251
_cell_length_b       9.8485
_cell_length_c       13.4324
_cell_angle_alpha    90
_cell_angle_beta     106.902
_cell_angle_gamma    90

_symmetry_space_group_name_H-M    "P 1"
_symmetry_int_tables_number       1

loop_
  _symmetry_equiv_pos_as_xyz
  'x, y, z'

loop_
  _atom_site_label
  _atom_site_occupancy
  _atom_site_fract_x
  _atom_site_fract_y
  _atom_site_fract_z
  _atom_site_thermal_displace_type
  _atom_site_B_iso_or_equiv
  _atom_site_type_symbol
  Cu1      1.0000 0.14408  0.83706  0.76272  Biso   1.000  Cu
  Cu2      1.0000 0.35592  0.33706  0.73728  Biso   1.000  Cu
  Cu3      1.0000 0.85592  0.16294  0.23728  Biso   1.000  Cu
  Cu4      1.0000 0.64408  0.66294  0.26272  Biso   1.000  Cu
  O1       1.0000 0.28770  0.75250  0.69890  Biso   1.000  O
  O2       1.0000 0.21230  0.25250  0.80110  Biso   1.000  O
  O3       1.0000 0.71230  0.24750  0.30110  Biso   1.000  O
  O4       1.0000 0.78770  0.74750  0.19890  Biso   1.000  O
  O5       1.0000 0.03010  0.90590  0.61590  Biso   1.000  O
  O6       1.0000 0.46990  0.40590  0.88410  Biso   1.000  O
  O7       1.0000 0.96990  0.09410  0.38410  Biso   1.000  O
  O8       1.0000 0.53010  0.59410  0.11590  Biso   1.000  O
  O9       1.0000 0.27820  0.03570  0.78900  Biso   1.000  O
  O10      1.0000 0.22180  0.53570  0.71100  Biso   1.000  O
  O11      1.0000 0.72180  0.96430  0.21100  Biso   1.000  O
  O12      1.0000 0.77820  0.46430  0.28900  Biso   1.000  O
  N1       1.0000 0.01230  0.95570  0.82470  Biso   1.000  N
  N2       1.0000 0.48770  0.45570  0.67530  Biso   1.000  N
  N3       1.0000 0.98770  0.04430  0.17530  Biso   1.000  N
  N4       1.0000 0.51230  0.54430  0.32470  Biso   1.000  N
  O13      1.0000 0.92860  0.69010  0.79130  Biso   1.000  O
  O14      1.0000 0.57140  0.19010  0.70870  Biso   1.000  O
  O15      1.0000 0.07140  0.30990  0.20870  Biso   1.000  O
  O16      1.0000 0.42860  0.80990  0.29130  Biso   1.000  O
  O17      1.0000 0.23460  0.73330  0.89350  Biso   1.000  O
  O18      1.0000 0.26540  0.23330  0.60650  Biso   1.000  O
  O19      1.0000 0.76540  0.26670  0.10650  Biso   1.000  O
  O20      1.0000 0.73460  0.76670  0.39350  Biso   1.000  O
  H1       1.0000 0.95070  0.85510  0.58800  Biso   1.000  H
  H2       1.0000 0.54930  0.35510  0.91200  Biso   1.000  H
  H3       1.0000 0.04930  0.14490  0.41200  Biso   1.000  H
  H4       1.0000 0.45070  0.64490  0.08800  Biso   1.000  H
  H5       1.0000 0.09260  0.90400  0.57790  Biso   1.000  H
  H6       1.0000 0.40740  0.40400  0.92210  Biso   1.000  H
  H7       1.0000 0.90740  0.09600  0.42210  Biso   1.000  H
  H8       1.0000 0.59260  0.59600  0.07790  Biso   1.000  H
  C1       1.0000 0.19450  0.12560  0.80740  Biso   1.000  C
  C2       1.0000 0.30550  0.62560  0.69260  Biso   1.000  C
  C3       1.0000 0.80550  0.87440  0.19260  Biso   1.000  C
  C4       1.0000 0.69450  0.37440  0.30740  Biso   1.000  C
  C5       1.0000 0.05210  0.08530  0.83900  Biso   1.000  C
  C6       1.0000 0.44790  0.58530  0.66100  Biso   1.000  C
  C7       1.0000 0.94790  0.91470  0.16100  Biso   1.000  C
  C8       1.0000 0.55210  0.41470  0.33900  Biso   1.000  C
  C9       1.0000 0.88400  0.91000  0.85140  Biso   1.000  C
  C10      1.0000 0.61600  0.41000  0.64860  Biso   1.000  C
  C11      1.0000 0.11600  0.09000  0.14860  Biso   1.000  C
  C12      1.0000 0.38400  0.59000  0.35140  Biso   1.000  C
  C13      1.0000 0.84350  0.77140  0.83820  Biso   1.000  C
  C14      1.0000 0.65650  0.27140  0.66180  Biso   1.000  C
  C15      1.0000 0.15650  0.22860  0.16180  Biso   1.000  C
  C16      1.0000 0.34350  0.72860  0.33820  Biso   1.000  C
  C17      1.0000 0.01390  0.58050  0.85440  Biso   1.000  C
  C18      1.0000 0.48610  0.08050  0.64560  Biso   1.000  C
  C19      1.0000 0.98610  0.41950  0.14560  Biso   1.000  C
  C20      1.0000 0.51390  0.91950  0.35440  Biso   1.000  C
  C21      1.0000 0.17880  0.62330  0.91560  Biso   1.000  C
  C22      1.0000 0.32120  0.12330  0.58440  Biso   1.000  C
  C23      1.0000 0.82120  0.37670  0.08440  Biso   1.000  C
  C24      1.0000 0.67880  0.87670  0.41560  Biso   1.000  C
  C25      1.0000 0.96650  0.17900  0.87990  Biso   1.000  C
  C26      1.0000 0.53350  0.67900  0.62010  Biso   1.000  C
  C27      1.0000 0.03350  0.82100  0.12010  Biso   1.000  C
  C28      1.0000 0.46650  0.32100  0.37990  Biso   1.000  C
  C29      1.0000 0.79320  0.99820  0.89330  Biso   1.000  C
  C30      1.0000 0.70680  0.49820  0.60670  Biso   1.000  C
  C31      1.0000 0.20680  0.00180  0.10670  Biso   1.000  C
  C32      1.0000 0.29320  0.50180  0.39330  Biso   1.000  C
  C33      1.0000 0.71950  0.72300  0.86730  Biso   1.000  C
  C34      1.0000 0.78050  0.22300  0.63270  Biso   1.000  C
  C35      1.0000 0.28050  0.27700  0.13270  Biso   1.000  C
  C36      1.0000 0.21950  0.77700  0.36730  Biso   1.000  C
  H9       1.0000 0.95770  0.55070  0.90240  Biso   1.000  H
  H10      1.0000 0.54230  0.05070  0.59760  Biso   1.000  H
  H11      1.0000 0.04230  0.44930  0.09760  Biso   1.000  H
  H12      1.0000 0.45770  0.94930  0.40240  Biso   1.000  H
  H13      1.0000 0.01980  0.50430  0.80990  Biso   1.000  H
  H14      1.0000 0.48020  0.00430  0.69010  Biso   1.000  H
  H15      1.0000 0.98020  0.49570  0.19010  Biso   1.000  H
  H16      1.0000 0.51980  0.99570  0.30990  Biso   1.000  H
  O21      1.0000 0.24920  0.54510  0.98570  Biso   1.000  O
  O22      1.0000 0.25080  0.04510  0.51430  Biso   1.000  O
  O23      1.0000 0.75080  0.45490  0.01430  Biso   1.000  O
  O24      1.0000 0.74920  0.95490  0.48570  Biso   1.000  O
  C37      1.0000 0.83740  0.13590  0.90510  Biso   1.000  C
  C38      1.0000 0.66260  0.63590  0.59490  Biso   1.000  C
  C39      1.0000 0.16260  0.86410  0.09490  Biso   1.000  C
  C40      1.0000 0.33740  0.36410  0.40510  Biso   1.000  C
  H17      1.0000 0.99780  0.26930  0.88960  Biso   1.000  H
  H18      1.0000 0.50220  0.76930  0.61040  Biso   1.000  H
  H19      1.0000 0.00220  0.73070  0.11040  Biso   1.000  H
  H20      1.0000 0.49780  0.23070  0.38960  Biso   1.000  H
  C41      1.0000 0.66250  0.94610  0.92040  Biso   1.000  C
  C42      1.0000 0.83750  0.44610  0.57960  Biso   1.000  C
  C43      1.0000 0.33750  0.05390  0.07960  Biso   1.000  C
  C44      1.0000 0.16250  0.55390  0.42040  Biso   1.000  C
  C45      1.0000 0.62900  0.81160  0.90910  Biso   1.000  C
  C46      1.0000 0.87100  0.31160  0.59090  Biso   1.000  C
  C47      1.0000 0.37100  0.18840  0.09090  Biso   1.000  C
  C48      1.0000 0.12900  0.68840  0.40910  Biso   1.000  C
  H21      1.0000 0.69440  0.63120  0.85960  Biso   1.000  H
  H22      1.0000 0.80560  0.13120  0.64040  Biso   1.000  H
  H23      1.0000 0.30560  0.36880  0.14040  Biso   1.000  H
  H24      1.0000 0.19440  0.86880  0.35960  Biso   1.000  H
  H25      1.0000 0.77820  0.19750  0.93030  Biso   1.000  H
  H26      1.0000 0.72180  0.69750  0.56970  Biso   1.000  H
  H27      1.0000 0.22180  0.80250  0.06970  Biso   1.000  H
  H28      1.0000 0.27820  0.30250  0.43030  Biso   1.000  H
  H29      1.0000 0.59980  0.00380  0.94580  Biso   1.000  H
  H30      1.0000 0.90020  0.50380  0.55420  Biso   1.000  H
  H31      1.0000 0.40020  0.99620  0.05420  Biso   1.000  H
  H32      1.0000 0.09980  0.49620  0.44580  Biso   1.000  H
  H33      1.0000 0.54510  0.77730  0.92910  Biso   1.000  H
  H34      1.0000 0.95490  0.27730  0.57090  Biso   1.000  H
  H35      1.0000 0.45490  0.22270  0.07090  Biso   1.000  H
  H36      1.0000 0.04510  0.72270  0.42910  Biso   1.000  H
