data_image0
_cell_length_a       18.9466
_cell_length_b       8.6655
_cell_length_c       6.2128
_cell_angle_alpha    90
_cell_angle_beta     106.476
_cell_angle_gamma    90

_symmetry_space_group_name_H-M    "P 1"
_symmetry_int_tables_number       1

loop_
  _symmetry_equiv_pos_as_xyz
  'x, y, z'

loop_
  _atom_site_label
  _atom_site_occupancy
  _atom_site_fract_x
  _atom_site_fract_y
  _atom_site_fract_z
  _atom_site_thermal_displace_type
  _atom_site_B_iso_or_equiv
  _atom_site_type_symbol
  Cu1      1.0000 0.92681  0.00000  0.41051  Biso   1.000  Cu
  Cu2      1.0000 0.42681  0.50000  0.41051  Biso   1.000  Cu
  Cu3      1.0000 0.07319  0.00000  0.58949  Biso   1.000  Cu
  Cu4      1.0000 0.57319  0.50000  0.58949  Biso   1.000  Cu
  O1       1.0000 0.92328  0.16740  0.62410  Biso   1.000  O
  O2       1.0000 0.42328  0.66740  0.62410  Biso   1.000  O
  O3       1.0000 0.07672  0.16740  0.37590  Biso   1.000  O
  O4       1.0000 0.57672  0.66740  0.37590  Biso   1.000  O
  O5       1.0000 0.07672  0.83260  0.37590  Biso   1.000  O
  O6       1.0000 0.57672  0.33260  0.37590  Biso   1.000  O
  O7       1.0000 0.92328  0.83260  0.62410  Biso   1.000  O
  O8       1.0000 0.42328  0.33260  0.62410  Biso   1.000  O
  O9       1.0000 0.04405  0.15620  0.77590  Biso   1.000  O
  O10      1.0000 0.54405  0.65620  0.77590  Biso   1.000  O
  O11      1.0000 0.95595  0.15620  0.22410  Biso   1.000  O
  O12      1.0000 0.45595  0.65620  0.22410  Biso   1.000  O
  O13      1.0000 0.95595  0.84380  0.22410  Biso   1.000  O
  O14      1.0000 0.45595  0.34380  0.22410  Biso   1.000  O
  O15      1.0000 0.04405  0.84380  0.77590  Biso   1.000  O
  O16      1.0000 0.54405  0.34380  0.77590  Biso   1.000  O
  O17      1.0000 0.81610  0.00000  0.20800  Biso   1.000  O
  O18      1.0000 0.31610  0.50000  0.20800  Biso   1.000  O
  O19      1.0000 0.18390  0.00000  0.79200  Biso   1.000  O
  O20      1.0000 0.68390  0.50000  0.79200  Biso   1.000  O
  N1       1.0000 0.73990  0.00000  0.85640  Biso   1.000  N
  N2       1.0000 0.23990  0.50000  0.85640  Biso   1.000  N
  N3       1.0000 0.26010  0.00000  0.14360  Biso   1.000  N
  N4       1.0000 0.76010  0.50000  0.14360  Biso   1.000  N
  C1       1.0000 0.98240  0.21430  0.75210  Biso   1.000  C
  C2       1.0000 0.48240  0.71430  0.75210  Biso   1.000  C
  C3       1.0000 0.01760  0.21430  0.24790  Biso   1.000  C
  C4       1.0000 0.51760  0.71430  0.24790  Biso   1.000  C
  C5       1.0000 0.01760  0.78570  0.24790  Biso   1.000  C
  C6       1.0000 0.51760  0.28570  0.24790  Biso   1.000  C
  C7       1.0000 0.98240  0.78570  0.75210  Biso   1.000  C
  C8       1.0000 0.48240  0.28570  0.75210  Biso   1.000  C
  C9       1.0000 0.98522  0.36110  0.88250  Biso   1.000  C
  C10      1.0000 0.48522  0.86110  0.88250  Biso   1.000  C
  C11      1.0000 0.01478  0.36110  0.11750  Biso   1.000  C
  C12      1.0000 0.51478  0.86110  0.11750  Biso   1.000  C
  C13      1.0000 0.01478  0.63890  0.11750  Biso   1.000  C
  C14      1.0000 0.51478  0.13890  0.11750  Biso   1.000  C
  C15      1.0000 0.98522  0.63890  0.88250  Biso   1.000  C
  C16      1.0000 0.48522  0.13890  0.88250  Biso   1.000  C
  C17      1.0000 0.97030  0.50000  0.76950  Biso   1.000  C
  C18      1.0000 0.47030  0.00000  0.76950  Biso   1.000  C
  C19      1.0000 0.02970  0.50000  0.23050  Biso   1.000  C
  C20      1.0000 0.52970  0.00000  0.23050  Biso   1.000  C
  H1       1.0000 0.94990  0.50000  0.61460  Biso   1.000  H
  H2       1.0000 0.44990  0.00000  0.61460  Biso   1.000  H
  H3       1.0000 0.05010  0.50000  0.38540  Biso   1.000  H
  H4       1.0000 0.55010  0.00000  0.38540  Biso   1.000  H
  C21      1.0000 0.80450  0.00000  0.00260  Biso   1.000  C
  C22      1.0000 0.30450  0.50000  0.00260  Biso   1.000  C
  C23      1.0000 0.19550  0.00000  0.99740  Biso   1.000  C
  C24      1.0000 0.69550  0.50000  0.99740  Biso   1.000  C
  H5       1.0000 0.84530  0.00000  0.94750  Biso   1.000  H
  H6       1.0000 0.34530  0.50000  0.94750  Biso   1.000  H
  H7       1.0000 0.15470  0.00000  0.05250  Biso   1.000  H
  H8       1.0000 0.65470  0.50000  0.05250  Biso   1.000  H
  C25      1.0000 0.67520  0.00000  0.92550  Biso   1.000  C
  C26      1.0000 0.17520  0.50000  0.92550  Biso   1.000  C
  C27      1.0000 0.32480  0.00000  0.07450  Biso   1.000  C
  C28      1.0000 0.82480  0.50000  0.07450  Biso   1.000  C
  H9       1.0000 0.68720  0.97490  0.08220  Biso   1.000  H
  H10      1.0000 0.18720  0.47490  0.08220  Biso   1.000  H
  H11      1.0000 0.31280  0.97490  0.91780  Biso   1.000  H
  H12      1.0000 0.81280  0.47490  0.91780  Biso   1.000  H
  H13      1.0000 0.31280  0.02510  0.91780  Biso   1.000  H
  H14      1.0000 0.81280  0.52510  0.91780  Biso   1.000  H
  H15      1.0000 0.68720  0.02510  0.08220  Biso   1.000  H
  H16      1.0000 0.18720  0.52510  0.08220  Biso   1.000  H
  H17      1.0000 0.64150  0.92480  0.84050  Biso   1.000  H
  H18      1.0000 0.14150  0.42480  0.84050  Biso   1.000  H
  H19      1.0000 0.35850  0.92480  0.15950  Biso   1.000  H
  H20      1.0000 0.85850  0.42480  0.15950  Biso   1.000  H
  H21      1.0000 0.35850  0.07520  0.15950  Biso   1.000  H
  H22      1.0000 0.85850  0.57520  0.15950  Biso   1.000  H
  H23      1.0000 0.64150  0.07520  0.84050  Biso   1.000  H
  H24      1.0000 0.14150  0.57520  0.84050  Biso   1.000  H
  H25      1.0000 0.65290  0.10040  0.90100  Biso   1.000  H
  H26      1.0000 0.15290  0.60040  0.90100  Biso   1.000  H
  H27      1.0000 0.34710  0.10040  0.09900  Biso   1.000  H
  H28      1.0000 0.84710  0.60040  0.09900  Biso   1.000  H
  H29      1.0000 0.34710  0.89960  0.09900  Biso   1.000  H
  H30      1.0000 0.84710  0.39960  0.09900  Biso   1.000  H
  H31      1.0000 0.65290  0.89960  0.90100  Biso   1.000  H
  H32      1.0000 0.15290  0.39960  0.90100  Biso   1.000  H
  C29      1.0000 0.73000  0.00000  0.61680  Biso   1.000  C
  C30      1.0000 0.23000  0.50000  0.61680  Biso   1.000  C
  C31      1.0000 0.27000  0.00000  0.38320  Biso   1.000  C
  C32      1.0000 0.77000  0.50000  0.38320  Biso   1.000  C
  H33      1.0000 0.77610  0.97830  0.58780  Biso   1.000  H
  H34      1.0000 0.27610  0.47830  0.58780  Biso   1.000  H
  H35      1.0000 0.22390  0.97830  0.41220  Biso   1.000  H
  H36      1.0000 0.72390  0.47830  0.41220  Biso   1.000  H
  H37      1.0000 0.22390  0.02170  0.41220  Biso   1.000  H
  H38      1.0000 0.72390  0.52170  0.41220  Biso   1.000  H
  H39      1.0000 0.77610  0.02170  0.58780  Biso   1.000  H
  H40      1.0000 0.27610  0.52170  0.58780  Biso   1.000  H
  H41      1.0000 0.71250  0.09930  0.55620  Biso   1.000  H
  H42      1.0000 0.21250  0.59930  0.55620  Biso   1.000  H
  H43      1.0000 0.28750  0.09930  0.44380  Biso   1.000  H
  H44      1.0000 0.78750  0.59930  0.44380  Biso   1.000  H
  H45      1.0000 0.28750  0.90070  0.44380  Biso   1.000  H
  H46      1.0000 0.78750  0.40070  0.44380  Biso   1.000  H
  H47      1.0000 0.71250  0.90070  0.55620  Biso   1.000  H
  H48      1.0000 0.21250  0.40070  0.55620  Biso   1.000  H
  H49      1.0000 0.69470  0.92240  0.54740  Biso   1.000  H
  H50      1.0000 0.19470  0.42240  0.54740  Biso   1.000  H
  H51      1.0000 0.30530  0.92240  0.45260  Biso   1.000  H
  H52      1.0000 0.80530  0.42240  0.45260  Biso   1.000  H
  H53      1.0000 0.30530  0.07760  0.45260  Biso   1.000  H
  H54      1.0000 0.80530  0.57760  0.45260  Biso   1.000  H
  H55      1.0000 0.69470  0.07760  0.54740  Biso   1.000  H
  H56      1.0000 0.19470  0.57760  0.54740  Biso   1.000  H
