data_image0
_cell_length_a       18.9183
_cell_length_b       8.661
_cell_length_c       6.2103
_cell_angle_alpha    90
_cell_angle_beta     106.45
_cell_angle_gamma    90

_symmetry_space_group_name_H-M    "P 1"
_symmetry_int_tables_number       1

loop_
  _symmetry_equiv_pos_as_xyz
  'x, y, z'

loop_
  _atom_site_label
  _atom_site_occupancy
  _atom_site_fract_x
  _atom_site_fract_y
  _atom_site_fract_z
  _atom_site_thermal_displace_type
  _atom_site_B_iso_or_equiv
  _atom_site_type_symbol
  Cu1      1.0000 0.42682  0.53590  0.40947  Biso   1.000  Cu
  Cu2      1.0000 0.57318  0.53590  0.59053  Biso   1.000  Cu
  Cu3      1.0000 0.92682  0.03590  0.40947  Biso   1.000  Cu
  Cu4      1.0000 0.07318  0.03590  0.59053  Biso   1.000  Cu
  O1       1.0000 0.41990  0.70270  0.62370  Biso   1.000  O
  O2       1.0000 0.58010  0.70270  0.37630  Biso   1.000  O
  O3       1.0000 0.91990  0.20270  0.62370  Biso   1.000  O
  O4       1.0000 0.08010  0.20270  0.37630  Biso   1.000  O
  O5       1.0000 0.54390  0.68940  0.77280  Biso   1.000  O
  O6       1.0000 0.45610  0.68940  0.22720  Biso   1.000  O
  O7       1.0000 0.04390  0.18940  0.77280  Biso   1.000  O
  O8       1.0000 0.95610  0.18940  0.22720  Biso   1.000  O
  O9       1.0000 0.42640  0.36780  0.62210  Biso   1.000  O
  O10      1.0000 0.57360  0.36780  0.37790  Biso   1.000  O
  O11      1.0000 0.92640  0.86780  0.62210  Biso   1.000  O
  O12      1.0000 0.07360  0.86780  0.37790  Biso   1.000  O
  O13      1.0000 0.54460  0.37830  0.78100  Biso   1.000  O
  O14      1.0000 0.45540  0.37830  0.21900  Biso   1.000  O
  O15      1.0000 0.04460  0.87830  0.78100  Biso   1.000  O
  O16      1.0000 0.95540  0.87830  0.21900  Biso   1.000  O
  O17      1.0000 0.31623  0.54010  0.20630  Biso   1.000  O
  O18      1.0000 0.68377  0.54010  0.79370  Biso   1.000  O
  O19      1.0000 0.81623  0.04010  0.20630  Biso   1.000  O
  O20      1.0000 0.18377  0.04010  0.79370  Biso   1.000  O
  N1       1.0000 0.24012  0.54200  0.85630  Biso   1.000  N
  N2       1.0000 0.75988  0.54200  0.14370  Biso   1.000  N
  N3       1.0000 0.74012  0.04200  0.85630  Biso   1.000  N
  N4       1.0000 0.25988  0.04200  0.14370  Biso   1.000  N
  C1       1.0000 0.48310  0.74880  0.74810  Biso   1.000  C
  C2       1.0000 0.51690  0.74880  0.25190  Biso   1.000  C
  C3       1.0000 0.98310  0.24880  0.74810  Biso   1.000  C
  C4       1.0000 0.01690  0.24880  0.25190  Biso   1.000  C
  C5       1.0000 0.48540  0.89590  0.89200  Biso   1.000  C
  C6       1.0000 0.51460  0.89590  0.10800  Biso   1.000  C
  C7       1.0000 0.98540  0.39590  0.89200  Biso   1.000  C
  C8       1.0000 0.01460  0.39590  0.10800  Biso   1.000  C
  C9       1.0000 0.47044  0.04070  0.76930  Biso   1.000  C
  C10      1.0000 0.52956  0.04070  0.23070  Biso   1.000  C
  C11      1.0000 0.97044  0.54070  0.76930  Biso   1.000  C
  C12      1.0000 0.02956  0.54070  0.23070  Biso   1.000  C
  H1       1.0000 0.45030  0.03910  0.61420  Biso   1.000  H
  H2       1.0000 0.54970  0.03910  0.38580  Biso   1.000  H
  H3       1.0000 0.95030  0.53910  0.61420  Biso   1.000  H
  H4       1.0000 0.04970  0.53910  0.38580  Biso   1.000  H
  C13      1.0000 0.48480  0.17350  0.87330  Biso   1.000  C
  C14      1.0000 0.51520  0.17350  0.12670  Biso   1.000  C
  C15      1.0000 0.98480  0.67350  0.87330  Biso   1.000  C
  C16      1.0000 0.01520  0.67350  0.12670  Biso   1.000  C
  C17      1.0000 0.48140  0.32050  0.75590  Biso   1.000  C
  C18      1.0000 0.51860  0.32050  0.24410  Biso   1.000  C
  C19      1.0000 0.98140  0.82050  0.75590  Biso   1.000  C
  C20      1.0000 0.01860  0.82050  0.24410  Biso   1.000  C
  C21      1.0000 0.30440  0.54900  0.00150  Biso   1.000  C
  C22      1.0000 0.69560  0.54900  0.99850  Biso   1.000  C
  C23      1.0000 0.80440  0.04900  0.00150  Biso   1.000  C
  C24      1.0000 0.19560  0.04900  0.99850  Biso   1.000  C
  H5       1.0000 0.34500  0.56140  0.94650  Biso   1.000  H
  H6       1.0000 0.65500  0.56140  0.05350  Biso   1.000  H
  H7       1.0000 0.84500  0.06140  0.94650  Biso   1.000  H
  H8       1.0000 0.15500  0.06140  0.05350  Biso   1.000  H
  C25      1.0000 0.17540  0.56400  0.92860  Biso   1.000  C
  C26      1.0000 0.82460  0.56400  0.07140  Biso   1.000  C
  C27      1.0000 0.67540  0.06400  0.92860  Biso   1.000  C
  C28      1.0000 0.32460  0.06400  0.07140  Biso   1.000  C
  H9       1.0000 0.18930  0.59360  0.08370  Biso   1.000  H
  H10      1.0000 0.81070  0.59360  0.91630  Biso   1.000  H
  H11      1.0000 0.68930  0.09360  0.08370  Biso   1.000  H
  H12      1.0000 0.31070  0.09360  0.91630  Biso   1.000  H
  H13      1.0000 0.14820  0.46860  0.91090  Biso   1.000  H
  H14      1.0000 0.85180  0.46860  0.08910  Biso   1.000  H
  H15      1.0000 0.64820  0.96860  0.91090  Biso   1.000  H
  H16      1.0000 0.35180  0.96860  0.08910  Biso   1.000  H
  H17      1.0000 0.14520  0.64270  0.83970  Biso   1.000  H
  H18      1.0000 0.85480  0.64270  0.16030  Biso   1.000  H
  H19      1.0000 0.64520  0.14270  0.83970  Biso   1.000  H
  H20      1.0000 0.35480  0.14270  0.16030  Biso   1.000  H
  C29      1.0000 0.22970  0.56200  0.61660  Biso   1.000  C
  C30      1.0000 0.77030  0.56200  0.38340  Biso   1.000  C
  C31      1.0000 0.72970  0.06200  0.61660  Biso   1.000  C
  C32      1.0000 0.27030  0.06200  0.38340  Biso   1.000  C
  H21      1.0000 0.27660  0.57840  0.58930  Biso   1.000  H
  H22      1.0000 0.72340  0.57840  0.41070  Biso   1.000  H
  H23      1.0000 0.77660  0.07840  0.58930  Biso   1.000  H
  H24      1.0000 0.22340  0.07840  0.41070  Biso   1.000  H
  H25      1.0000 0.19860  0.65030  0.56430  Biso   1.000  H
  H26      1.0000 0.80140  0.65030  0.43570  Biso   1.000  H
  H27      1.0000 0.69860  0.15030  0.56430  Biso   1.000  H
  H28      1.0000 0.30140  0.15030  0.43570  Biso   1.000  H
  H29      1.0000 0.20690  0.47170  0.53810  Biso   1.000  H
  H30      1.0000 0.79310  0.47170  0.46190  Biso   1.000  H
  H31      1.0000 0.70690  0.97170  0.53810  Biso   1.000  H
  H32      1.0000 0.29310  0.97170  0.46190  Biso   1.000  H
