data_image0
_cell_length_a       6.696
_cell_length_b       17.503
_cell_length_c       11.322
_cell_angle_alpha    90
_cell_angle_beta     95.444
_cell_angle_gamma    90

_symmetry_space_group_name_H-M    "P 1"
_symmetry_int_tables_number       1

loop_
  _symmetry_equiv_pos_as_xyz
  'x, y, z'

loop_
  _atom_site_label
  _atom_site_occupancy
  _atom_site_fract_x
  _atom_site_fract_y
  _atom_site_fract_z
  _atom_site_thermal_displace_type
  _atom_site_B_iso_or_equiv
  _atom_site_type_symbol
  Cu1      1.0000 0.16690  0.83614  0.41323  Biso   1.000  Cu
  Cu2      1.0000 0.83310  0.33614  0.08677  Biso   1.000  Cu
  Cu3      1.0000 0.83310  0.16386  0.58677  Biso   1.000  Cu
  Cu4      1.0000 0.16690  0.66386  0.91323  Biso   1.000  Cu
  O1       1.0000 0.18800  0.73450  0.34550  Biso   1.000  O
  O2       1.0000 0.81200  0.23450  0.15450  Biso   1.000  O
  O3       1.0000 0.81200  0.26550  0.65450  Biso   1.000  O
  O4       1.0000 0.18800  0.76550  0.84550  Biso   1.000  O
  O5       1.0000 0.50540  0.75990  0.31880  Biso   1.000  O
  O6       1.0000 0.49460  0.25990  0.18120  Biso   1.000  O
  O7       1.0000 0.49460  0.24010  0.68120  Biso   1.000  O
  O8       1.0000 0.50540  0.74010  0.81880  Biso   1.000  O
  O9       1.0000 0.28380  0.68870  0.08260  Biso   1.000  O
  O10      1.0000 0.71620  0.18870  0.41740  Biso   1.000  O
  O11      1.0000 0.71620  0.31130  0.91740  Biso   1.000  O
  O12      1.0000 0.28380  0.81130  0.58260  Biso   1.000  O
  O13      1.0000 0.24100  0.57370  0.01510  Biso   1.000  O
  O14      1.0000 0.75900  0.07370  0.48490  Biso   1.000  O
  O15      1.0000 0.75900  0.42630  0.98490  Biso   1.000  O
  O16      1.0000 0.24100  0.92630  0.51510  Biso   1.000  O
  O17      1.0000 0.85430  0.82080  0.45780  Biso   1.000  O
  O18      1.0000 0.14570  0.32080  0.04220  Biso   1.000  O
  O19      1.0000 0.14570  0.17920  0.54220  Biso   1.000  O
  O20      1.0000 0.85430  0.67920  0.95780  Biso   1.000  O
  O21      1.0000 0.82450  0.81310  0.70460  Biso   1.000  O
  O22      1.0000 0.17550  0.31310  0.79540  Biso   1.000  O
  O23      1.0000 0.17550  0.18690  0.29540  Biso   1.000  O
  O24      1.0000 0.82450  0.68690  0.20460  Biso   1.000  O
  N1       1.0000 0.10540  0.89300  0.26370  Biso   1.000  N
  N2       1.0000 0.89460  0.39300  0.23630  Biso   1.000  N
  N3       1.0000 0.89460  0.10700  0.73630  Biso   1.000  N
  N4       1.0000 0.10540  0.60700  0.76370  Biso   1.000  N
  C1       1.0000 0.36540  0.71640  0.32240  Biso   1.000  C
  C2       1.0000 0.63460  0.21640  0.17760  Biso   1.000  C
  C3       1.0000 0.63460  0.28360  0.67760  Biso   1.000  C
  C4       1.0000 0.36540  0.78360  0.82240  Biso   1.000  C
  C5       1.0000 0.39720  0.63050  0.32010  Biso   1.000  C
  C6       1.0000 0.60280  0.13050  0.17990  Biso   1.000  C
  C7       1.0000 0.60280  0.36950  0.67990  Biso   1.000  C
  C8       1.0000 0.39720  0.86950  0.82010  Biso   1.000  C
  C9       1.0000 0.45110  0.59590  0.42730  Biso   1.000  C
  C10      1.0000 0.54890  0.09590  0.07270  Biso   1.000  C
  C11      1.0000 0.54890  0.40410  0.57270  Biso   1.000  C
  C12      1.0000 0.45110  0.90410  0.92730  Biso   1.000  C
  H1       1.0000 0.47320  0.62690  0.49400  Biso   1.000  H
  H2       1.0000 0.52680  0.12690  0.00600  Biso   1.000  H
  H3       1.0000 0.52680  0.37310  0.50600  Biso   1.000  H
  H4       1.0000 0.47320  0.87310  0.99400  Biso   1.000  H
  C13      1.0000 0.47420  0.51880  0.44210  Biso   1.000  C
  C14      1.0000 0.52580  0.01880  0.05790  Biso   1.000  C
  C15      1.0000 0.52580  0.48120  0.55790  Biso   1.000  C
  C16      1.0000 0.47420  0.98120  0.94210  Biso   1.000  C
  C17      1.0000 0.44710  0.47390  0.33740  Biso   1.000  C
  C18      1.0000 0.55290  0.97390  0.16260  Biso   1.000  C
  C19      1.0000 0.55290  0.52610  0.66260  Biso   1.000  C
  C20      1.0000 0.44710  0.02610  0.83740  Biso   1.000  C
  H5       1.0000 0.46190  0.42120  0.34330  Biso   1.000  H
  H6       1.0000 0.53810  0.92120  0.15670  Biso   1.000  H
  H7       1.0000 0.53810  0.57880  0.65670  Biso   1.000  H
  H8       1.0000 0.46190  0.07880  0.84330  Biso   1.000  H
  C21      1.0000 0.39950  0.50600  0.22730  Biso   1.000  C
  C22      1.0000 0.60050  0.00600  0.27270  Biso   1.000  C
  C23      1.0000 0.60050  0.49400  0.77270  Biso   1.000  C
  C24      1.0000 0.39950  0.99400  0.72730  Biso   1.000  C
  H9       1.0000 0.38830  0.47540  0.15990  Biso   1.000  H
  H10      1.0000 0.61170  0.97540  0.34010  Biso   1.000  H
  H11      1.0000 0.61170  0.52460  0.84010  Biso   1.000  H
  H12      1.0000 0.38830  0.02460  0.65990  Biso   1.000  H
  C25      1.0000 0.36770  0.58530  0.21730  Biso   1.000  C
  C26      1.0000 0.63230  0.08530  0.28270  Biso   1.000  C
  C27      1.0000 0.63230  0.41470  0.78270  Biso   1.000  C
  C28      1.0000 0.36770  0.91470  0.71730  Biso   1.000  C
  C29      1.0000 0.29520  0.61720  0.09870  Biso   1.000  C
  C30      1.0000 0.70480  0.11720  0.40130  Biso   1.000  C
  C31      1.0000 0.70480  0.38280  0.90130  Biso   1.000  C
  C32      1.0000 0.29520  0.88280  0.59870  Biso   1.000  C
  C33      1.0000 0.07090  0.85840  0.15750  Biso   1.000  C
  C34      1.0000 0.92910  0.35840  0.34250  Biso   1.000  C
  C35      1.0000 0.92910  0.14160  0.84250  Biso   1.000  C
  C36      1.0000 0.07090  0.64160  0.65750  Biso   1.000  C
  H13      1.0000 0.07960  0.80540  0.15360  Biso   1.000  H
  H14      1.0000 0.92040  0.30540  0.34640  Biso   1.000  H
  H15      1.0000 0.92040  0.19460  0.84640  Biso   1.000  H
  H16      1.0000 0.07960  0.69460  0.65360  Biso   1.000  H
  C37      1.0000 0.02300  0.89920  0.05400  Biso   1.000  C
  C38      1.0000 0.97700  0.39920  0.44600  Biso   1.000  C
  C39      1.0000 0.97700  0.10080  0.94600  Biso   1.000  C
  C40      1.0000 0.02300  0.60080  0.55400  Biso   1.000  C
  H17      1.0000 0.99250  0.87350  0.98270  Biso   1.000  H
  H18      1.0000 0.00750  0.37350  0.51730  Biso   1.000  H
  H19      1.0000 0.00750  0.12650  0.01730  Biso   1.000  H
  H20      1.0000 0.99250  0.62650  0.48270  Biso   1.000  H
  C41      1.0000 0.02040  0.97880  0.05660  Biso   1.000  C
  C42      1.0000 0.97960  0.47880  0.44340  Biso   1.000  C
  C43      1.0000 0.97960  0.02120  0.94340  Biso   1.000  C
  C44      1.0000 0.02040  0.52120  0.55660  Biso   1.000  C
  C45      1.0000 0.05560  0.01310  0.16610  Biso   1.000  C
  C46      1.0000 0.94440  0.51310  0.33390  Biso   1.000  C
  C47      1.0000 0.94440  0.98690  0.83390  Biso   1.000  C
  C48      1.0000 0.05560  0.48690  0.66610  Biso   1.000  C
  H21      1.0000 0.05160  0.06600  0.17200  Biso   1.000  H
  H22      1.0000 0.94840  0.56600  0.32800  Biso   1.000  H
  H23      1.0000 0.94840  0.93400  0.82800  Biso   1.000  H
  H24      1.0000 0.05160  0.43400  0.67200  Biso   1.000  H
  C49      1.0000 0.09690  0.96960  0.26720  Biso   1.000  C
  C50      1.0000 0.90310  0.46960  0.23280  Biso   1.000  C
  C51      1.0000 0.90310  0.03040  0.73280  Biso   1.000  C
  C52      1.0000 0.09690  0.53040  0.76720  Biso   1.000  C
  H25      1.0000 0.11960  0.99410  0.34010  Biso   1.000  H
  H26      1.0000 0.88040  0.49410  0.15990  Biso   1.000  H
  H27      1.0000 0.88040  0.00590  0.65990  Biso   1.000  H
  H28      1.0000 0.11960  0.50590  0.84010  Biso   1.000  H
  H29      1.0000 0.75660  0.81060  0.41190  Biso   1.000  H
  H30      1.0000 0.24340  0.31060  0.08810  Biso   1.000  H
  H31      1.0000 0.24340  0.18940  0.58810  Biso   1.000  H
  H32      1.0000 0.75660  0.68940  0.91190  Biso   1.000  H
  H33      1.0000 0.82200  0.82920  0.52500  Biso   1.000  H
  H34      1.0000 0.17800  0.32920  0.97500  Biso   1.000  H
  H35      1.0000 0.17800  0.17080  0.47500  Biso   1.000  H
  H36      1.0000 0.82200  0.67080  0.02500  Biso   1.000  H
  H37      1.0000 0.75300  0.79100  0.74900  Biso   1.000  H
  H38      1.0000 0.24700  0.29100  0.75100  Biso   1.000  H
  H39      1.0000 0.24700  0.20900  0.25100  Biso   1.000  H
  H40      1.0000 0.75300  0.70900  0.24900  Biso   1.000  H
  H41      1.0000 0.94200  0.81100  0.73300  Biso   1.000  H
  H42      1.0000 0.05800  0.31100  0.76700  Biso   1.000  H
  H43      1.0000 0.05800  0.18900  0.26700  Biso   1.000  H
  H44      1.0000 0.94200  0.68900  0.23300  Biso   1.000  H
