data_image0
_cell_length_a       7.541
_cell_length_b       8.345
_cell_length_c       11.793
_cell_angle_alpha    106.204
_cell_angle_beta     90.862
_cell_angle_gamma    97.673

_symmetry_space_group_name_H-M    "P 1"
_symmetry_int_tables_number       1

loop_
  _symmetry_equiv_pos_as_xyz
  'x, y, z'

loop_
  _atom_site_label
  _atom_site_occupancy
  _atom_site_fract_x
  _atom_site_fract_y
  _atom_site_fract_z
  _atom_site_thermal_displace_type
  _atom_site_B_iso_or_equiv
  _atom_site_type_symbol
  Cu1      1.0000 0.66211  0.70963  0.54007  Biso   1.000  Cu
  Cu2      1.0000 0.33789  0.29037  0.45993  Biso   1.000  Cu
  O1       1.0000 0.57040  0.74990  0.39450  Biso   1.000  O
  O2       1.0000 0.42960  0.25010  0.60550  Biso   1.000  O
  O3       1.0000 0.61360  0.51420  0.25540  Biso   1.000  O
  O4       1.0000 0.38640  0.48580  0.74460  Biso   1.000  O
  O5       1.0000 0.93280  0.90050  0.32040  Biso   1.000  O
  O6       1.0000 0.06720  0.09950  0.67960  Biso   1.000  O
  O7       1.0000 0.82440  0.14400  0.37380  Biso   1.000  O
  O8       1.0000 0.17560  0.85600  0.62620  Biso   1.000  O
  O9       1.0000 0.41820  0.64620  0.58370  Biso   1.000  O
  O10      1.0000 0.58180  0.35380  0.41630  Biso   1.000  O
  O11      1.0000 0.69230  0.99930  0.62600  Biso   1.000  O
  O12      1.0000 0.30770  0.00070  0.37400  Biso   1.000  O
  O13      1.0000 0.90100  0.72170  0.47800  Biso   1.000  O
  O14      1.0000 0.09900  0.27830  0.52200  Biso   1.000  O
  N1       1.0000 0.77230  0.67060  0.68540  Biso   1.000  N
  N2       1.0000 0.22770  0.32940  0.31460  Biso   1.000  N
  C1       1.0000 0.59090  0.66350  0.28810  Biso   1.000  C
  C2       1.0000 0.40910  0.33650  0.71190  Biso   1.000  C
  C3       1.0000 0.57890  0.75960  0.19840  Biso   1.000  C
  C4       1.0000 0.42110  0.24040  0.80160  Biso   1.000  C
  C5       1.0000 0.46270  0.69230  0.10040  Biso   1.000  C
  C6       1.0000 0.53730  0.30770  0.89960  Biso   1.000  C
  H1       1.0000 0.40230  0.58340  0.08650  Biso   1.000  H
  H2       1.0000 0.59770  0.41660  0.91350  Biso   1.000  H
  C7       1.0000 0.43430  0.78420  0.02230  Biso   1.000  C
  C8       1.0000 0.56570  0.21580  0.97770  Biso   1.000  C
  H3       1.0000 0.35830  0.73410  0.95530  Biso   1.000  H
  H4       1.0000 0.64170  0.26590  0.04470  Biso   1.000  H
  C9       1.0000 0.51650  0.94940  0.04140  Biso   1.000  C
  C10      1.0000 0.48350  0.05060  0.95860  Biso   1.000  C
  C11      1.0000 0.63820  0.01590  0.13950  Biso   1.000  C
  C12      1.0000 0.36180  0.98410  0.86050  Biso   1.000  C
  H5       1.0000 0.69820  0.12490  0.15320  Biso   1.000  H
  H6       1.0000 0.30180  0.87510  0.84680  Biso   1.000  H
  C13      1.0000 0.67180  0.92360  0.21720  Biso   1.000  C
  C14      1.0000 0.32820  0.07640  0.78280  Biso   1.000  C
  C15      1.0000 0.82030  0.99470  0.31150  Biso   1.000  C
  C16      1.0000 0.17970  0.00530  0.68850  Biso   1.000  C
  C17      1.0000 0.84590  0.53200  0.67870  Biso   1.000  C
  C18      1.0000 0.15410  0.46800  0.32130  Biso   1.000  C
  H7       1.0000 0.84840  0.45510  0.60460  Biso   1.000  H
  H8       1.0000 0.15160  0.54490  0.39540  Biso   1.000  H
  C19      1.0000 0.91840  0.49590  0.77460  Biso   1.000  C
  C20      1.0000 0.08160  0.50410  0.22540  Biso   1.000  C
  H9       1.0000 0.96790  0.39690  0.76430  Biso   1.000  H
  H10      1.0000 0.03210  0.60310  0.23570  Biso   1.000  H
  C21      1.0000 0.91810  0.60580  0.88620  Biso   1.000  C
  C22      1.0000 0.08190  0.39420  0.11380  Biso   1.000  C
  C23      1.0000 0.85080  0.75630  0.89280  Biso   1.000  C
  C24      1.0000 0.14920  0.24370  0.10720  Biso   1.000  C
  H11      1.0000 0.85500  0.83880  0.96490  Biso   1.000  H
  H12      1.0000 0.14500  0.16120  0.03510  Biso   1.000  H
  C25      1.0000 0.77830  0.78240  0.79280  Biso   1.000  C
  C26      1.0000 0.22170  0.21760  0.20720  Biso   1.000  C
  H13      1.0000 0.73130  0.88200  0.80000  Biso   1.000  H
  H14      1.0000 0.26870  0.11800  0.20000  Biso   1.000  H
  C27      1.0000 0.97780  0.57260  0.99430  Biso   1.000  C
  C28      1.0000 0.02220  0.42740  0.00570  Biso   1.000  C
  H15      1.0000 0.98600  0.66180  0.06300  Biso   1.000  H
  H16      1.0000 0.01400  0.33820  0.93700  Biso   1.000  H
  H17      1.0000 0.41800  0.60800  0.64100  Biso   1.000  H
  H18      1.0000 0.58200  0.39200  0.35900  Biso   1.000  H
  H19      1.0000 0.90400  0.77000  0.42500  Biso   1.000  H
  H20      1.0000 0.09600  0.23000  0.57500  Biso   1.000  H
  H21      1.0000 0.63500  0.07100  0.61400  Biso   1.000  H
  H22      1.0000 0.36500  0.92900  0.38600  Biso   1.000  H
  H23      1.0000 0.34600  0.71500  0.59100  Biso   1.000  H
  H24      1.0000 0.65400  0.28500  0.40900  Biso   1.000  H
  H25      1.0000 0.99300  0.75500  0.52300  Biso   1.000  H
  H26      1.0000 0.00700  0.24500  0.47700  Biso   1.000  H
  H27      1.0000 0.80140  0.03500  0.63700  Biso   1.000  H
  H28      1.0000 0.19860  0.96500  0.36300  Biso   1.000  H
