data_image0
_cell_length_a       8.2401
_cell_length_b       15.6756
_cell_length_c       9.9014
_cell_angle_alpha    90
_cell_angle_beta     104.88
_cell_angle_gamma    90

_symmetry_space_group_name_H-M    "P 1"
_symmetry_int_tables_number       1

loop_
  _symmetry_equiv_pos_as_xyz
  'x, y, z'

loop_
  _atom_site_label
  _atom_site_occupancy
  _atom_site_fract_x
  _atom_site_fract_y
  _atom_site_fract_z
  _atom_site_thermal_displace_type
  _atom_site_B_iso_or_equiv
  _atom_site_type_symbol
  Cu1      1.0000 0.35349  0.31543  0.63872  Biso   1.000  Cu
  Cu2      1.0000 0.64651  0.81543  0.86128  Biso   1.000  Cu
  Cu3      1.0000 0.64651  0.68457  0.36128  Biso   1.000  Cu
  Cu4      1.0000 0.35349  0.18457  0.13872  Biso   1.000  Cu
  O1       1.0000 0.37421  0.26011  0.46320  Biso   1.000  O
  O2       1.0000 0.62579  0.76011  0.03680  Biso   1.000  O
  O3       1.0000 0.62579  0.73989  0.53680  Biso   1.000  O
  O4       1.0000 0.37421  0.23989  0.96320  Biso   1.000  O
  O5       1.0000 0.50691  0.27355  0.29276  Biso   1.000  O
  O6       1.0000 0.49309  0.77355  0.20724  Biso   1.000  O
  O7       1.0000 0.49309  0.72645  0.70724  Biso   1.000  O
  O8       1.0000 0.50691  0.22645  0.79276  Biso   1.000  O
  O9       1.0000 0.29019  0.39899  0.76721  Biso   1.000  O
  O10      1.0000 0.70981  0.89899  0.73279  Biso   1.000  O
  O11      1.0000 0.70981  0.60101  0.23279  Biso   1.000  O
  O12      1.0000 0.29019  0.10101  0.26721  Biso   1.000  O
  O13      1.0000 0.11718  0.41170  0.90677  Biso   1.000  O
  O14      1.0000 0.88282  0.91170  0.59323  Biso   1.000  O
  O15      1.0000 0.88282  0.58830  0.09323  Biso   1.000  O
  O16      1.0000 0.11718  0.08830  0.40677  Biso   1.000  O
  N1       1.0000 0.53895  0.38369  0.60717  Biso   1.000  N
  N2       1.0000 0.46105  0.88369  0.89283  Biso   1.000  N
  N3       1.0000 0.46105  0.61631  0.39283  Biso   1.000  N
  N4       1.0000 0.53895  0.11631  0.10717  Biso   1.000  N
  N5       1.0000 0.63760  0.44888  0.66581  Biso   1.000  N
  N6       1.0000 0.36240  0.94888  0.83419  Biso   1.000  N
  N7       1.0000 0.36240  0.55112  0.33419  Biso   1.000  N
  N8       1.0000 0.63760  0.05112  0.16581  Biso   1.000  N
  H1       1.0000 0.62700  0.47130  0.74620  Biso   1.000  H
  H2       1.0000 0.37300  0.97130  0.75380  Biso   1.000  H
  H3       1.0000 0.37300  0.52870  0.25380  Biso   1.000  H
  H4       1.0000 0.62700  0.02870  0.24620  Biso   1.000  H
  N9       1.0000 0.13370  0.26649  0.64013  Biso   1.000  N
  N10      1.0000 0.86630  0.76649  0.85987  Biso   1.000  N
  N11      1.0000 0.86630  0.73351  0.35987  Biso   1.000  N
  N12      1.0000 0.13370  0.23351  0.14013  Biso   1.000  N
  N13      1.0000 0.02930  0.20284  0.58279  Biso   1.000  N
  N14      1.0000 0.97070  0.70284  0.91721  Biso   1.000  N
  N15      1.0000 0.97070  0.79716  0.41721  Biso   1.000  N
  N16      1.0000 0.02930  0.29716  0.08279  Biso   1.000  N
  H5       1.0000 0.05300  0.16550  0.52300  Biso   1.000  H
  H6       1.0000 0.94700  0.66550  0.97700  Biso   1.000  H
  H7       1.0000 0.94700  0.83450  0.47700  Biso   1.000  H
  H8       1.0000 0.05300  0.33450  0.02300  Biso   1.000  H
  C1       1.0000 0.48180  0.29425  0.40713  Biso   1.000  C
  C2       1.0000 0.51820  0.79425  0.09287  Biso   1.000  C
  C3       1.0000 0.51820  0.70575  0.59287  Biso   1.000  C
  C4       1.0000 0.48180  0.20575  0.90713  Biso   1.000  C
  C5       1.0000 0.58060  0.36513  0.48875  Biso   1.000  C
  C6       1.0000 0.41940  0.86513  0.01125  Biso   1.000  C
  C7       1.0000 0.41940  0.63487  0.51125  Biso   1.000  C
  C8       1.0000 0.58060  0.13487  0.98875  Biso   1.000  C
  C9       1.0000 0.70730  0.41953  0.47070  Biso   1.000  C
  C10      1.0000 0.29270  0.91953  0.02930  Biso   1.000  C
  C11      1.0000 0.29270  0.58047  0.52930  Biso   1.000  C
  C12      1.0000 0.70730  0.08047  0.97070  Biso   1.000  C
  H9       1.0000 0.75909  0.42008  0.39539  Biso   1.000  H
  H10      1.0000 0.24091  0.92008  0.10461  Biso   1.000  H
  H11      1.0000 0.24091  0.57992  0.60461  Biso   1.000  H
  H12      1.0000 0.75909  0.07992  0.89539  Biso   1.000  H
  C13      1.0000 0.74130  0.47248  0.58630  Biso   1.000  C
  C14      1.0000 0.25870  0.97248  0.91370  Biso   1.000  C
  C15      1.0000 0.25870  0.52752  0.41370  Biso   1.000  C
  C16      1.0000 0.74130  0.02752  0.08630  Biso   1.000  C
  C17      1.0000 0.86410  0.54344  0.62990  Biso   1.000  C
  C18      1.0000 0.13590  0.04344  0.87010  Biso   1.000  C
  C19      1.0000 0.13590  0.45656  0.37010  Biso   1.000  C
  C20      1.0000 0.86410  0.95656  0.12990  Biso   1.000  C
  H13      1.0000 0.80966  0.59121  0.66474  Biso   1.000  H
  H14      1.0000 0.19034  0.09121  0.83526  Biso   1.000  H
  H15      1.0000 0.19034  0.40879  0.33526  Biso   1.000  H
  H16      1.0000 0.80966  0.90879  0.16474  Biso   1.000  H
  H17      1.0000 0.90378  0.56231  0.54957  Biso   1.000  H
  H18      1.0000 0.09622  0.06231  0.95043  Biso   1.000  H
  H19      1.0000 0.09622  0.43769  0.45043  Biso   1.000  H
  H20      1.0000 0.90378  0.93769  0.04957  Biso   1.000  H
  H21      1.0000 0.95970  0.52345  0.70405  Biso   1.000  H
  H22      1.0000 0.04030  0.02345  0.79595  Biso   1.000  H
  H23      1.0000 0.04030  0.47655  0.29595  Biso   1.000  H
  H24      1.0000 0.95970  0.97655  0.20405  Biso   1.000  H
  C21      1.0000 0.16210  0.37719  0.80825  Biso   1.000  C
  C22      1.0000 0.83790  0.87719  0.69175  Biso   1.000  C
  C23      1.0000 0.83790  0.62281  0.19175  Biso   1.000  C
  C24      1.0000 0.16210  0.12281  0.30825  Biso   1.000  C
  C25      1.0000 0.06280  0.30520  0.73065  Biso   1.000  C
  C26      1.0000 0.93720  0.80520  0.76935  Biso   1.000  C
  C27      1.0000 0.93720  0.69480  0.26935  Biso   1.000  C
  C28      1.0000 0.06280  0.19480  0.23065  Biso   1.000  C
  C29      1.0000 0.91060  0.26580  0.73117  Biso   1.000  C
  C30      1.0000 0.08940  0.76580  0.76883  Biso   1.000  C
  C31      1.0000 0.08940  0.73420  0.26883  Biso   1.000  C
  C32      1.0000 0.91060  0.23420  0.23117  Biso   1.000  C
  H25      1.0000 0.83563  0.28062  0.78602  Biso   1.000  H
  H26      1.0000 0.16437  0.78062  0.71398  Biso   1.000  H
  H27      1.0000 0.16437  0.71938  0.21398  Biso   1.000  H
  H28      1.0000 0.83563  0.21938  0.28602  Biso   1.000  H
  C33      1.0000 0.89300  0.20049  0.63426  Biso   1.000  C
  C34      1.0000 0.10700  0.70049  0.86574  Biso   1.000  C
  C35      1.0000 0.10700  0.79951  0.36574  Biso   1.000  C
  C36      1.0000 0.89300  0.29951  0.13426  Biso   1.000  C
  C37      1.0000 0.75750  0.13623  0.58530  Biso   1.000  C
  C38      1.0000 0.24250  0.63623  0.91470  Biso   1.000  C
  C39      1.0000 0.24250  0.86377  0.41470  Biso   1.000  C
  C40      1.0000 0.75750  0.36377  0.08530  Biso   1.000  C
  H29      1.0000 0.71025  0.14245  0.48432  Biso   1.000  H
  H30      1.0000 0.28975  0.64245  0.01568  Biso   1.000  H
  H31      1.0000 0.28975  0.85755  0.51568  Biso   1.000  H
  H32      1.0000 0.71025  0.35755  0.98432  Biso   1.000  H
  H33      1.0000 0.66901  0.14521  0.63363  Biso   1.000  H
  H34      1.0000 0.33099  0.64521  0.86637  Biso   1.000  H
  H35      1.0000 0.33099  0.85479  0.36637  Biso   1.000  H
  H36      1.0000 0.66901  0.35479  0.13363  Biso   1.000  H
  H37      1.0000 0.80416  0.07875  0.60563  Biso   1.000  H
  H38      1.0000 0.19584  0.57875  0.89437  Biso   1.000  H
  H39      1.0000 0.19584  0.92125  0.39437  Biso   1.000  H
  H40      1.0000 0.80416  0.42125  0.10563  Biso   1.000  H
  O17      1.0000 0.59940  0.53848  0.89130  Biso   1.000  O
  O18      1.0000 0.40060  0.03848  0.60870  Biso   1.000  O
  O19      1.0000 0.40060  0.46152  0.10870  Biso   1.000  O
  O20      1.0000 0.59940  0.96152  0.39130  Biso   1.000  O
  H41      1.0000 0.67900  0.55700  0.95300  Biso   1.000  H
  H42      1.0000 0.32100  0.05700  0.54700  Biso   1.000  H
  H43      1.0000 0.32100  0.44300  0.04700  Biso   1.000  H
  H44      1.0000 0.67900  0.94300  0.45300  Biso   1.000  H
  H45      1.0000 0.54000  0.50690  0.92300  Biso   1.000  H
  H46      1.0000 0.46000  0.00690  0.57700  Biso   1.000  H
  H47      1.0000 0.46000  0.49310  0.07700  Biso   1.000  H
  H48      1.0000 0.54000  0.99310  0.42300  Biso   1.000  H
