data_image0
_cell_length_a       11.234
_cell_length_b       13.2231
_cell_length_c       16.8409
_cell_angle_alpha    90
_cell_angle_beta     105.916
_cell_angle_gamma    90

_symmetry_space_group_name_H-M    "P 1"
_symmetry_int_tables_number       1

loop_
  _symmetry_equiv_pos_as_xyz
  'x, y, z'

loop_
  _atom_site_label
  _atom_site_occupancy
  _atom_site_fract_x
  _atom_site_fract_y
  _atom_site_fract_z
  _atom_site_thermal_displace_type
  _atom_site_B_iso_or_equiv
  _atom_site_type_symbol
  Cu1      1.0000 0.49363  0.08310  0.85975  Biso   1.000  Cu
  Cu2      1.0000 0.00637  0.58310  0.64025  Biso   1.000  Cu
  Cu3      1.0000 0.50637  0.91690  0.14025  Biso   1.000  Cu
  Cu4      1.0000 0.99363  0.41690  0.35975  Biso   1.000  Cu
  C1       1.0000 0.35740  0.89210  0.48770  Biso   1.000  C
  C2       1.0000 0.14260  0.39210  0.01230  Biso   1.000  C
  C3       1.0000 0.64260  0.10790  0.51230  Biso   1.000  C
  C4       1.0000 0.85740  0.60790  0.98770  Biso   1.000  C
  H1       1.0000 0.39590  0.83400  0.51360  Biso   1.000  H
  H2       1.0000 0.10410  0.33400  0.98640  Biso   1.000  H
  H3       1.0000 0.60410  0.16600  0.48640  Biso   1.000  H
  H4       1.0000 0.89590  0.66600  0.01360  Biso   1.000  H
  C5       1.0000 0.24560  0.06560  0.40740  Biso   1.000  C
  C6       1.0000 0.25440  0.56560  0.09260  Biso   1.000  C
  C7       1.0000 0.75440  0.93440  0.59260  Biso   1.000  C
  C8       1.0000 0.74560  0.43440  0.90740  Biso   1.000  C
  C9       1.0000 0.30580  0.06830  0.49320  Biso   1.000  C
  C10      1.0000 0.19420  0.56830  0.00680  Biso   1.000  C
  C11      1.0000 0.69420  0.93170  0.50680  Biso   1.000  C
  C12      1.0000 0.80580  0.43170  0.99320  Biso   1.000  C
  H5       1.0000 0.30870  0.12790  0.52300  Biso   1.000  H
  H6       1.0000 0.19130  0.62790  0.97700  Biso   1.000  H
  H7       1.0000 0.69130  0.87210  0.47700  Biso   1.000  H
  H8       1.0000 0.80870  0.37210  0.02300  Biso   1.000  H
  C13      1.0000 0.49350  0.90350  0.65910  Biso   1.000  C
  C14      1.0000 0.00650  0.40350  0.84090  Biso   1.000  C
  C15      1.0000 0.50650  0.09650  0.34090  Biso   1.000  C
  C16      1.0000 0.99350  0.59650  0.15910  Biso   1.000  C
  H9       1.0000 0.51540  0.84470  0.63630  Biso   1.000  H
  H10      1.0000 0.98460  0.34470  0.86370  Biso   1.000  H
  H11      1.0000 0.48460  0.15530  0.36370  Biso   1.000  H
  H12      1.0000 0.01540  0.65530  0.13630  Biso   1.000  H
  C17      1.0000 0.52920  0.93150  0.74120  Biso   1.000  C
  C18      1.0000 0.97080  0.43150  0.75880  Biso   1.000  C
  C19      1.0000 0.47080  0.06850  0.25880  Biso   1.000  C
  C20      1.0000 0.02920  0.56850  0.24120  Biso   1.000  C
  H13      1.0000 0.58170  0.89500  0.78390  Biso   1.000  H
  H14      1.0000 0.91830  0.39500  0.71610  Biso   1.000  H
  H15      1.0000 0.41830  0.10500  0.21610  Biso   1.000  H
  H16      1.0000 0.08170  0.60500  0.28390  Biso   1.000  H
  C21      1.0000 0.48200  0.94900  0.97840  Biso   1.000  C
  C22      1.0000 0.01800  0.44900  0.52160  Biso   1.000  C
  C23      1.0000 0.51800  0.05100  0.02160  Biso   1.000  C
  C24      1.0000 0.98200  0.55100  0.47840  Biso   1.000  C
  C25      1.0000 0.16190  0.17130  0.28290  Biso   1.000  C
  C26      1.0000 0.33810  0.67130  0.21710  Biso   1.000  C
  C27      1.0000 0.83810  0.82870  0.71710  Biso   1.000  C
  C28      1.0000 0.66190  0.32870  0.78290  Biso   1.000  C
  H17      1.0000 0.18570  0.13150  0.24440  Biso   1.000  H
  H18      1.0000 0.31430  0.63150  0.25560  Biso   1.000  H
  H19      1.0000 0.81430  0.86850  0.75560  Biso   1.000  H
  H20      1.0000 0.68570  0.36850  0.74440  Biso   1.000  H
  C29      1.0000 0.29580  0.89120  0.40310  Biso   1.000  C
  C30      1.0000 0.20420  0.39120  0.09690  Biso   1.000  C
  C31      1.0000 0.70420  0.10880  0.59690  Biso   1.000  C
  C32      1.0000 0.79580  0.60880  0.90310  Biso   1.000  C
  H21      1.0000 0.29210  0.83120  0.37370  Biso   1.000  H
  H22      1.0000 0.20790  0.33120  0.12630  Biso   1.000  H
  H23      1.0000 0.70790  0.16880  0.62630  Biso   1.000  H
  H24      1.0000 0.79210  0.66880  0.87370  Biso   1.000  H
  C33      1.0000 0.24030  0.97690  0.36210  Biso   1.000  C
  C34      1.0000 0.25970  0.47690  0.13790  Biso   1.000  C
  C35      1.0000 0.75970  0.02310  0.63790  Biso   1.000  C
  C36      1.0000 0.74030  0.52310  0.86210  Biso   1.000  C
  H25      1.0000 0.20060  0.97520  0.30590  Biso   1.000  H
  H26      1.0000 0.29940  0.47520  0.19410  Biso   1.000  H
  H27      1.0000 0.79940  0.02480  0.69410  Biso   1.000  H
  H28      1.0000 0.70060  0.52480  0.80590  Biso   1.000  H
  C37      1.0000 0.09760  0.25880  0.26810  Biso   1.000  C
  C38      1.0000 0.40240  0.75880  0.23190  Biso   1.000  C
  C39      1.0000 0.90240  0.74120  0.73190  Biso   1.000  C
  C40      1.0000 0.59760  0.24120  0.76810  Biso   1.000  C
  H29      1.0000 0.07090  0.29100  0.21710  Biso   1.000  H
  H30      1.0000 0.42910  0.79100  0.28290  Biso   1.000  H
  H31      1.0000 0.92910  0.70900  0.78290  Biso   1.000  H
  H32      1.0000 0.57090  0.20900  0.71710  Biso   1.000  H
  C41      1.0000 0.13270  0.22900  0.39850  Biso   1.000  C
  C42      1.0000 0.36730  0.72900  0.10150  Biso   1.000  C
  C43      1.0000 0.86730  0.77100  0.60150  Biso   1.000  C
  C44      1.0000 0.63270  0.27100  0.89850  Biso   1.000  C
  H33      1.0000 0.13540  0.23500  0.45400  Biso   1.000  H
  H34      1.0000 0.36460  0.73500  0.04600  Biso   1.000  H
  H35      1.0000 0.86460  0.76500  0.54600  Biso   1.000  H
  H36      1.0000 0.63540  0.26500  0.95400  Biso   1.000  H
  C45      1.0000 0.41120  0.05020  0.67400  Biso   1.000  C
  C46      1.0000 0.08880  0.55020  0.82600  Biso   1.000  C
  C47      1.0000 0.58880  0.94980  0.32600  Biso   1.000  C
  C48      1.0000 0.91120  0.44980  0.17400  Biso   1.000  C
  H37      1.0000 0.36750  0.11050  0.66200  Biso   1.000  H
  H38      1.0000 0.13250  0.61050  0.83800  Biso   1.000  H
  H39      1.0000 0.63250  0.88950  0.33800  Biso   1.000  H
  H40      1.0000 0.86750  0.38950  0.16200  Biso   1.000  H
  C49      1.0000 0.36010  0.98080  0.53200  Biso   1.000  C
  C50      1.0000 0.13990  0.48080  0.96800  Biso   1.000  C
  C51      1.0000 0.63990  0.01920  0.46800  Biso   1.000  C
  C52      1.0000 0.86010  0.51920  0.03200  Biso   1.000  C
  N1       1.0000 0.41890  0.98020  0.61780  Biso   1.000  N
  N2       1.0000 0.08110  0.48020  0.88220  Biso   1.000  N
  N3       1.0000 0.58110  0.01980  0.38220  Biso   1.000  N
  N4       1.0000 0.91890  0.51980  0.11780  Biso   1.000  N
  N5       1.0000 0.07790  0.29280  0.34140  Biso   1.000  N
  N6       1.0000 0.42210  0.79280  0.15860  Biso   1.000  N
  N7       1.0000 0.92210  0.70720  0.65860  Biso   1.000  N
  N8       1.0000 0.57790  0.20720  0.84140  Biso   1.000  N
  N9       1.0000 0.47470  0.02120  0.74900  Biso   1.000  N
  N10      1.0000 0.02530  0.52120  0.75100  Biso   1.000  N
  N11      1.0000 0.52530  0.97880  0.25100  Biso   1.000  N
  N12      1.0000 0.97470  0.47880  0.24900  Biso   1.000  N
  N13      1.0000 0.18540  0.15260  0.36640  Biso   1.000  N
  N14      1.0000 0.31460  0.65260  0.13360  Biso   1.000  N
  N15      1.0000 0.81460  0.84740  0.63360  Biso   1.000  N
  N16      1.0000 0.68540  0.34740  0.86640  Biso   1.000  N
  O1       1.0000 0.28000  0.13700  0.83400  Biso   1.000  O
  O2       1.0000 0.22000  0.63700  0.66600  Biso   1.000  O
  O3       1.0000 0.72000  0.86300  0.16600  Biso   1.000  O
  O4       1.0000 0.78000  0.36300  0.33400  Biso   1.000  O
  O5       1.0000 0.48250  0.87380  0.02400  Biso   1.000  O
  O6       1.0000 0.01750  0.37380  0.47600  Biso   1.000  O
  O7       1.0000 0.51750  0.12620  0.97600  Biso   1.000  O
  O8       1.0000 0.98250  0.62620  0.52400  Biso   1.000  O
  O9       1.0000 0.45920  0.94900  0.90150  Biso   1.000  O
  O10      1.0000 0.04080  0.44900  0.59850  Biso   1.000  O
  O11      1.0000 0.54080  0.05100  0.09850  Biso   1.000  O
  O12      1.0000 0.95920  0.55100  0.40150  Biso   1.000  O
  W1       1.0000 0.89423  0.11731  0.05668  Biso   1.000  W
  W2       1.0000 0.60577  0.61731  0.44332  Biso   1.000  W
  W3       1.0000 0.10577  0.88269  0.94332  Biso   1.000  W
  W4       1.0000 0.39423  0.38269  0.55668  Biso   1.000  W
  W5       1.0000 0.95224  0.09170  0.87787  Biso   1.000  W
  W6       1.0000 0.54776  0.59170  0.62213  Biso   1.000  W
  W7       1.0000 0.04776  0.90830  0.12213  Biso   1.000  W
  W8       1.0000 0.45224  0.40830  0.37787  Biso   1.000  W
  W9       1.0000 0.82171  0.90748  0.95228  Biso   1.000  W
  W10      1.0000 0.67829  0.40748  0.54772  Biso   1.000  W
  W11      1.0000 0.17829  0.09252  0.04772  Biso   1.000  W
  W12      1.0000 0.32171  0.59252  0.45228  Biso   1.000  W
  O13      1.0000 0.76770  0.01920  0.00660  Biso   1.000  O
  O14      1.0000 0.73230  0.51920  0.49340  Biso   1.000  O
  O15      1.0000 0.23230  0.98080  0.99340  Biso   1.000  O
  O16      1.0000 0.26770  0.48080  0.50660  Biso   1.000  O
  O17      1.0000 0.93780  0.82980  0.91530  Biso   1.000  O
  O18      1.0000 0.56220  0.32980  0.58470  Biso   1.000  O
  O19      1.0000 0.06220  0.17020  0.08470  Biso   1.000  O
  O20      1.0000 0.43780  0.67020  0.41530  Biso   1.000  O
  O21      1.0000 0.04840  0.97980  0.85590  Biso   1.000  O
  O22      1.0000 0.45160  0.47980  0.64410  Biso   1.000  O
  O23      1.0000 0.95160  0.02020  0.14410  Biso   1.000  O
  O24      1.0000 0.54840  0.52020  0.35590  Biso   1.000  O
  O25      1.0000 0.81640  0.99980  0.86240  Biso   1.000  O
  O26      1.0000 0.68360  0.49980  0.63760  Biso   1.000  O
  O27      1.0000 0.18360  0.00020  0.13760  Biso   1.000  O
  O28      1.0000 0.31640  0.50020  0.36240  Biso   1.000  O
  O29      1.0000 0.00000  0.00000  0.00000  Biso   1.000  O
  O30      1.0000 0.50000  0.50000  0.50000  Biso   1.000  O
  O31      1.0000 0.88170  0.17070  0.94750  Biso   1.000  O
  O32      1.0000 0.61830  0.67070  0.55250  Biso   1.000  O
  O33      1.0000 0.11830  0.82930  0.05250  Biso   1.000  O
  O34      1.0000 0.38170  0.32930  0.44750  Biso   1.000  O
  O35      1.0000 0.91820  0.15850  0.78970  Biso   1.000  O
  O36      1.0000 0.58180  0.65850  0.71030  Biso   1.000  O
  O37      1.0000 0.08180  0.84150  0.21030  Biso   1.000  O
  O38      1.0000 0.41820  0.34150  0.28970  Biso   1.000  O
  O39      1.0000 0.89240  0.85230  0.06070  Biso   1.000  O
  O40      1.0000 0.60760  0.35230  0.43930  Biso   1.000  O
  O41      1.0000 0.10760  0.14770  0.93930  Biso   1.000  O
  O42      1.0000 0.39240  0.64770  0.56070  Biso   1.000  O
  O43      1.0000 0.81580  0.20550  0.09800  Biso   1.000  O
  O44      1.0000 0.68420  0.70550  0.40200  Biso   1.000  O
  O45      1.0000 0.18420  0.79450  0.90200  Biso   1.000  O
  O46      1.0000 0.31580  0.29450  0.59800  Biso   1.000  O
  O47      1.0000 0.69370  0.83840  0.91790  Biso   1.000  O
  O48      1.0000 0.80630  0.33840  0.58210  Biso   1.000  O
  O49      1.0000 0.30630  0.16160  0.08210  Biso   1.000  O
  O50      1.0000 0.19370  0.66160  0.41790  Biso   1.000  O
  O51      1.0000 0.41100  0.45800  0.87700  Biso   1.000  O
  O52      1.0000 0.08900  0.95800  0.62300  Biso   1.000  O
  O53      1.0000 0.58900  0.54200  0.12300  Biso   1.000  O
  O54      1.0000 0.91100  0.04200  0.37700  Biso   1.000  O
