data_image0
_cell_length_a       15.4529
_cell_length_b       9.2269
_cell_length_c       24.1404
_cell_angle_alpha    90
_cell_angle_beta     90
_cell_angle_gamma    90

_symmetry_space_group_name_H-M    "P 1"
_symmetry_int_tables_number       1

loop_
  _symmetry_equiv_pos_as_xyz
  'x, y, z'

loop_
  _atom_site_label
  _atom_site_occupancy
  _atom_site_fract_x
  _atom_site_fract_y
  _atom_site_fract_z
  _atom_site_thermal_displace_type
  _atom_site_B_iso_or_equiv
  _atom_site_type_symbol
  Cu1      1.0000 0.25272  0.00605  0.68025  Biso   1.000  Cu
  Cu2      1.0000 0.24728  0.99395  0.18025  Biso   1.000  Cu
  Cu3      1.0000 0.74728  0.50605  0.81975  Biso   1.000  Cu
  Cu4      1.0000 0.75272  0.49395  0.31975  Biso   1.000  Cu
  Cu5      1.0000 0.74728  0.99395  0.31975  Biso   1.000  Cu
  Cu6      1.0000 0.75272  0.00605  0.81975  Biso   1.000  Cu
  Cu7      1.0000 0.25272  0.49395  0.18025  Biso   1.000  Cu
  Cu8      1.0000 0.24728  0.50605  0.68025  Biso   1.000  Cu
  C1       1.0000 0.38303  0.22720  0.65505  Biso   1.000  C
  C2       1.0000 0.11697  0.77280  0.15505  Biso   1.000  C
  C3       1.0000 0.61697  0.72720  0.84495  Biso   1.000  C
  C4       1.0000 0.88303  0.27280  0.34495  Biso   1.000  C
  C5       1.0000 0.61697  0.77280  0.34495  Biso   1.000  C
  C6       1.0000 0.88303  0.22720  0.84495  Biso   1.000  C
  C7       1.0000 0.38303  0.27280  0.15505  Biso   1.000  C
  C8       1.0000 0.11697  0.72720  0.65505  Biso   1.000  C
  H1       1.0000 0.40430  0.32300  0.65970  Biso   1.000  H
  H2       1.0000 0.09570  0.67700  0.15970  Biso   1.000  H
  H3       1.0000 0.59570  0.82300  0.84030  Biso   1.000  H
  H4       1.0000 0.90430  0.17700  0.34030  Biso   1.000  H
  H5       1.0000 0.59570  0.67700  0.34030  Biso   1.000  H
  H6       1.0000 0.90430  0.32300  0.84030  Biso   1.000  H
  H7       1.0000 0.40430  0.17700  0.15970  Biso   1.000  H
  H8       1.0000 0.09570  0.82300  0.65970  Biso   1.000  H
  C9       1.0000 0.43473  0.12500  0.62382  Biso   1.000  C
  C10      1.0000 0.06527  0.87500  0.12382  Biso   1.000  C
  C11      1.0000 0.56527  0.62500  0.87618  Biso   1.000  C
  C12      1.0000 0.93473  0.37500  0.37618  Biso   1.000  C
  C13      1.0000 0.56527  0.87500  0.37618  Biso   1.000  C
  C14      1.0000 0.93473  0.12500  0.87618  Biso   1.000  C
  C15      1.0000 0.43473  0.37500  0.12382  Biso   1.000  C
  C16      1.0000 0.06527  0.62500  0.62382  Biso   1.000  C
  C17      1.0000 0.40292  0.98130  0.61026  Biso   1.000  C
  C18      1.0000 0.09708  0.01870  0.11026  Biso   1.000  C
  C19      1.0000 0.59708  0.48130  0.88974  Biso   1.000  C
  C20      1.0000 0.90292  0.51870  0.38974  Biso   1.000  C
  C21      1.0000 0.59708  0.01870  0.38974  Biso   1.000  C
  C22      1.0000 0.90292  0.98130  0.88974  Biso   1.000  C
  C23      1.0000 0.40292  0.51870  0.11026  Biso   1.000  C
  C24      1.0000 0.09708  0.48130  0.61026  Biso   1.000  C
  C25      1.0000 0.53663  0.93490  0.56073  Biso   1.000  C
  C26      1.0000 0.96337  0.06510  0.06073  Biso   1.000  C
  C27      1.0000 0.46337  0.43490  0.93927  Biso   1.000  C
  C28      1.0000 0.03663  0.56510  0.43927  Biso   1.000  C
  C29      1.0000 0.46337  0.06510  0.43927  Biso   1.000  C
  C30      1.0000 0.03663  0.93490  0.93927  Biso   1.000  C
  C31      1.0000 0.53663  0.56510  0.06073  Biso   1.000  C
  C32      1.0000 0.96337  0.43490  0.56073  Biso   1.000  C
  C33      1.0000 0.56808  0.07510  0.57302  Biso   1.000  C
  C34      1.0000 0.93192  0.92490  0.07302  Biso   1.000  C
  C35      1.0000 0.43192  0.57510  0.92698  Biso   1.000  C
  C36      1.0000 0.06808  0.42490  0.42698  Biso   1.000  C
  C37      1.0000 0.43192  0.92490  0.42698  Biso   1.000  C
  C38      1.0000 0.06808  0.07510  0.92698  Biso   1.000  C
  C39      1.0000 0.56808  0.42490  0.07302  Biso   1.000  C
  C40      1.0000 0.93192  0.57510  0.57302  Biso   1.000  C
  C41      1.0000 0.51449  0.16730  0.60505  Biso   1.000  C
  C42      1.0000 0.98551  0.83270  0.10505  Biso   1.000  C
  C43      1.0000 0.48551  0.66730  0.89495  Biso   1.000  C
  C44      1.0000 0.01449  0.33270  0.39495  Biso   1.000  C
  C45      1.0000 0.48551  0.83270  0.39495  Biso   1.000  C
  C46      1.0000 0.01449  0.16730  0.89495  Biso   1.000  C
  C47      1.0000 0.51449  0.33270  0.10505  Biso   1.000  C
  C48      1.0000 0.98551  0.66730  0.60505  Biso   1.000  C
  H9       1.0000 0.53460  0.26180  0.61380  Biso   1.000  H
  H10      1.0000 0.96540  0.73820  0.11380  Biso   1.000  H
  H11      1.0000 0.46540  0.76180  0.88620  Biso   1.000  H
  H12      1.0000 0.03460  0.23820  0.38620  Biso   1.000  H
  H13      1.0000 0.46540  0.73820  0.38620  Biso   1.000  H
  H14      1.0000 0.03460  0.26180  0.88620  Biso   1.000  H
  H15      1.0000 0.53460  0.23820  0.11380  Biso   1.000  H
  H16      1.0000 0.96540  0.76180  0.61380  Biso   1.000  H
  C49      1.0000 0.58608  0.83890  0.52859  Biso   1.000  C
  C50      1.0000 0.91392  0.16110  0.02859  Biso   1.000  C
  C51      1.0000 0.41392  0.33890  0.97141  Biso   1.000  C
  C52      1.0000 0.08608  0.66110  0.47141  Biso   1.000  C
  C53      1.0000 0.41392  0.16110  0.47141  Biso   1.000  C
  C54      1.0000 0.08608  0.83890  0.97141  Biso   1.000  C
  C55      1.0000 0.58608  0.66110  0.02859  Biso   1.000  C
  C56      1.0000 0.91392  0.33890  0.52859  Biso   1.000  C
  H17      1.0000 0.56530  0.74430  0.52060  Biso   1.000  H
  H18      1.0000 0.93470  0.25570  0.02060  Biso   1.000  H
  H19      1.0000 0.43470  0.24430  0.97940  Biso   1.000  H
  H20      1.0000 0.06530  0.75570  0.47940  Biso   1.000  H
  H21      1.0000 0.43470  0.25570  0.47940  Biso   1.000  H
  H22      1.0000 0.06530  0.74430  0.97940  Biso   1.000  H
  H23      1.0000 0.56530  0.75570  0.02060  Biso   1.000  H
  H24      1.0000 0.93470  0.24430  0.52060  Biso   1.000  H
  C57      1.0000 0.66503  0.88390  0.50880  Biso   1.000  C
  C58      1.0000 0.83497  0.11610  0.00880  Biso   1.000  C
  C59      1.0000 0.33497  0.38390  0.99120  Biso   1.000  C
  C60      1.0000 0.16503  0.61610  0.49120  Biso   1.000  C
  C61      1.0000 0.33497  0.11610  0.49120  Biso   1.000  C
  C62      1.0000 0.16503  0.88390  0.99120  Biso   1.000  C
  C63      1.0000 0.66503  0.61610  0.00880  Biso   1.000  C
  C64      1.0000 0.83497  0.38390  0.50880  Biso   1.000  C
  H25      1.0000 0.69850  0.81960  0.48680  Biso   1.000  H
  H26      1.0000 0.80150  0.18040  0.98680  Biso   1.000  H
  H27      1.0000 0.30150  0.31960  0.01320  Biso   1.000  H
  H28      1.0000 0.19850  0.68040  0.51320  Biso   1.000  H
  H29      1.0000 0.30150  0.18040  0.51320  Biso   1.000  H
  H30      1.0000 0.19850  0.81960  0.01320  Biso   1.000  H
  H31      1.0000 0.69850  0.68040  0.98680  Biso   1.000  H
  H32      1.0000 0.80150  0.31960  0.48680  Biso   1.000  H
  C65      1.0000 0.69735  0.02350  0.52052  Biso   1.000  C
  C66      1.0000 0.80265  0.97650  0.02052  Biso   1.000  C
  C67      1.0000 0.30265  0.52350  0.97948  Biso   1.000  C
  C68      1.0000 0.19735  0.47650  0.47948  Biso   1.000  C
  C69      1.0000 0.30265  0.97650  0.47948  Biso   1.000  C
  C70      1.0000 0.19735  0.02350  0.97948  Biso   1.000  C
  C71      1.0000 0.69735  0.47650  0.02052  Biso   1.000  C
  C72      1.0000 0.80265  0.52350  0.52052  Biso   1.000  C
  H33      1.0000 0.75230  0.05240  0.50670  Biso   1.000  H
  H34      1.0000 0.74770  0.94760  0.00670  Biso   1.000  H
  H35      1.0000 0.24770  0.55240  0.99330  Biso   1.000  H
  H36      1.0000 0.25230  0.44760  0.49330  Biso   1.000  H
  H37      1.0000 0.24770  0.94760  0.49330  Biso   1.000  H
  H38      1.0000 0.25230  0.05240  0.99330  Biso   1.000  H
  H39      1.0000 0.75230  0.44760  0.00670  Biso   1.000  H
  H40      1.0000 0.74770  0.55240  0.50670  Biso   1.000  H
  C73      1.0000 0.64921  0.11670  0.55180  Biso   1.000  C
  C74      1.0000 0.85079  0.88330  0.05180  Biso   1.000  C
  C75      1.0000 0.35079  0.61670  0.94820  Biso   1.000  C
  C76      1.0000 0.14921  0.38330  0.44820  Biso   1.000  C
  C77      1.0000 0.35079  0.88330  0.44820  Biso   1.000  C
  C78      1.0000 0.14921  0.11670  0.94820  Biso   1.000  C
  C79      1.0000 0.64921  0.38330  0.05180  Biso   1.000  C
  C80      1.0000 0.85079  0.61670  0.55180  Biso   1.000  C
  H41      1.0000 0.67080  0.21100  0.55940  Biso   1.000  H
  H42      1.0000 0.82920  0.78900  0.05940  Biso   1.000  H
  H43      1.0000 0.32920  0.71100  0.94060  Biso   1.000  H
  H44      1.0000 0.17080  0.28900  0.44060  Biso   1.000  H
  H45      1.0000 0.32920  0.78900  0.44060  Biso   1.000  H
  H46      1.0000 0.17080  0.21100  0.94060  Biso   1.000  H
  H47      1.0000 0.67080  0.28900  0.05940  Biso   1.000  H
  H48      1.0000 0.82920  0.71100  0.55940  Biso   1.000  H
  C81      1.0000 0.20323  0.24423  0.73592  Biso   1.000  C
  C82      1.0000 0.29677  0.75577  0.23592  Biso   1.000  C
  C83      1.0000 0.79677  0.74423  0.76408  Biso   1.000  C
  C84      1.0000 0.70323  0.25577  0.26408  Biso   1.000  C
  C85      1.0000 0.79677  0.75577  0.26408  Biso   1.000  C
  C86      1.0000 0.70323  0.24423  0.76408  Biso   1.000  C
  C87      1.0000 0.20323  0.25577  0.23592  Biso   1.000  C
  C88      1.0000 0.29677  0.74423  0.73592  Biso   1.000  C
  C89      1.0000 0.15101  0.34800  0.77011  Biso   1.000  C
  C90      1.0000 0.34899  0.65200  0.27011  Biso   1.000  C
  C91      1.0000 0.84899  0.84800  0.72989  Biso   1.000  C
  C92      1.0000 0.65101  0.15200  0.22989  Biso   1.000  C
  C93      1.0000 0.84899  0.65200  0.22989  Biso   1.000  C
  C94      1.0000 0.65101  0.34800  0.72989  Biso   1.000  C
  C95      1.0000 0.15101  0.15200  0.27011  Biso   1.000  C
  C96      1.0000 0.34899  0.84800  0.77011  Biso   1.000  C
  C97      1.0000 0.18631  0.40740  0.81854  Biso   1.000  C
  C98      1.0000 0.31369  0.59260  0.31854  Biso   1.000  C
  C99      1.0000 0.81369  0.90740  0.68146  Biso   1.000  C
  C100     1.0000 0.68631  0.09260  0.18146  Biso   1.000  C
  C101     1.0000 0.81369  0.59260  0.18146  Biso   1.000  C
  C102     1.0000 0.68631  0.40740  0.68146  Biso   1.000  C
  C103     1.0000 0.18631  0.09260  0.31854  Biso   1.000  C
  C104     1.0000 0.31369  0.90740  0.81854  Biso   1.000  C
  C105     1.0000 0.13573  0.50580  0.84804  Biso   1.000  C
  C106     1.0000 0.36427  0.49420  0.34804  Biso   1.000  C
  C107     1.0000 0.86427  0.00580  0.65196  Biso   1.000  C
  C108     1.0000 0.63573  0.99420  0.15196  Biso   1.000  C
  C109     1.0000 0.86427  0.49420  0.15196  Biso   1.000  C
  C110     1.0000 0.63573  0.50580  0.65196  Biso   1.000  C
  C111     1.0000 0.13573  0.99420  0.34804  Biso   1.000  C
  C112     1.0000 0.36427  0.00580  0.84804  Biso   1.000  C
  H49      1.0000 0.15760  0.54580  0.88150  Biso   1.000  H
  H50      1.0000 0.34240  0.45420  0.38150  Biso   1.000  H
  H51      1.0000 0.84240  0.04580  0.61850  Biso   1.000  H
  H52      1.0000 0.65760  0.95420  0.11850  Biso   1.000  H
  H53      1.0000 0.84240  0.45420  0.11850  Biso   1.000  H
  H54      1.0000 0.65760  0.54580  0.61850  Biso   1.000  H
  H55      1.0000 0.15760  0.95420  0.38150  Biso   1.000  H
  H56      1.0000 0.34240  0.04580  0.88150  Biso   1.000  H
  C113     1.0000 0.05470  0.54670  0.82983  Biso   1.000  C
  C114     1.0000 0.44530  0.45330  0.32983  Biso   1.000  C
  C115     1.0000 0.94530  0.04670  0.67017  Biso   1.000  C
  C116     1.0000 0.55470  0.95330  0.17017  Biso   1.000  C
  C117     1.0000 0.94530  0.45330  0.17017  Biso   1.000  C
  C118     1.0000 0.55470  0.54670  0.67017  Biso   1.000  C
  C119     1.0000 0.05470  0.95330  0.32983  Biso   1.000  C
  C120     1.0000 0.44530  0.04670  0.82983  Biso   1.000  C
  H57      1.0000 0.02200  0.61520  0.85050  Biso   1.000  H
  H58      1.0000 0.47800  0.38480  0.35050  Biso   1.000  H
  H59      1.0000 0.97800  0.11520  0.64950  Biso   1.000  H
  H60      1.0000 0.52200  0.88480  0.14950  Biso   1.000  H
  H61      1.0000 0.97800  0.38480  0.14950  Biso   1.000  H
  H62      1.0000 0.52200  0.61520  0.64950  Biso   1.000  H
  H63      1.0000 0.02200  0.88480  0.35050  Biso   1.000  H
  H64      1.0000 0.47800  0.11520  0.85050  Biso   1.000  H
  C121     1.0000 0.02056  0.48860  0.78156  Biso   1.000  C
  C122     1.0000 0.47944  0.51140  0.28156  Biso   1.000  C
  C123     1.0000 0.97944  0.98860  0.71844  Biso   1.000  C
  C124     1.0000 0.52056  0.01140  0.21844  Biso   1.000  C
  C125     1.0000 0.97944  0.51140  0.21844  Biso   1.000  C
  C126     1.0000 0.52056  0.48860  0.71844  Biso   1.000  C
  C127     1.0000 0.02056  0.01140  0.28156  Biso   1.000  C
  C128     1.0000 0.47944  0.98860  0.78156  Biso   1.000  C
  H65      1.0000 0.96510  0.51800  0.76880  Biso   1.000  H
  H66      1.0000 0.53490  0.48200  0.26880  Biso   1.000  H
  H67      1.0000 0.03490  0.01800  0.73120  Biso   1.000  H
  H68      1.0000 0.46510  0.98200  0.23120  Biso   1.000  H
  H69      1.0000 0.03490  0.48200  0.23120  Biso   1.000  H
  H70      1.0000 0.46510  0.51800  0.73120  Biso   1.000  H
  H71      1.0000 0.96510  0.98200  0.26880  Biso   1.000  H
  H72      1.0000 0.53490  0.01800  0.76880  Biso   1.000  H
  C129     1.0000 0.06825  0.38700  0.75205  Biso   1.000  C
  C130     1.0000 0.43175  0.61300  0.25205  Biso   1.000  C
  C131     1.0000 0.93175  0.88700  0.74795  Biso   1.000  C
  C132     1.0000 0.56825  0.11300  0.24795  Biso   1.000  C
  C133     1.0000 0.93175  0.61300  0.24795  Biso   1.000  C
  C134     1.0000 0.56825  0.38700  0.74795  Biso   1.000  C
  C135     1.0000 0.06825  0.11300  0.25205  Biso   1.000  C
  C136     1.0000 0.43175  0.88700  0.75205  Biso   1.000  C
  H73      1.0000 0.04470  0.34400  0.71960  Biso   1.000  H
  H74      1.0000 0.45530  0.65600  0.21960  Biso   1.000  H
  H75      1.0000 0.95530  0.84400  0.78040  Biso   1.000  H
  H76      1.0000 0.54470  0.15600  0.28040  Biso   1.000  H
  H77      1.0000 0.95530  0.65600  0.28040  Biso   1.000  H
  H78      1.0000 0.54470  0.34400  0.78040  Biso   1.000  H
  H79      1.0000 0.04470  0.15600  0.21960  Biso   1.000  H
  H80      1.0000 0.45530  0.84400  0.71960  Biso   1.000  H
  C137     1.0000 0.27552  0.36870  0.83752  Biso   1.000  C
  C138     1.0000 0.22448  0.63130  0.33752  Biso   1.000  C
  C139     1.0000 0.72448  0.86870  0.66248  Biso   1.000  C
  C140     1.0000 0.77552  0.13130  0.16248  Biso   1.000  C
  C141     1.0000 0.72448  0.63130  0.16248  Biso   1.000  C
  C142     1.0000 0.77552  0.36870  0.66248  Biso   1.000  C
  C143     1.0000 0.27552  0.13130  0.33752  Biso   1.000  C
  C144     1.0000 0.22448  0.86870  0.83752  Biso   1.000  C
  H81      1.0000 0.28460  0.28280  0.83110  Biso   1.000  H
  H82      1.0000 0.21540  0.71720  0.33110  Biso   1.000  H
  H83      1.0000 0.71540  0.78280  0.66890  Biso   1.000  H
  H84      1.0000 0.78460  0.21720  0.16890  Biso   1.000  H
  H85      1.0000 0.71540  0.71720  0.16890  Biso   1.000  H
  H86      1.0000 0.78460  0.28280  0.66890  Biso   1.000  H
  H87      1.0000 0.28460  0.21720  0.33110  Biso   1.000  H
  H88      1.0000 0.21540  0.78280  0.83110  Biso   1.000  H
  H89      1.0000 0.27900  0.37710  0.87730  Biso   1.000  H
  H90      1.0000 0.22100  0.62290  0.37730  Biso   1.000  H
  H91      1.0000 0.72100  0.87710  0.62270  Biso   1.000  H
  H92      1.0000 0.77900  0.12290  0.12270  Biso   1.000  H
  H93      1.0000 0.72100  0.62290  0.12270  Biso   1.000  H
  H94      1.0000 0.77900  0.37710  0.62270  Biso   1.000  H
  H95      1.0000 0.27900  0.12290  0.37730  Biso   1.000  H
  H96      1.0000 0.22100  0.87710  0.87730  Biso   1.000  H
  H97      1.0000 0.31730  0.43280  0.82090  Biso   1.000  H
  H98      1.0000 0.18270  0.56720  0.32090  Biso   1.000  H
  H99      1.0000 0.68270  0.93280  0.67910  Biso   1.000  H
  H100     1.0000 0.81730  0.06720  0.17910  Biso   1.000  H
  H101     1.0000 0.68270  0.56720  0.17910  Biso   1.000  H
  H102     1.0000 0.81730  0.43280  0.67910  Biso   1.000  H
  H103     1.0000 0.31730  0.06720  0.32090  Biso   1.000  H
  H104     1.0000 0.18270  0.93280  0.82090  Biso   1.000  H
  N1       1.0000 0.31001  0.19437  0.67669  Biso   1.000  N
  N2       1.0000 0.18999  0.80563  0.17669  Biso   1.000  N
  N3       1.0000 0.68999  0.69437  0.82331  Biso   1.000  N
  N4       1.0000 0.81001  0.30563  0.32331  Biso   1.000  N
  N5       1.0000 0.68999  0.80563  0.32331  Biso   1.000  N
  N6       1.0000 0.81001  0.19437  0.82331  Biso   1.000  N
  N7       1.0000 0.31001  0.30563  0.17669  Biso   1.000  N
  N8       1.0000 0.18999  0.69437  0.67669  Biso   1.000  N
  N9       1.0000 0.45611  0.89441  0.58051  Biso   1.000  N
  N10      1.0000 0.04389  0.10559  0.08051  Biso   1.000  N
  N11      1.0000 0.54389  0.39441  0.91949  Biso   1.000  N
  N12      1.0000 0.95611  0.60559  0.41949  Biso   1.000  N
  N13      1.0000 0.54389  0.10559  0.41949  Biso   1.000  N
  N14      1.0000 0.95611  0.89441  0.91949  Biso   1.000  N
  N15      1.0000 0.45611  0.60559  0.08051  Biso   1.000  N
  N16      1.0000 0.04389  0.39441  0.58051  Biso   1.000  N
  H105     1.0000 0.43070  0.79590  0.56990  Biso   1.000  H
  H106     1.0000 0.06930  0.20410  0.06990  Biso   1.000  H
  H107     1.0000 0.56930  0.29590  0.93010  Biso   1.000  H
  H108     1.0000 0.93070  0.70410  0.43010  Biso   1.000  H
  H109     1.0000 0.56930  0.20410  0.43010  Biso   1.000  H
  H110     1.0000 0.93070  0.79590  0.93010  Biso   1.000  H
  H111     1.0000 0.43070  0.70410  0.06990  Biso   1.000  H
  H112     1.0000 0.06930  0.29590  0.56990  Biso   1.000  H
  N17      1.0000 0.26634  0.30223  0.70649  Biso   1.000  N
  N18      1.0000 0.23366  0.69777  0.20649  Biso   1.000  N
  N19      1.0000 0.73366  0.80223  0.79351  Biso   1.000  N
  N20      1.0000 0.76634  0.19777  0.29351  Biso   1.000  N
  N21      1.0000 0.73366  0.69777  0.29351  Biso   1.000  N
  N22      1.0000 0.76634  0.30223  0.79351  Biso   1.000  N
  N23      1.0000 0.26634  0.19777  0.20649  Biso   1.000  N
  N24      1.0000 0.23366  0.80223  0.70649  Biso   1.000  N
  N25      1.0000 0.12571  0.03450  0.57497  Biso   1.000  N
  N26      1.0000 0.37429  0.96550  0.07497  Biso   1.000  N
  N27      1.0000 0.87429  0.53450  0.92503  Biso   1.000  N
  N28      1.0000 0.62571  0.46550  0.42503  Biso   1.000  N
  N29      1.0000 0.87429  0.96550  0.42503  Biso   1.000  N
  N30      1.0000 0.62571  0.03450  0.92503  Biso   1.000  N
  N31      1.0000 0.12571  0.46550  0.07497  Biso   1.000  N
  N32      1.0000 0.37429  0.53450  0.57497  Biso   1.000  N
  O1       1.0000 0.33017  0.93057  0.62381  Biso   1.000  O
  O2       1.0000 0.16983  0.06943  0.12381  Biso   1.000  O
  O3       1.0000 0.66983  0.43057  0.87619  Biso   1.000  O
  O4       1.0000 0.83017  0.56943  0.37619  Biso   1.000  O
  O5       1.0000 0.66983  0.06943  0.37619  Biso   1.000  O
  O6       1.0000 0.83017  0.93057  0.87619  Biso   1.000  O
  O7       1.0000 0.33017  0.56943  0.12381  Biso   1.000  O
  O8       1.0000 0.16983  0.43057  0.62381  Biso   1.000  O
  O9       1.0000 0.18542  0.10918  0.73732  Biso   1.000  O
  O10      1.0000 0.31458  0.89082  0.23732  Biso   1.000  O
  O11      1.0000 0.81458  0.60918  0.76268  Biso   1.000  O
  O12      1.0000 0.68542  0.39082  0.26268  Biso   1.000  O
  O13      1.0000 0.81458  0.89082  0.26268  Biso   1.000  O
  O14      1.0000 0.68542  0.10918  0.76268  Biso   1.000  O
  O15      1.0000 0.18542  0.39082  0.23732  Biso   1.000  O
  O16      1.0000 0.31458  0.60918  0.73732  Biso   1.000  O
  O17      1.0000 0.14075  0.07586  0.62398  Biso   1.000  O
  O18      1.0000 0.35925  0.92414  0.12398  Biso   1.000  O
  O19      1.0000 0.85925  0.57586  0.87602  Biso   1.000  O
  O20      1.0000 0.64075  0.42414  0.37602  Biso   1.000  O
  O21      1.0000 0.85925  0.92414  0.37602  Biso   1.000  O
  O22      1.0000 0.64075  0.07586  0.87602  Biso   1.000  O
  O23      1.0000 0.14075  0.42414  0.12398  Biso   1.000  O
  O24      1.0000 0.35925  0.57586  0.62398  Biso   1.000  O
  O25      1.0000 0.09612  0.12451  0.54083  Biso   1.000  O
  O26      1.0000 0.40388  0.87549  0.04083  Biso   1.000  O
  O27      1.0000 0.90388  0.62451  0.95917  Biso   1.000  O
  O28      1.0000 0.59612  0.37549  0.45917  Biso   1.000  O
  O29      1.0000 0.90388  0.87549  0.45917  Biso   1.000  O
  O30      1.0000 0.59612  0.12451  0.95917  Biso   1.000  O
  O31      1.0000 0.09612  0.37549  0.04083  Biso   1.000  O
  O32      1.0000 0.40388  0.62451  0.54083  Biso   1.000  O
  O33      1.0000 0.13898  0.90793  0.56067  Biso   1.000  O
  O34      1.0000 0.36102  0.09207  0.06067  Biso   1.000  O
  O35      1.0000 0.86102  0.40793  0.93933  Biso   1.000  O
  O36      1.0000 0.63898  0.59207  0.43933  Biso   1.000  O
  O37      1.0000 0.86102  0.09207  0.43933  Biso   1.000  O
  O38      1.0000 0.63898  0.90793  0.93933  Biso   1.000  O
  O39      1.0000 0.13898  0.59207  0.06067  Biso   1.000  O
  O40      1.0000 0.36102  0.40793  0.56067  Biso   1.000  O
