data_image0
_cell_length_a       12.557
_cell_length_b       17.529
_cell_length_c       20.975
_cell_angle_alpha    90
_cell_angle_beta     90
_cell_angle_gamma    90

_symmetry_space_group_name_H-M    "P 1"
_symmetry_int_tables_number       1

loop_
  _symmetry_equiv_pos_as_xyz
  'x, y, z'

loop_
  _atom_site_label
  _atom_site_occupancy
  _atom_site_fract_x
  _atom_site_fract_y
  _atom_site_fract_z
  _atom_site_thermal_displace_type
  _atom_site_B_iso_or_equiv
  _atom_site_type_symbol
  H1       1.0000 0.83520  0.20600  0.06400  Biso   1.000  H
  H2       1.0000 0.66480  0.79400  0.56400  Biso   1.000  H
  H3       1.0000 0.16480  0.70600  0.43600  Biso   1.000  H
  H4       1.0000 0.33520  0.29400  0.93600  Biso   1.000  H
  H5       1.0000 0.71960  0.79460  0.06490  Biso   1.000  H
  H6       1.0000 0.78040  0.20540  0.56490  Biso   1.000  H
  H7       1.0000 0.28040  0.29460  0.43510  Biso   1.000  H
  H8       1.0000 0.21960  0.70540  0.93510  Biso   1.000  H
  C1       1.0000 0.75220  0.64467  0.98575  Biso   1.000  C
  C2       1.0000 0.74780  0.35533  0.48575  Biso   1.000  C
  C3       1.0000 0.24780  0.14467  0.51425  Biso   1.000  C
  C4       1.0000 0.25220  0.85533  0.01425  Biso   1.000  C
  C5       1.0000 0.66860  0.58832  0.96913  Biso   1.000  C
  C6       1.0000 0.83140  0.41168  0.46913  Biso   1.000  C
  C7       1.0000 0.33140  0.08832  0.53087  Biso   1.000  C
  C8       1.0000 0.16860  0.91168  0.03087  Biso   1.000  C
  C9       1.0000 0.66050  0.56790  0.90481  Biso   1.000  C
  C10      1.0000 0.83950  0.43210  0.40481  Biso   1.000  C
  C11      1.0000 0.33950  0.06790  0.59519  Biso   1.000  C
  C12      1.0000 0.16050  0.93210  0.09519  Biso   1.000  C
  H9       1.0000 0.69790  0.59560  0.87440  Biso   1.000  H
  H10      1.0000 0.80210  0.40440  0.37440  Biso   1.000  H
  H11      1.0000 0.30210  0.09560  0.62560  Biso   1.000  H
  H12      1.0000 0.19790  0.90440  0.12560  Biso   1.000  H
  C13      1.0000 0.59850  0.50780  0.88582  Biso   1.000  C
  C14      1.0000 0.90150  0.49220  0.38582  Biso   1.000  C
  C15      1.0000 0.40150  0.00780  0.61418  Biso   1.000  C
  C16      1.0000 0.09850  0.99220  0.11418  Biso   1.000  C
  H13      1.0000 0.59460  0.49450  0.84300  Biso   1.000  H
  H14      1.0000 0.90540  0.50550  0.34300  Biso   1.000  H
  H15      1.0000 0.40540  0.99450  0.65700  Biso   1.000  H
  H16      1.0000 0.09460  0.00550  0.15700  Biso   1.000  H
  C17      1.0000 0.54190  0.46730  0.93105  Biso   1.000  C
  C18      1.0000 0.95810  0.53270  0.43105  Biso   1.000  C
  C19      1.0000 0.45810  0.96730  0.56895  Biso   1.000  C
  C20      1.0000 0.04190  0.03270  0.06895  Biso   1.000  C
  H17      1.0000 0.50190  0.42510  0.91890  Biso   1.000  H
  H18      1.0000 0.99810  0.57490  0.41890  Biso   1.000  H
  H19      1.0000 0.49810  0.92510  0.58110  Biso   1.000  H
  H20      1.0000 0.00190  0.07490  0.08110  Biso   1.000  H
  C21      1.0000 0.54480  0.48955  0.99436  Biso   1.000  C
  C22      1.0000 0.95520  0.51045  0.49436  Biso   1.000  C
  C23      1.0000 0.45520  0.98955  0.50564  Biso   1.000  C
  C24      1.0000 0.04480  0.01045  0.00564  Biso   1.000  C
  H21      1.0000 0.50440  0.46300  0.02420  Biso   1.000  H
  H22      1.0000 0.99560  0.53700  0.52420  Biso   1.000  H
  H23      1.0000 0.49560  0.96300  0.47580  Biso   1.000  H
  H24      1.0000 0.00440  0.03700  0.97580  Biso   1.000  H
  C25      1.0000 0.60700  0.55072  0.01421  Biso   1.000  C
  C26      1.0000 0.89300  0.44928  0.51421  Biso   1.000  C
  C27      1.0000 0.39300  0.05072  0.48579  Biso   1.000  C
  C28      1.0000 0.10700  0.94928  0.98579  Biso   1.000  C
  C29      1.0000 0.60630  0.56965  0.08379  Biso   1.000  C
  C30      1.0000 0.89370  0.43035  0.58379  Biso   1.000  C
  C31      1.0000 0.39370  0.06965  0.41621  Biso   1.000  C
  C32      1.0000 0.10630  0.93035  0.91621  Biso   1.000  C
  C33      1.0000 0.63670  0.51278  0.12620  Biso   1.000  C
  C34      1.0000 0.86330  0.48722  0.62620  Biso   1.000  C
  C35      1.0000 0.36330  0.01278  0.37380  Biso   1.000  C
  C36      1.0000 0.13670  0.98722  0.87380  Biso   1.000  C
  H25      1.0000 0.65650  0.46520  0.11060  Biso   1.000  H
  H26      1.0000 0.84350  0.53480  0.61060  Biso   1.000  H
  H27      1.0000 0.34350  0.96520  0.38940  Biso   1.000  H
  H28      1.0000 0.15650  0.03480  0.88940  Biso   1.000  H
  C37      1.0000 0.63800  0.52550  0.19065  Biso   1.000  C
  C38      1.0000 0.86200  0.47450  0.69065  Biso   1.000  C
  C39      1.0000 0.36200  0.02550  0.30935  Biso   1.000  C
  C40      1.0000 0.13800  0.97450  0.80935  Biso   1.000  C
  H29      1.0000 0.65830  0.48660  0.21820  Biso   1.000  H
  H30      1.0000 0.84170  0.51340  0.71820  Biso   1.000  H
  H31      1.0000 0.34170  0.98660  0.28180  Biso   1.000  H
  H32      1.0000 0.15830  0.01340  0.78180  Biso   1.000  H
  C41      1.0000 0.60960  0.59510  0.21455  Biso   1.000  C
  C42      1.0000 0.89040  0.40490  0.71455  Biso   1.000  C
  C43      1.0000 0.39040  0.09510  0.28545  Biso   1.000  C
  C44      1.0000 0.10960  0.90490  0.78545  Biso   1.000  C
  H33      1.0000 0.61000  0.60340  0.25830  Biso   1.000  H
  H34      1.0000 0.89000  0.39660  0.75830  Biso   1.000  H
  H35      1.0000 0.39000  0.10340  0.24170  Biso   1.000  H
  H36      1.0000 0.11000  0.89660  0.74170  Biso   1.000  H
  C45      1.0000 0.58030  0.65311  0.17345  Biso   1.000  C
  C46      1.0000 0.91970  0.34689  0.67345  Biso   1.000  C
  C47      1.0000 0.41970  0.15311  0.32655  Biso   1.000  C
  C48      1.0000 0.08030  0.84689  0.82655  Biso   1.000  C
  H37      1.0000 0.56280  0.70090  0.18970  Biso   1.000  H
  H38      1.0000 0.93720  0.29910  0.68970  Biso   1.000  H
  H39      1.0000 0.43720  0.20090  0.31030  Biso   1.000  H
  H40      1.0000 0.06280  0.79910  0.81030  Biso   1.000  H
  C49      1.0000 0.57680  0.64048  0.10769  Biso   1.000  C
  C50      1.0000 0.92320  0.35952  0.60769  Biso   1.000  C
  C51      1.0000 0.42320  0.14048  0.39231  Biso   1.000  C
  C52      1.0000 0.07680  0.85952  0.89231  Biso   1.000  C
  C53      1.0000 0.53810  0.70634  0.06809  Biso   1.000  C
  C54      1.0000 0.96190  0.29366  0.56809  Biso   1.000  C
  C55      1.0000 0.46190  0.20634  0.43191  Biso   1.000  C
  C56      1.0000 0.03810  0.79366  0.93191  Biso   1.000  C
  C57      1.0000 0.51080  0.20067  0.94495  Biso   1.000  C
  C58      1.0000 0.98920  0.79933  0.44495  Biso   1.000  C
  C59      1.0000 0.48920  0.70067  0.55505  Biso   1.000  C
  C60      1.0000 0.01080  0.29933  0.05505  Biso   1.000  C
  C61      1.0000 0.47530  0.13731  0.90232  Biso   1.000  C
  C62      1.0000 0.02470  0.86269  0.40232  Biso   1.000  C
  C63      1.0000 0.52470  0.63731  0.59768  Biso   1.000  C
  C64      1.0000 0.97530  0.36269  0.09768  Biso   1.000  C
  C65      1.0000 0.48530  0.14981  0.83687  Biso   1.000  C
  C66      1.0000 0.01470  0.85019  0.33687  Biso   1.000  C
  C67      1.0000 0.51470  0.64981  0.66313  Biso   1.000  C
  C68      1.0000 0.98530  0.35019  0.16313  Biso   1.000  C
  H41      1.0000 0.50690  0.19730  0.82200  Biso   1.000  H
  H42      1.0000 0.99310  0.80270  0.32200  Biso   1.000  H
  H43      1.0000 0.49310  0.69730  0.67800  Biso   1.000  H
  H44      1.0000 0.00690  0.30270  0.17800  Biso   1.000  H
  C69      1.0000 0.46330  0.09210  0.79416  Biso   1.000  C
  C70      1.0000 0.03670  0.90790  0.29416  Biso   1.000  C
  C71      1.0000 0.53670  0.59210  0.70584  Biso   1.000  C
  C72      1.0000 0.96330  0.40790  0.20584  Biso   1.000  C
  H45      1.0000 0.47350  0.10010  0.75080  Biso   1.000  H
  H46      1.0000 0.02650  0.89990  0.25080  Biso   1.000  H
  H47      1.0000 0.52650  0.60010  0.74920  Biso   1.000  H
  H48      1.0000 0.97350  0.39990  0.24920  Biso   1.000  H
  C73      1.0000 0.42640  0.02300  0.81528  Biso   1.000  C
  C74      1.0000 0.07360  0.97700  0.31528  Biso   1.000  C
  C75      1.0000 0.57360  0.52300  0.68472  Biso   1.000  C
  C76      1.0000 0.92640  0.47700  0.18472  Biso   1.000  C
  H49      1.0000 0.40900  0.98490  0.78620  Biso   1.000  H
  H50      1.0000 0.09100  0.01510  0.28620  Biso   1.000  H
  H51      1.0000 0.59100  0.48490  0.71380  Biso   1.000  H
  H52      1.0000 0.90900  0.51510  0.21380  Biso   1.000  H
  C77      1.0000 0.41520  0.01018  0.87934  Biso   1.000  C
  C78      1.0000 0.08480  0.98982  0.37934  Biso   1.000  C
  C79      1.0000 0.58480  0.51018  0.62066  Biso   1.000  C
  C80      1.0000 0.91520  0.48982  0.12066  Biso   1.000  C
  H53      1.0000 0.39110  0.96290  0.89330  Biso   1.000  H
  H54      1.0000 0.10890  0.03710  0.39330  Biso   1.000  H
  H55      1.0000 0.60890  0.46290  0.60670  Biso   1.000  H
  H56      1.0000 0.89110  0.53710  0.10670  Biso   1.000  H
  C81      1.0000 0.43900  0.06635  0.92389  Biso   1.000  C
  C82      1.0000 0.06100  0.93365  0.42389  Biso   1.000  C
  C83      1.0000 0.56100  0.56635  0.57611  Biso   1.000  C
  C84      1.0000 0.93900  0.43365  0.07611  Biso   1.000  C
  C85      1.0000 0.42790  0.04796  0.99315  Biso   1.000  C
  C86      1.0000 0.07210  0.95204  0.49315  Biso   1.000  C
  C87      1.0000 0.57210  0.54796  0.50685  Biso   1.000  C
  C88      1.0000 0.92790  0.45204  0.00685  Biso   1.000  C
  C89      1.0000 0.48290  0.98488  0.01638  Biso   1.000  C
  C90      1.0000 0.01710  0.01512  0.51638  Biso   1.000  C
  C91      1.0000 0.51710  0.48488  0.48362  Biso   1.000  C
  C92      1.0000 0.98290  0.51512  0.98362  Biso   1.000  C
  H57      1.0000 0.52400  0.95620  0.98840  Biso   1.000  H
  H58      1.0000 0.97600  0.04380  0.48840  Biso   1.000  H
  H59      1.0000 0.47600  0.45620  0.51160  Biso   1.000  H
  H60      1.0000 0.02400  0.54380  0.01160  Biso   1.000  H
  C93      1.0000 0.47840  0.96360  0.07978  Biso   1.000  C
  C94      1.0000 0.02160  0.03640  0.57978  Biso   1.000  C
  C95      1.0000 0.52160  0.46360  0.42022  Biso   1.000  C
  C96      1.0000 0.97840  0.53640  0.92022  Biso   1.000  C
  H61      1.0000 0.51470  0.92050  0.09380  Biso   1.000  H
  H62      1.0000 0.98530  0.07950  0.59380  Biso   1.000  H
  H63      1.0000 0.48530  0.42050  0.40620  Biso   1.000  H
  H64      1.0000 0.01470  0.57950  0.90620  Biso   1.000  H
  C97      1.0000 0.42000  0.00650  0.12177  Biso   1.000  C
  C98      1.0000 0.08000  0.99350  0.62177  Biso   1.000  C
  C99      1.0000 0.58000  0.50650  0.37823  Biso   1.000  C
  C100     1.0000 0.92000  0.49350  0.87823  Biso   1.000  C
  H65      1.0000 0.41860  0.99380  0.16480  Biso   1.000  H
  H66      1.0000 0.08140  0.00620  0.66480  Biso   1.000  H
  H67      1.0000 0.58140  0.49380  0.33520  Biso   1.000  H
  H68      1.0000 0.91860  0.50620  0.83520  Biso   1.000  H
  C101     1.0000 0.36360  0.06830  0.09982  Biso   1.000  C
  C102     1.0000 0.13640  0.93170  0.59982  Biso   1.000  C
  C103     1.0000 0.63640  0.56830  0.40018  Biso   1.000  C
  C104     1.0000 0.86360  0.43170  0.90018  Biso   1.000  C
  H69      1.0000 0.32430  0.09750  0.12840  Biso   1.000  H
  H70      1.0000 0.17570  0.90250  0.62840  Biso   1.000  H
  H71      1.0000 0.67570  0.59750  0.37160  Biso   1.000  H
  H72      1.0000 0.82430  0.40250  0.87160  Biso   1.000  H
  C105     1.0000 0.36430  0.08822  0.03539  Biso   1.000  C
  C106     1.0000 0.13570  0.91178  0.53539  Biso   1.000  C
  C107     1.0000 0.63570  0.58822  0.46461  Biso   1.000  C
  C108     1.0000 0.86430  0.41178  0.96461  Biso   1.000  C
  C109     1.0000 0.28680  0.14722  0.01428  Biso   1.000  C
  C110     1.0000 0.21320  0.85278  0.51428  Biso   1.000  C
  C111     1.0000 0.71320  0.64722  0.48572  Biso   1.000  C
  C112     1.0000 0.78680  0.35278  0.98572  Biso   1.000  C
  C113     1.0000 0.46100  0.28991  0.09975  Biso   1.000  C
  C114     1.0000 0.03900  0.71009  0.59975  Biso   1.000  C
  C115     1.0000 0.53900  0.78991  0.40025  Biso   1.000  C
  C116     1.0000 0.96100  0.21009  0.90025  Biso   1.000  C
  H73      1.0000 0.41820  0.28290  0.06400  Biso   1.000  H
  H74      1.0000 0.08180  0.71710  0.56400  Biso   1.000  H
  H75      1.0000 0.58180  0.78290  0.43600  Biso   1.000  H
  H76      1.0000 0.91820  0.21710  0.93600  Biso   1.000  H
  C117     1.0000 0.59860  0.30087  0.16118  Biso   1.000  C
  C118     1.0000 0.90140  0.69913  0.66118  Biso   1.000  C
  C119     1.0000 0.40140  0.80087  0.33882  Biso   1.000  C
  C120     1.0000 0.09860  0.19913  0.83882  Biso   1.000  C
  C121     1.0000 0.70070  0.30281  0.18664  Biso   1.000  C
  C122     1.0000 0.79930  0.69719  0.68664  Biso   1.000  C
  C123     1.0000 0.29930  0.80281  0.31336  Biso   1.000  C
  C124     1.0000 0.20070  0.19719  0.81336  Biso   1.000  C
  H77      1.0000 0.76090  0.29460  0.16170  Biso   1.000  H
  H78      1.0000 0.73910  0.70540  0.66170  Biso   1.000  H
  H79      1.0000 0.23910  0.79460  0.33830  Biso   1.000  H
  H80      1.0000 0.26090  0.20540  0.83830  Biso   1.000  H
  C125     1.0000 0.70740  0.31750  0.25082  Biso   1.000  C
  C126     1.0000 0.79260  0.68250  0.75082  Biso   1.000  C
  C127     1.0000 0.29260  0.81750  0.24918  Biso   1.000  C
  C128     1.0000 0.20740  0.18250  0.74918  Biso   1.000  C
  H81      1.0000 0.77430  0.32010  0.26970  Biso   1.000  H
  H82      1.0000 0.72570  0.67990  0.76970  Biso   1.000  H
  H83      1.0000 0.22570  0.82010  0.23030  Biso   1.000  H
  H84      1.0000 0.27430  0.17990  0.73030  Biso   1.000  H
  C129     1.0000 0.61830  0.32878  0.28855  Biso   1.000  C
  C130     1.0000 0.88170  0.67122  0.78855  Biso   1.000  C
  C131     1.0000 0.38170  0.82878  0.21145  Biso   1.000  C
  C132     1.0000 0.11830  0.17122  0.71145  Biso   1.000  C
  H85      1.0000 0.62720  0.33720  0.33200  Biso   1.000  H
  H86      1.0000 0.87280  0.66280  0.83200  Biso   1.000  H
  H87      1.0000 0.37280  0.83720  0.16800  Biso   1.000  H
  H88      1.0000 0.12720  0.16280  0.66800  Biso   1.000  H
  C133     1.0000 0.51780  0.32776  0.26366  Biso   1.000  C
  C134     1.0000 0.98220  0.67224  0.76366  Biso   1.000  C
  C135     1.0000 0.48220  0.82776  0.23634  Biso   1.000  C
  C136     1.0000 0.01780  0.17224  0.73634  Biso   1.000  C
  H89      1.0000 0.45790  0.33630  0.28880  Biso   1.000  H
  H90      1.0000 0.04210  0.66370  0.78880  Biso   1.000  H
  H91      1.0000 0.54210  0.83630  0.21120  Biso   1.000  H
  H92      1.0000 0.95790  0.16370  0.71120  Biso   1.000  H
  C137     1.0000 0.51000  0.31330  0.19859  Biso   1.000  C
  C138     1.0000 0.99000  0.68670  0.69859  Biso   1.000  C
  C139     1.0000 0.49000  0.81330  0.30141  Biso   1.000  C
  C140     1.0000 0.01000  0.18670  0.80141  Biso   1.000  C
  C141     1.0000 0.31250  0.32780  0.17181  Biso   1.000  C
  C142     1.0000 0.18750  0.67220  0.67181  Biso   1.000  C
  C143     1.0000 0.68750  0.82780  0.32819  Biso   1.000  C
  C144     1.0000 0.81250  0.17220  0.82819  Biso   1.000  C
  H93      1.0000 0.29480  0.31360  0.21520  Biso   1.000  H
  H94      1.0000 0.20520  0.68640  0.71520  Biso   1.000  H
  H95      1.0000 0.70520  0.81360  0.28480  Biso   1.000  H
  H96      1.0000 0.79480  0.18640  0.78480  Biso   1.000  H
  H97      1.0000 0.26510  0.30040  0.14340  Biso   1.000  H
  H98      1.0000 0.23490  0.69960  0.64340  Biso   1.000  H
  H99      1.0000 0.73490  0.80040  0.35660  Biso   1.000  H
  H100     1.0000 0.76510  0.19960  0.85660  Biso   1.000  H
  C145     1.0000 0.29640  0.41218  0.16333  Biso   1.000  C
  C146     1.0000 0.20360  0.58782  0.66333  Biso   1.000  C
  C147     1.0000 0.70360  0.91218  0.33667  Biso   1.000  C
  C148     1.0000 0.79640  0.08782  0.83667  Biso   1.000  C
  C149     1.0000 0.33360  0.46350  0.20646  Biso   1.000  C
  C150     1.0000 0.16640  0.53650  0.70646  Biso   1.000  C
  C151     1.0000 0.66640  0.96350  0.29354  Biso   1.000  C
  C152     1.0000 0.83360  0.03650  0.79354  Biso   1.000  C
  H101     1.0000 0.36620  0.44600  0.24350  Biso   1.000  H
  H102     1.0000 0.13380  0.55400  0.74350  Biso   1.000  H
  H103     1.0000 0.63380  0.94600  0.25650  Biso   1.000  H
  H104     1.0000 0.86620  0.05400  0.75650  Biso   1.000  H
  C153     1.0000 0.32430  0.54130  0.19669  Biso   1.000  C
  C154     1.0000 0.17570  0.45870  0.69669  Biso   1.000  C
  C155     1.0000 0.67570  0.04130  0.30331  Biso   1.000  C
  C156     1.0000 0.82430  0.95870  0.80331  Biso   1.000  C
  H105     1.0000 0.35360  0.57500  0.22610  Biso   1.000  H
  H106     1.0000 0.14640  0.42500  0.72610  Biso   1.000  H
  H107     1.0000 0.64640  0.07500  0.27390  Biso   1.000  H
  H108     1.0000 0.85360  0.92500  0.77390  Biso   1.000  H
  C157     1.0000 0.27270  0.56890  0.14465  Biso   1.000  C
  C158     1.0000 0.22730  0.43110  0.64465  Biso   1.000  C
  C159     1.0000 0.72730  0.06890  0.35535  Biso   1.000  C
  C160     1.0000 0.77270  0.93110  0.85535  Biso   1.000  C
  C161     1.0000 0.23780  0.51740  0.10040  Biso   1.000  C
  C162     1.0000 0.26220  0.48260  0.60040  Biso   1.000  C
  C163     1.0000 0.76220  0.01740  0.39960  Biso   1.000  C
  C164     1.0000 0.73780  0.98260  0.89960  Biso   1.000  C
  H109     1.0000 0.20710  0.53500  0.06280  Biso   1.000  H
  H110     1.0000 0.29290  0.46500  0.56280  Biso   1.000  H
  H111     1.0000 0.79290  0.03500  0.43720  Biso   1.000  H
  H112     1.0000 0.70710  0.96500  0.93720  Biso   1.000  H
  C165     1.0000 0.24700  0.44010  0.11026  Biso   1.000  C
  C166     1.0000 0.25300  0.55990  0.61026  Biso   1.000  C
  C167     1.0000 0.75300  0.94010  0.38974  Biso   1.000  C
  C168     1.0000 0.74700  0.05990  0.88974  Biso   1.000  C
  H113     1.0000 0.21930  0.40640  0.08030  Biso   1.000  H
  H114     1.0000 0.28070  0.59360  0.58030  Biso   1.000  H
  H115     1.0000 0.78070  0.90640  0.41970  Biso   1.000  H
  H116     1.0000 0.71930  0.09360  0.91970  Biso   1.000  H
  C169     1.0000 0.26100  0.65390  0.13540  Biso   1.000  C
  C170     1.0000 0.23900  0.34610  0.63540  Biso   1.000  C
  C171     1.0000 0.73900  0.15390  0.36460  Biso   1.000  C
  C172     1.0000 0.76100  0.84610  0.86460  Biso   1.000  C
  H117     1.0000 0.29310  0.68030  0.17120  Biso   1.000  H
  H118     1.0000 0.20690  0.31970  0.67120  Biso   1.000  H
  H119     1.0000 0.70690  0.18030  0.32880  Biso   1.000  H
  H120     1.0000 0.79310  0.81970  0.82880  Biso   1.000  H
  H121     1.0000 0.29870  0.66910  0.09710  Biso   1.000  H
  H122     1.0000 0.20130  0.33090  0.59710  Biso   1.000  H
  H123     1.0000 0.70130  0.16910  0.40290  Biso   1.000  H
  H124     1.0000 0.79870  0.83090  0.90290  Biso   1.000  H
  C173     1.0000 0.09820  0.69658  0.07630  Biso   1.000  C
  C174     1.0000 0.40180  0.30342  0.57630  Biso   1.000  C
  C175     1.0000 0.90180  0.19658  0.42370  Biso   1.000  C
  C176     1.0000 0.59820  0.80342  0.92370  Biso   1.000  C
  H125     1.0000 0.13270  0.70290  0.03740  Biso   1.000  H
  H126     1.0000 0.36730  0.29710  0.53740  Biso   1.000  H
  H127     1.0000 0.86730  0.20290  0.46260  Biso   1.000  H
  H128     1.0000 0.63270  0.79710  0.96260  Biso   1.000  H
  C177     1.0000 0.07210  0.67358  0.17730  Biso   1.000  C
  C178     1.0000 0.42790  0.32642  0.67730  Biso   1.000  C
  C179     1.0000 0.92790  0.17358  0.32270  Biso   1.000  C
  C180     1.0000 0.57210  0.82642  0.82270  Biso   1.000  C
  C181     1.0000 0.07920  0.65670  0.24210  Biso   1.000  C
  C182     1.0000 0.42080  0.34330  0.74210  Biso   1.000  C
  C183     1.0000 0.92080  0.15670  0.25790  Biso   1.000  C
  C184     1.0000 0.57920  0.84330  0.75790  Biso   1.000  C
  H129     1.0000 0.14370  0.64480  0.26160  Biso   1.000  H
  H130     1.0000 0.35630  0.35520  0.76160  Biso   1.000  H
  H131     1.0000 0.85630  0.14480  0.23840  Biso   1.000  H
  H132     1.0000 0.64370  0.85520  0.73840  Biso   1.000  H
  C185     1.0000 0.98560  0.65870  0.27507  Biso   1.000  C
  C186     1.0000 0.51440  0.34130  0.77507  Biso   1.000  C
  C187     1.0000 0.01440  0.15870  0.22493  Biso   1.000  C
  C188     1.0000 0.48560  0.84130  0.72493  Biso   1.000  C
  H133     1.0000 0.98710  0.64870  0.31860  Biso   1.000  H
  H134     1.0000 0.51290  0.35130  0.81860  Biso   1.000  H
  H135     1.0000 0.01290  0.14870  0.18140  Biso   1.000  H
  H136     1.0000 0.48710  0.85130  0.68140  Biso   1.000  H
  C189     1.0000 0.88780  0.67520  0.24673  Biso   1.000  C
  C190     1.0000 0.61220  0.32480  0.74673  Biso   1.000  C
  C191     1.0000 0.11220  0.17520  0.25327  Biso   1.000  C
  C192     1.0000 0.38780  0.82480  0.75327  Biso   1.000  C
  H137     1.0000 0.82620  0.67500  0.27130  Biso   1.000  H
  H138     1.0000 0.67380  0.32500  0.77130  Biso   1.000  H
  H139     1.0000 0.17380  0.17500  0.22870  Biso   1.000  H
  H140     1.0000 0.32620  0.82500  0.72870  Biso   1.000  H
  C193     1.0000 0.88150  0.69190  0.18194  Biso   1.000  C
  C194     1.0000 0.61850  0.30810  0.68194  Biso   1.000  C
  C195     1.0000 0.11850  0.19190  0.31806  Biso   1.000  C
  C196     1.0000 0.38150  0.80810  0.81806  Biso   1.000  C
  H141     1.0000 0.81690  0.70280  0.16230  Biso   1.000  H
  H142     1.0000 0.68310  0.29720  0.66230  Biso   1.000  H
  H143     1.0000 0.18310  0.20280  0.33770  Biso   1.000  H
  H144     1.0000 0.31690  0.79720  0.83770  Biso   1.000  H
  C197     1.0000 0.97650  0.69146  0.14826  Biso   1.000  C
  C198     1.0000 0.52350  0.30854  0.64826  Biso   1.000  C
  C199     1.0000 0.02350  0.19146  0.35174  Biso   1.000  C
  C200     1.0000 0.47650  0.80854  0.85174  Biso   1.000  C
  C201     1.0000 0.67660  0.09910  0.12670  Biso   1.000  C
  C202     1.0000 0.82340  0.90090  0.62670  Biso   1.000  C
  C203     1.0000 0.32340  0.59910  0.37330  Biso   1.000  C
  C204     1.0000 0.17660  0.40090  0.87330  Biso   1.000  C
  H145     1.0000 0.69210  0.12810  0.16440  Biso   1.000  H
  H146     1.0000 0.80790  0.87190  0.66440  Biso   1.000  H
  H147     1.0000 0.30790  0.62810  0.33560  Biso   1.000  H
  H148     1.0000 0.19210  0.37190  0.83560  Biso   1.000  H
  H149     1.0000 0.67050  0.04610  0.13750  Biso   1.000  H
  H150     1.0000 0.82950  0.95390  0.63750  Biso   1.000  H
  H151     1.0000 0.32950  0.54610  0.36250  Biso   1.000  H
  H152     1.0000 0.17050  0.45390  0.86250  Biso   1.000  H
  H153     1.0000 0.61070  0.11650  0.10860  Biso   1.000  H
  H154     1.0000 0.88930  0.88350  0.60860  Biso   1.000  H
  H155     1.0000 0.38930  0.61650  0.39140  Biso   1.000  H
  H156     1.0000 0.11070  0.38350  0.89140  Biso   1.000  H
  C205     1.0000 0.76070  0.10900  0.08130  Biso   1.000  C
  C206     1.0000 0.73930  0.89100  0.58130  Biso   1.000  C
  C207     1.0000 0.23930  0.60900  0.41870  Biso   1.000  C
  C208     1.0000 0.26070  0.39100  0.91870  Biso   1.000  C
  H157     1.0000 0.82640  0.08930  0.09920  Biso   1.000  H
  H158     1.0000 0.67360  0.91070  0.59920  Biso   1.000  H
  H159     1.0000 0.17360  0.58930  0.40080  Biso   1.000  H
  H160     1.0000 0.32640  0.41070  0.90080  Biso   1.000  H
  H161     1.0000 0.74460  0.07960  0.04330  Biso   1.000  H
  H162     1.0000 0.75540  0.92040  0.54330  Biso   1.000  H
  H163     1.0000 0.25540  0.57960  0.45670  Biso   1.000  H
  H164     1.0000 0.24460  0.42040  0.95670  Biso   1.000  H
  C209     1.0000 0.80090  0.88900  0.07720  Biso   1.000  C
  C210     1.0000 0.69910  0.11100  0.57720  Biso   1.000  C
  C211     1.0000 0.19910  0.38900  0.42280  Biso   1.000  C
  C212     1.0000 0.30090  0.61100  0.92280  Biso   1.000  C
  H165     1.0000 0.85970  0.90890  0.05220  Biso   1.000  H
  H166     1.0000 0.64030  0.09110  0.55220  Biso   1.000  H
  H167     1.0000 0.14030  0.40890  0.44780  Biso   1.000  H
  H168     1.0000 0.35970  0.59110  0.94780  Biso   1.000  H
  H169     1.0000 0.73900  0.92060  0.06860  Biso   1.000  H
  H170     1.0000 0.76100  0.07940  0.56860  Biso   1.000  H
  H171     1.0000 0.26100  0.42060  0.43140  Biso   1.000  H
  H172     1.0000 0.23900  0.57940  0.93140  Biso   1.000  H
  C213     1.0000 0.82670  0.89470  0.14260  Biso   1.000  C
  C214     1.0000 0.67330  0.10530  0.64260  Biso   1.000  C
  C215     1.0000 0.17330  0.39470  0.35740  Biso   1.000  C
  C216     1.0000 0.32670  0.60530  0.85740  Biso   1.000  C
  H173     1.0000 0.76910  0.87490  0.16770  Biso   1.000  H
  H174     1.0000 0.73090  0.12510  0.66770  Biso   1.000  H
  H175     1.0000 0.23090  0.37490  0.33230  Biso   1.000  H
  H176     1.0000 0.26910  0.62510  0.83230  Biso   1.000  H
  H177     1.0000 0.83850  0.94720  0.15340  Biso   1.000  H
  H178     1.0000 0.66150  0.05280  0.65340  Biso   1.000  H
  H179     1.0000 0.16150  0.44720  0.34660  Biso   1.000  H
  H180     1.0000 0.33850  0.55280  0.84660  Biso   1.000  H
  H181     1.0000 0.89020  0.86590  0.15100  Biso   1.000  H
  H182     1.0000 0.60980  0.13410  0.65100  Biso   1.000  H
  H183     1.0000 0.10980  0.36590  0.34900  Biso   1.000  H
  H184     1.0000 0.39020  0.63410  0.84900  Biso   1.000  H
  Cu1      1.0000 0.65667  0.26645  0.02409  Biso   1.000  Cu
  Cu2      1.0000 0.84333  0.73355  0.52409  Biso   1.000  Cu
  Cu3      1.0000 0.34333  0.76645  0.47591  Biso   1.000  Cu
  Cu4      1.0000 0.15667  0.23355  0.97591  Biso   1.000  Cu
  Cu5      1.0000 0.89228  0.72811  0.01579  Biso   1.000  Cu
  Cu6      1.0000 0.60772  0.27189  0.51579  Biso   1.000  Cu
  Cu7      1.0000 0.10772  0.22811  0.48421  Biso   1.000  Cu
  Cu8      1.0000 0.39228  0.77189  0.98421  Biso   1.000  Cu
  N1       1.0000 0.99630  0.70667  0.08362  Biso   1.000  N
  N2       1.0000 0.50370  0.29333  0.58362  Biso   1.000  N
  N3       1.0000 0.00370  0.20667  0.41638  Biso   1.000  N
  N4       1.0000 0.49630  0.79333  0.91638  Biso   1.000  N
  N5       1.0000 0.14920  0.67613  0.13005  Biso   1.000  N
  N6       1.0000 0.35080  0.32387  0.63005  Biso   1.000  N
  N7       1.0000 0.85080  0.17613  0.36995  Biso   1.000  N
  N8       1.0000 0.64920  0.82387  0.86995  Biso   1.000  N
  N9       1.0000 0.42200  0.30611  0.15839  Biso   1.000  N
  N10      1.0000 0.07800  0.69389  0.65839  Biso   1.000  N
  N11      1.0000 0.57800  0.80611  0.34161  Biso   1.000  N
  N12      1.0000 0.92200  0.19389  0.84161  Biso   1.000  N
  N13      1.0000 0.56430  0.28511  0.09849  Biso   1.000  N
  N14      1.0000 0.93570  0.71489  0.59849  Biso   1.000  N
  N15      1.0000 0.43570  0.78511  0.40151  Biso   1.000  N
  N16      1.0000 0.06430  0.21489  0.90151  Biso   1.000  N
  O1       1.0000 0.79260  0.64530  0.04093  Biso   1.000  O
  O2       1.0000 0.70740  0.35470  0.54093  Biso   1.000  O
  O3       1.0000 0.20740  0.14530  0.45907  Biso   1.000  O
  O4       1.0000 0.29260  0.85470  0.95907  Biso   1.000  O
  O5       1.0000 0.78767  0.69152  0.94519  Biso   1.000  O
  O6       1.0000 0.71233  0.30848  0.44519  Biso   1.000  O
  O7       1.0000 0.21233  0.19152  0.55481  Biso   1.000  O
  O8       1.0000 0.28767  0.80848  0.05481  Biso   1.000  O
  O9       1.0000 0.57386  0.77161  0.07704  Biso   1.000  O
  O10      1.0000 0.92614  0.22839  0.57704  Biso   1.000  O
  O11      1.0000 0.42614  0.27161  0.42296  Biso   1.000  O
  O12      1.0000 0.07386  0.72839  0.92296  Biso   1.000  O
  O13      1.0000 0.46450  0.69040  0.02741  Biso   1.000  O
  O14      1.0000 0.03550  0.30960  0.52741  Biso   1.000  O
  O15      1.0000 0.53550  0.19040  0.47259  Biso   1.000  O
  O16      1.0000 0.96450  0.80960  0.97259  Biso   1.000  O
  O17      1.0000 0.25319  0.19834  0.05193  Biso   1.000  O
  O18      1.0000 0.24681  0.80166  0.55193  Biso   1.000  O
  O19      1.0000 0.74681  0.69834  0.44807  Biso   1.000  O
  O20      1.0000 0.75319  0.30166  0.94807  Biso   1.000  O
  O21      1.0000 0.24930  0.14544  0.95845  Biso   1.000  O
  O22      1.0000 0.25070  0.85456  0.45845  Biso   1.000  O
  O23      1.0000 0.75070  0.64544  0.54155  Biso   1.000  O
  O24      1.0000 0.74930  0.35456  0.04155  Biso   1.000  O
  O25      1.0000 0.47585  0.26650  0.93926  Biso   1.000  O
  O26      1.0000 0.02415  0.73350  0.43926  Biso   1.000  O
  O27      1.0000 0.52415  0.76650  0.56074  Biso   1.000  O
  O28      1.0000 0.97585  0.23350  0.06074  Biso   1.000  O
  O29      1.0000 0.58398  0.18285  0.98483  Biso   1.000  O
  O30      1.0000 0.91602  0.81715  0.48483  Biso   1.000  O
  O31      1.0000 0.41602  0.68285  0.51517  Biso   1.000  O
  O32      1.0000 0.08398  0.31715  0.01517  Biso   1.000  O
  O33      1.0000 0.77560  0.18679  0.06410  Biso   1.000  O
  O34      1.0000 0.72440  0.81321  0.56410  Biso   1.000  O
  O35      1.0000 0.22440  0.68679  0.43590  Biso   1.000  O
  O36      1.0000 0.27560  0.31321  0.93590  Biso   1.000  O
  O37      1.0000 0.77870  0.81252  0.05676  Biso   1.000  O
  O38      1.0000 0.72130  0.18748  0.55676  Biso   1.000  O
  O39      1.0000 0.22130  0.31252  0.44324  Biso   1.000  O
  O40      1.0000 0.27870  0.68748  0.94324  Biso   1.000  O
