data_image0
_cell_length_a       11.704
_cell_length_b       9.01
_cell_length_c       18.222
_cell_angle_alpha    90
_cell_angle_beta     125.23
_cell_angle_gamma    90

_symmetry_space_group_name_H-M    "P 1"
_symmetry_int_tables_number       1

loop_
  _symmetry_equiv_pos_as_xyz
  'x, y, z'

loop_
  _atom_site_label
  _atom_site_occupancy
  _atom_site_fract_x
  _atom_site_fract_y
  _atom_site_fract_z
  _atom_site_thermal_displace_type
  _atom_site_B_iso_or_equiv
  _atom_site_type_symbol
  C1       1.0000 0.13870  0.14930  0.18920  Biso   1.000  C
  C2       1.0000 0.86130  0.64930  0.31080  Biso   1.000  C
  C3       1.0000 0.86130  0.85070  0.81080  Biso   1.000  C
  C4       1.0000 0.13870  0.35070  0.68920  Biso   1.000  C
  H1       1.0000 0.12050  0.05300  0.20430  Biso   1.000  H
  H2       1.0000 0.87950  0.55300  0.29570  Biso   1.000  H
  H3       1.0000 0.87950  0.94700  0.79570  Biso   1.000  H
  H4       1.0000 0.12050  0.44700  0.70430  Biso   1.000  H
  H5       1.0000 0.13400  0.13790  0.13460  Biso   1.000  H
  H6       1.0000 0.86600  0.63790  0.36540  Biso   1.000  H
  H7       1.0000 0.86600  0.86210  0.86540  Biso   1.000  H
  H8       1.0000 0.13400  0.36210  0.63460  Biso   1.000  H
  C5       1.0000 0.02730  0.25440  0.17170  Biso   1.000  C
  C6       1.0000 0.97270  0.75440  0.32830  Biso   1.000  C
  C7       1.0000 0.97270  0.74560  0.82830  Biso   1.000  C
  C8       1.0000 0.02730  0.24560  0.67170  Biso   1.000  C
  H9       1.0000 0.93650  0.21550  0.12410  Biso   1.000  H
  H10      1.0000 0.06350  0.71550  0.37590  Biso   1.000  H
  H11      1.0000 0.06350  0.78450  0.87590  Biso   1.000  H
  H12      1.0000 0.93650  0.28450  0.62410  Biso   1.000  H
  H13      1.0000 0.04020  0.34900  0.15200  Biso   1.000  H
  H14      1.0000 0.95980  0.84900  0.34800  Biso   1.000  H
  H15      1.0000 0.95980  0.65100  0.84800  Biso   1.000  H
  H16      1.0000 0.04020  0.15100  0.65200  Biso   1.000  H
  C9       1.0000 0.03240  0.27700  0.25690  Biso   1.000  C
  C10      1.0000 0.96760  0.77700  0.24310  Biso   1.000  C
  C11      1.0000 0.96760  0.72300  0.74310  Biso   1.000  C
  C12      1.0000 0.03240  0.22300  0.75690  Biso   1.000  C
  H17      1.0000 0.95960  0.34550  0.24500  Biso   1.000  H
  H18      1.0000 0.04040  0.84550  0.25500  Biso   1.000  H
  H19      1.0000 0.04040  0.65450  0.75500  Biso   1.000  H
  H20      1.0000 0.95960  0.15450  0.74500  Biso   1.000  H
  H21      1.0000 0.01740  0.18320  0.27620  Biso   1.000  H
  H22      1.0000 0.98260  0.68320  0.22380  Biso   1.000  H
  H23      1.0000 0.98260  0.81680  0.72380  Biso   1.000  H
  H24      1.0000 0.01740  0.31680  0.77620  Biso   1.000  H
  C13      1.0000 0.17420  0.33880  0.32900  Biso   1.000  C
  C14      1.0000 0.82580  0.83880  0.17100  Biso   1.000  C
  C15      1.0000 0.82580  0.66120  0.67100  Biso   1.000  C
  C16      1.0000 0.17420  0.16120  0.82900  Biso   1.000  C
  H25      1.0000 0.18050  0.34940  0.38410  Biso   1.000  H
  H26      1.0000 0.81950  0.84940  0.11590  Biso   1.000  H
  H27      1.0000 0.81950  0.65060  0.61590  Biso   1.000  H
  H28      1.0000 0.18050  0.15060  0.88410  Biso   1.000  H
  H29      1.0000 0.18400  0.43670  0.31100  Biso   1.000  H
  H30      1.0000 0.81600  0.93670  0.18900  Biso   1.000  H
  H31      1.0000 0.81600  0.56330  0.68900  Biso   1.000  H
  H32      1.0000 0.18400  0.06330  0.81100  Biso   1.000  H
  C17      1.0000 0.29370  0.24080  0.34670  Biso   1.000  C
  C18      1.0000 0.70630  0.74080  0.15330  Biso   1.000  C
  C19      1.0000 0.70630  0.75920  0.65330  Biso   1.000  C
  C20      1.0000 0.29370  0.25920  0.84670  Biso   1.000  C
  H33      1.0000 0.38150  0.29520  0.38590  Biso   1.000  H
  H34      1.0000 0.61850  0.79520  0.11410  Biso   1.000  H
  H35      1.0000 0.61850  0.70480  0.61410  Biso   1.000  H
  H36      1.0000 0.38150  0.20480  0.88590  Biso   1.000  H
  C21      1.0000 0.30520  0.09470  0.39140  Biso   1.000  C
  C22      1.0000 0.69480  0.59470  0.10860  Biso   1.000  C
  C23      1.0000 0.69480  0.90530  0.60860  Biso   1.000  C
  C24      1.0000 0.30520  0.40530  0.89140  Biso   1.000  C
  C25      1.0000 0.31490  0.92650  0.48240  Biso   1.000  C
  C26      1.0000 0.68510  0.42650  0.01760  Biso   1.000  C
  C27      1.0000 0.68510  0.07350  0.51760  Biso   1.000  C
  C28      1.0000 0.31490  0.57350  0.98240  Biso   1.000  C
  C29      1.0000 0.31040  0.84610  0.54710  Biso   1.000  C
  C30      1.0000 0.68960  0.34610  0.95290  Biso   1.000  C
  C31      1.0000 0.68960  0.15390  0.45290  Biso   1.000  C
  C32      1.0000 0.31040  0.65390  0.04710  Biso   1.000  C
  H37      1.0000 0.29340  0.89240  0.58550  Biso   1.000  H
  H38      1.0000 0.70660  0.39240  0.91450  Biso   1.000  H
  H39      1.0000 0.70660  0.10760  0.41450  Biso   1.000  H
  H40      1.0000 0.29340  0.60760  0.08550  Biso   1.000  H
  C33      1.0000 0.33300  0.69280  0.55050  Biso   1.000  C
  C34      1.0000 0.66700  0.19280  0.94950  Biso   1.000  C
  C35      1.0000 0.66700  0.30720  0.44950  Biso   1.000  C
  C36      1.0000 0.33300  0.80720  0.05050  Biso   1.000  C
  H41      1.0000 0.32910  0.63470  0.59120  Biso   1.000  H
  H42      1.0000 0.67090  0.13470  0.90880  Biso   1.000  H
  H43      1.0000 0.67090  0.36530  0.40880  Biso   1.000  H
  H44      1.0000 0.32910  0.86530  0.09120  Biso   1.000  H
  C37      1.0000 0.36130  0.62640  0.49350  Biso   1.000  C
  C38      1.0000 0.63870  0.12640  0.00650  Biso   1.000  C
  C39      1.0000 0.63870  0.37360  0.50650  Biso   1.000  C
  C40      1.0000 0.36130  0.87360  0.99350  Biso   1.000  C
  H45      1.0000 0.37530  0.52430  0.49710  Biso   1.000  H
  H46      1.0000 0.62470  0.02430  0.00290  Biso   1.000  H
  H47      1.0000 0.62470  0.47570  0.50290  Biso   1.000  H
  H48      1.0000 0.37530  0.97570  0.99710  Biso   1.000  H
  C41      1.0000 0.36930  0.70690  0.43180  Biso   1.000  C
  C42      1.0000 0.63070  0.20690  0.06820  Biso   1.000  C
  C43      1.0000 0.63070  0.29310  0.56820  Biso   1.000  C
  C44      1.0000 0.36930  0.79310  0.93180  Biso   1.000  C
  H49      1.0000 0.39080  0.66080  0.39550  Biso   1.000  H
  H50      1.0000 0.60920  0.16080  0.10450  Biso   1.000  H
  H51      1.0000 0.60920  0.33920  0.60450  Biso   1.000  H
  H52      1.0000 0.39080  0.83920  0.89550  Biso   1.000  H
  C45      1.0000 0.34430  0.85700  0.42590  Biso   1.000  C
  C46      1.0000 0.65570  0.35700  0.07410  Biso   1.000  C
  C47      1.0000 0.65570  0.14300  0.57410  Biso   1.000  C
  C48      1.0000 0.34430  0.64300  0.92590  Biso   1.000  C
  C49      1.0000 0.33620  0.31360  0.23240  Biso   1.000  C
  C50      1.0000 0.66380  0.81360  0.26760  Biso   1.000  C
  C51      1.0000 0.66380  0.68640  0.76760  Biso   1.000  C
  C52      1.0000 0.33620  0.18640  0.73240  Biso   1.000  C
  H53      1.0000 0.41180  0.36710  0.28410  Biso   1.000  H
  H54      1.0000 0.58820  0.86710  0.21590  Biso   1.000  H
  H55      1.0000 0.58820  0.63290  0.71590  Biso   1.000  H
  H56      1.0000 0.41180  0.13290  0.78410  Biso   1.000  H
  H57      1.0000 0.26220  0.38390  0.19400  Biso   1.000  H
  H58      1.0000 0.73780  0.88390  0.30600  Biso   1.000  H
  H59      1.0000 0.73780  0.61610  0.80600  Biso   1.000  H
  H60      1.0000 0.26220  0.11610  0.69400  Biso   1.000  H
  Cu1      1.0000 0.39326  0.00230  0.28854  Biso   1.000  Cu
  Cu2      1.0000 0.60674  0.50230  0.21146  Biso   1.000  Cu
  Cu3      1.0000 0.60674  0.99770  0.71146  Biso   1.000  Cu
  Cu4      1.0000 0.39326  0.49770  0.78854  Biso   1.000  Cu
  N1       1.0000 0.28220  0.19710  0.26290  Biso   1.000  N
  N2       1.0000 0.71780  0.69710  0.23710  Biso   1.000  N
  N3       1.0000 0.71780  0.80290  0.73710  Biso   1.000  N
  N4       1.0000 0.28220  0.30290  0.76290  Biso   1.000  N
  N5       1.0000 0.33910  0.96920  0.37040  Biso   1.000  N
  N6       1.0000 0.66090  0.46920  0.12960  Biso   1.000  N
  N7       1.0000 0.66090  0.03080  0.62960  Biso   1.000  N
  N8       1.0000 0.33910  0.53080  0.87040  Biso   1.000  N
  N9       1.0000 0.29060  0.07370  0.45880  Biso   1.000  N
  N10      1.0000 0.70940  0.57370  0.04120  Biso   1.000  N
  N11      1.0000 0.70940  0.92630  0.54120  Biso   1.000  N
  N12      1.0000 0.29060  0.42630  0.95880  Biso   1.000  N
  H61      1.0000 0.26970  0.14070  0.48280  Biso   1.000  H
  H62      1.0000 0.73030  0.64070  0.01720  Biso   1.000  H
  H63      1.0000 0.73030  0.85930  0.51720  Biso   1.000  H
  H64      1.0000 0.26970  0.35930  0.98280  Biso   1.000  H
  O1       1.0000 0.43330  0.07090  0.20730  Biso   1.000  O
  O2       1.0000 0.56670  0.57090  0.29270  Biso   1.000  O
  O3       1.0000 0.56670  0.92910  0.79270  Biso   1.000  O
  O4       1.0000 0.43330  0.42910  0.70730  Biso   1.000  O
  O5       1.0000 0.28690  0.23980  0.07280  Biso   1.000  O
  O6       1.0000 0.71310  0.73980  0.42720  Biso   1.000  O
  O7       1.0000 0.71310  0.76020  0.92720  Biso   1.000  O
  O8       1.0000 0.28690  0.26020  0.57280  Biso   1.000  O
  O9       1.0000 0.53170  0.30950  0.19850  Biso   1.000  O
  O10      1.0000 0.46830  0.80950  0.30150  Biso   1.000  O
  O11      1.0000 0.46830  0.69050  0.80150  Biso   1.000  O
  O12      1.0000 0.53170  0.19050  0.69850  Biso   1.000  O
  P1       1.0000 0.39870  0.23049  0.17142  Biso   1.000  P
  P2       1.0000 0.60130  0.73049  0.32858  Biso   1.000  P
  P3       1.0000 0.60130  0.76951  0.82858  Biso   1.000  P
  P4       1.0000 0.39870  0.26951  0.67142  Biso   1.000  P
  O13      1.0000 0.18250  0.68670  0.17520  Biso   1.000  O
  O14      1.0000 0.81750  0.18670  0.32480  Biso   1.000  O
  O15      1.0000 0.81750  0.31330  0.82480  Biso   1.000  O
  O16      1.0000 0.18250  0.81330  0.67520  Biso   1.000  O
  H65      1.0000 0.18240  0.78040  0.17990  Biso   1.000  H
  H66      1.0000 0.81760  0.28040  0.32010  Biso   1.000  H
  H67      1.0000 0.81760  0.21960  0.82010  Biso   1.000  H
  H68      1.0000 0.18240  0.71960  0.67990  Biso   1.000  H
  H69      1.0000 0.26280  0.65890  0.19030  Biso   1.000  H
  H70      1.0000 0.73720  0.15890  0.30970  Biso   1.000  H
  H71      1.0000 0.73720  0.34110  0.80970  Biso   1.000  H
  H72      1.0000 0.26280  0.84110  0.69030  Biso   1.000  H
  O17      1.0000 0.02810  0.10680  0.96320  Biso   1.000  O
  O18      1.0000 0.97190  0.60680  0.53680  Biso   1.000  O
  O19      1.0000 0.97190  0.89320  0.03680  Biso   1.000  O
  O20      1.0000 0.02810  0.39320  0.46320  Biso   1.000  O
  H73      1.0000 0.02720  0.13940  0.91860  Biso   1.000  H
  H74      1.0000 0.97280  0.63940  0.58140  Biso   1.000  H
  H75      1.0000 0.97280  0.86060  0.08140  Biso   1.000  H
  H76      1.0000 0.02720  0.36060  0.41860  Biso   1.000  H
  H77      1.0000 0.11050  0.10830  0.00960  Biso   1.000  H
  H78      1.0000 0.88950  0.60830  0.49040  Biso   1.000  H
  H79      1.0000 0.88950  0.89170  0.99040  Biso   1.000  H
  H80      1.0000 0.11050  0.39170  0.50960  Biso   1.000  H
