data_image0
_cell_length_a       9.316
_cell_length_b       8.286
_cell_length_c       9.693
_cell_angle_alpha    90
_cell_angle_beta     90.52
_cell_angle_gamma    90

_symmetry_space_group_name_H-M    "P 1"
_symmetry_int_tables_number       1

loop_
  _symmetry_equiv_pos_as_xyz
  'x, y, z'

loop_
  _atom_site_label
  _atom_site_occupancy
  _atom_site_fract_x
  _atom_site_fract_y
  _atom_site_fract_z
  _atom_site_thermal_displace_type
  _atom_site_B_iso_or_equiv
  _atom_site_type_symbol
  Cu1      1.0000 0.01670  0.17110  0.49460  Biso   1.000  Cu
  Cu2      1.0000 0.48330  0.67110  0.00540  Biso   1.000  Cu
  Cu3      1.0000 0.98330  0.82890  0.50540  Biso   1.000  Cu
  Cu4      1.0000 0.51670  0.32890  0.99460  Biso   1.000  Cu
  O1       1.0000 0.04380  0.00030  0.62640  Biso   1.000  O
  O2       1.0000 0.45620  0.50030  0.87360  Biso   1.000  O
  O3       1.0000 0.95620  0.99970  0.37360  Biso   1.000  O
  O4       1.0000 0.54380  0.49970  0.12640  Biso   1.000  O
  O5       1.0000 0.24900  0.17680  0.40850  Biso   1.000  O
  O6       1.0000 0.25100  0.67680  0.09150  Biso   1.000  O
  O7       1.0000 0.75100  0.82320  0.59150  Biso   1.000  O
  O8       1.0000 0.74900  0.32320  0.90850  Biso   1.000  O
  N1       1.0000 0.04480  0.35640  0.62940  Biso   1.000  N
  N2       1.0000 0.45520  0.85640  0.87060  Biso   1.000  N
  N3       1.0000 0.95520  0.64360  0.37060  Biso   1.000  N
  N4       1.0000 0.54480  0.14360  0.12940  Biso   1.000  N
  C1       1.0000 0.08740  0.35410  0.76270  Biso   1.000  C
  C2       1.0000 0.41260  0.85410  0.73730  Biso   1.000  C
  C3       1.0000 0.91260  0.64590  0.23730  Biso   1.000  C
  C4       1.0000 0.58740  0.14590  0.26270  Biso   1.000  C
  C5       1.0000 0.10690  0.49600  0.83420  Biso   1.000  C
  C6       1.0000 0.39310  0.99600  0.66580  Biso   1.000  C
  C7       1.0000 0.89310  0.50400  0.16580  Biso   1.000  C
  C8       1.0000 0.60690  0.00400  0.33420  Biso   1.000  C
  C9       1.0000 0.08100  0.64020  0.76690  Biso   1.000  C
  C10      1.0000 0.41900  0.14020  0.73310  Biso   1.000  C
  C11      1.0000 0.91900  0.35980  0.23310  Biso   1.000  C
  C12      1.0000 0.58100  0.85980  0.26690  Biso   1.000  C
  N5       1.0000 0.96290  0.35840  0.36540  Biso   1.000  N
  N6       1.0000 0.53710  0.85840  0.13460  Biso   1.000  N
  N7       1.0000 0.03710  0.64160  0.63460  Biso   1.000  N
  N8       1.0000 0.46290  0.14160  0.86540  Biso   1.000  N
  C13      1.0000 0.02120  0.49840  0.57420  Biso   1.000  C
  C14      1.0000 0.47880  0.99840  0.92580  Biso   1.000  C
  C15      1.0000 0.97880  0.50160  0.42580  Biso   1.000  C
  C16      1.0000 0.52120  0.00160  0.07420  Biso   1.000  C
  N9       1.0000 0.32590  0.58210  0.44370  Biso   1.000  N
  N10      1.0000 0.17410  0.08210  0.05630  Biso   1.000  N
  N11      1.0000 0.67410  0.41790  0.55630  Biso   1.000  N
  N12      1.0000 0.82590  0.91790  0.94370  Biso   1.000  N
  O9       1.0000 0.31200  0.49450  0.33570  Biso   1.000  O
  O10      1.0000 0.18800  0.99450  0.16430  Biso   1.000  O
  O11      1.0000 0.68800  0.50550  0.66430  Biso   1.000  O
  O12      1.0000 0.81200  0.00550  0.83570  Biso   1.000  O
  O13      1.0000 0.31450  0.72940  0.43010  Biso   1.000  O
  O14      1.0000 0.18550  0.22940  0.06990  Biso   1.000  O
  O15      1.0000 0.68550  0.27060  0.56990  Biso   1.000  O
  O16      1.0000 0.81450  0.77060  0.93010  Biso   1.000  O
  O17      1.0000 0.34500  0.51580  0.55650  Biso   1.000  O
  O18      1.0000 0.15500  0.01580  0.94350  Biso   1.000  O
  O19      1.0000 0.65500  0.48420  0.44350  Biso   1.000  O
  O20      1.0000 0.84500  0.98420  0.05650  Biso   1.000  O
  H1       1.0000 0.97700  0.01400  0.70000  Biso   1.000  H
  H2       1.0000 0.52300  0.51400  0.80000  Biso   1.000  H
  H3       1.0000 0.02300  0.98600  0.30000  Biso   1.000  H
  H4       1.0000 0.47700  0.48600  0.20000  Biso   1.000  H
  H5       1.0000 0.25700  0.11400  0.32700  Biso   1.000  H
  H6       1.0000 0.24300  0.61400  0.17300  Biso   1.000  H
  H7       1.0000 0.74300  0.88600  0.67300  Biso   1.000  H
  H8       1.0000 0.75700  0.38600  0.82700  Biso   1.000  H
  H9       1.0000 0.28900  0.28200  0.38300  Biso   1.000  H
  H10      1.0000 0.21100  0.78200  0.11700  Biso   1.000  H
  H11      1.0000 0.71100  0.71800  0.61700  Biso   1.000  H
  H12      1.0000 0.78900  0.21800  0.88300  Biso   1.000  H
  H13      1.0000 0.10400  0.25300  0.80800  Biso   1.000  H
  H14      1.0000 0.39600  0.75300  0.69200  Biso   1.000  H
  H15      1.0000 0.89600  0.74700  0.19200  Biso   1.000  H
  H16      1.0000 0.60400  0.24700  0.30800  Biso   1.000  H
  H17      1.0000 0.13800  0.49500  0.92900  Biso   1.000  H
  H18      1.0000 0.36200  0.99500  0.57100  Biso   1.000  H
  H19      1.0000 0.86200  0.50500  0.07100  Biso   1.000  H
  H20      1.0000 0.63800  0.00500  0.42900  Biso   1.000  H
  H21      1.0000 0.09500  0.74000  0.81500  Biso   1.000  H
  H22      1.0000 0.40500  0.24000  0.68500  Biso   1.000  H
  H23      1.0000 0.90500  0.26000  0.18500  Biso   1.000  H
  H24      1.0000 0.59500  0.76000  0.31500  Biso   1.000  H
