data_image0
_cell_length_a       7.564
_cell_length_b       8.032
_cell_length_c       8.238
_cell_angle_alpha    61.33
_cell_angle_beta     88.66
_cell_angle_gamma    75.97

_symmetry_space_group_name_H-M    "P 1"
_symmetry_int_tables_number       1

loop_
  _symmetry_equiv_pos_as_xyz
  'x, y, z'

loop_
  _atom_site_label
  _atom_site_occupancy
  _atom_site_fract_x
  _atom_site_fract_y
  _atom_site_fract_z
  _atom_site_thermal_displace_type
  _atom_site_B_iso_or_equiv
  _atom_site_type_symbol
  Cu1      1.0000 0.48970  0.18070  0.33210  Biso   1.000  Cu
  Cu2      1.0000 0.51030  0.81930  0.66790  Biso   1.000  Cu
  O1       1.0000 0.36180  0.97480  0.42910  Biso   1.000  O
  O2       1.0000 0.63820  0.02520  0.57090  Biso   1.000  O
  O3       1.0000 0.27740  0.36980  0.42450  Biso   1.000  O
  O4       1.0000 0.72260  0.63020  0.57550  Biso   1.000  O
  N1       1.0000 0.35720  0.33510  0.06930  Biso   1.000  N
  N2       1.0000 0.64280  0.66490  0.93070  Biso   1.000  N
  C1       1.0000 0.21400  0.31110  0.99820  Biso   1.000  C
  C2       1.0000 0.78600  0.68890  0.00180  Biso   1.000  C
  C3       1.0000 0.13740  0.44360  0.81550  Biso   1.000  C
  C4       1.0000 0.86260  0.55640  0.18450  Biso   1.000  C
  C5       1.0000 0.21430  0.59710  0.71120  Biso   1.000  C
  C6       1.0000 0.78570  0.40290  0.28880  Biso   1.000  C
  N3       1.0000 0.64000  0.38100  0.21700  Biso   1.000  N
  N4       1.0000 0.36000  0.61900  0.78300  Biso   1.000  N
  C7       1.0000 0.42200  0.48750  0.95890  Biso   1.000  C
  C8       1.0000 0.57800  0.51250  0.04110  Biso   1.000  C
  N5       1.0000 0.85480  0.03180  0.18550  Biso   1.000  N
  N6       1.0000 0.14520  0.96820  0.81450  Biso   1.000  N
  O5       1.0000 0.86600  0.16790  0.02670  Biso   1.000  O
  O6       1.0000 0.13400  0.83210  0.97330  Biso   1.000  O
  O7       1.0000 0.72190  0.95920  0.20900  Biso   1.000  O
  O8       1.0000 0.27810  0.04080  0.79100  Biso   1.000  O
  O9       1.0000 0.96630  0.98110  0.31910  Biso   1.000  O
  O10      1.0000 0.03370  0.01890  0.68090  Biso   1.000  O
  O11      1.0000 0.38620  0.71470  0.28150  Biso   1.000  O
  O12      1.0000 0.61380  0.28530  0.71850  Biso   1.000  O
  H1       1.0000 0.24400  0.00600  0.46700  Biso   1.000  H
  H2       1.0000 0.75600  0.99400  0.53300  Biso   1.000  H
  H3       1.0000 0.31900  0.47000  0.42800  Biso   1.000  H
  H4       1.0000 0.68100  0.53000  0.57200  Biso   1.000  H
  H5       1.0000 0.27600  0.28000  0.55100  Biso   1.000  H
  H6       1.0000 0.72400  0.72000  0.44900  Biso   1.000  H
  H7       1.0000 0.37800  0.80400  0.32900  Biso   1.000  H
  H8       1.0000 0.62200  0.19600  0.67100  Biso   1.000  H
  H9       1.0000 0.29300  0.79200  0.18000  Biso   1.000  H
  H10      1.0000 0.70700  0.20800  0.82000  Biso   1.000  H
  H11      1.0000 0.16400  0.20200  0.07300  Biso   1.000  H
  H12      1.0000 0.83600  0.79800  0.92700  Biso   1.000  H
  H13      1.0000 0.03400  0.42900  0.76400  Biso   1.000  H
  H14      1.0000 0.96600  0.57100  0.23600  Biso   1.000  H
  H15      1.0000 0.16300  0.69000  0.58500  Biso   1.000  H
  H16      1.0000 0.83700  0.31000  0.41500  Biso   1.000  H
