data_image0
_cell_length_a       10.408
_cell_length_b       12.333
_cell_length_c       17.47
_cell_angle_alpha    90
_cell_angle_beta     102.99
_cell_angle_gamma    90

_symmetry_space_group_name_H-M    "P 1"
_symmetry_int_tables_number       1

loop_
  _symmetry_equiv_pos_as_xyz
  'x, y, z'

loop_
  _atom_site_label
  _atom_site_occupancy
  _atom_site_fract_x
  _atom_site_fract_y
  _atom_site_fract_z
  _atom_site_thermal_displace_type
  _atom_site_B_iso_or_equiv
  _atom_site_type_symbol
  Cu1      1.0000 0.65848  0.18050  0.52959  Biso   1.000  Cu
  Cu2      1.0000 0.34152  0.68050  0.97041  Biso   1.000  Cu
  Cu3      1.0000 0.34152  0.81950  0.47041  Biso   1.000  Cu
  Cu4      1.0000 0.65848  0.31950  0.02959  Biso   1.000  Cu
  S1       1.0000 0.23160  0.37450  0.57382  Biso   1.000  S
  S2       1.0000 0.76840  0.87450  0.92618  Biso   1.000  S
  S3       1.0000 0.76840  0.62550  0.42618  Biso   1.000  S
  S4       1.0000 0.23160  0.12550  0.07382  Biso   1.000  S
  O1       1.0000 0.64350  0.04430  0.44110  Biso   1.000  O
  O2       1.0000 0.35650  0.54430  0.05890  Biso   1.000  O
  O3       1.0000 0.35650  0.95570  0.55890  Biso   1.000  O
  O4       1.0000 0.64350  0.45570  0.94110  Biso   1.000  O
  H1       1.0000 0.58400  0.99700  0.44200  Biso   1.000  H
  H2       1.0000 0.41600  0.49700  0.05800  Biso   1.000  H
  H3       1.0000 0.41600  0.00300  0.55800  Biso   1.000  H
  H4       1.0000 0.58400  0.50300  0.94200  Biso   1.000  H
  H5       1.0000 0.62900  0.07500  0.39700  Biso   1.000  H
  H6       1.0000 0.37100  0.57500  0.10300  Biso   1.000  H
  H7       1.0000 0.37100  0.92500  0.60300  Biso   1.000  H
  H8       1.0000 0.62900  0.42500  0.89700  Biso   1.000  H
  O5       1.0000 0.81390  0.25760  0.51330  Biso   1.000  O
  O6       1.0000 0.18610  0.75760  0.98670  Biso   1.000  O
  O7       1.0000 0.18610  0.74240  0.48670  Biso   1.000  O
  O8       1.0000 0.81390  0.24240  0.01330  Biso   1.000  O
  O9       1.0000 0.81170  0.25860  0.38520  Biso   1.000  O
  O10      1.0000 0.18830  0.75860  0.11480  Biso   1.000  O
  O11      1.0000 0.18830  0.74140  0.61480  Biso   1.000  O
  O12      1.0000 0.81170  0.24140  0.88520  Biso   1.000  O
  O13      1.0000 0.50930  0.13880  0.57850  Biso   1.000  O
  O14      1.0000 0.49070  0.63880  0.92150  Biso   1.000  O
  O15      1.0000 0.49070  0.86120  0.42150  Biso   1.000  O
  O16      1.0000 0.50930  0.36120  0.07850  Biso   1.000  O
  O17      1.0000 0.56560  0.29310  0.64040  Biso   1.000  O
  O18      1.0000 0.43440  0.79310  0.85960  Biso   1.000  O
  O19      1.0000 0.43440  0.70690  0.35960  Biso   1.000  O
  O20      1.0000 0.56560  0.20690  0.14040  Biso   1.000  O
  N1       1.0000 0.52650  0.27130  0.45530  Biso   1.000  N
  N2       1.0000 0.47350  0.77130  0.04470  Biso   1.000  N
  N3       1.0000 0.47350  0.72870  0.54470  Biso   1.000  N
  N4       1.0000 0.52650  0.22870  0.95530  Biso   1.000  N
  N5       1.0000 0.78470  0.41150  0.10920  Biso   1.000  N
  N6       1.0000 0.21530  0.91150  0.39080  Biso   1.000  N
  N7       1.0000 0.21530  0.58850  0.89080  Biso   1.000  N
  N8       1.0000 0.78470  0.08850  0.60920  Biso   1.000  N
  C1       1.0000 0.85770  0.27730  0.45020  Biso   1.000  C
  C2       1.0000 0.14230  0.77730  0.04980  Biso   1.000  C
  C3       1.0000 0.14230  0.72270  0.54980  Biso   1.000  C
  C4       1.0000 0.85770  0.22270  0.95020  Biso   1.000  C
  C5       1.0000 0.99550  0.33430  0.47430  Biso   1.000  C
  C6       1.0000 0.00450  0.83430  0.02570  Biso   1.000  C
  C7       1.0000 0.00450  0.66570  0.52570  Biso   1.000  C
  C8       1.0000 0.99550  0.16570  0.97430  Biso   1.000  C
  H9       1.0000 0.03530  0.33400  0.42910  Biso   1.000  H
  H10      1.0000 0.96470  0.83400  0.07090  Biso   1.000  H
  H11      1.0000 0.96470  0.66600  0.57090  Biso   1.000  H
  H12      1.0000 0.03530  0.16600  0.92910  Biso   1.000  H
  H13      1.0000 0.98140  0.40940  0.48660  Biso   1.000  H
  H14      1.0000 0.01860  0.90940  0.01340  Biso   1.000  H
  H15      1.0000 0.01860  0.59060  0.51340  Biso   1.000  H
  H16      1.0000 0.98140  0.09060  0.98660  Biso   1.000  H
  C9       1.0000 0.09080  0.28620  0.54160  Biso   1.000  C
  C10      1.0000 0.90920  0.78620  0.95840  Biso   1.000  C
  C11      1.0000 0.90920  0.71380  0.45840  Biso   1.000  C
  C12      1.0000 0.09080  0.21380  0.04160  Biso   1.000  C
  H17      1.0000 0.12040  0.21660  0.52640  Biso   1.000  H
  H18      1.0000 0.87960  0.71660  0.97360  Biso   1.000  H
  H19      1.0000 0.87960  0.78340  0.47360  Biso   1.000  H
  H20      1.0000 0.12040  0.28340  0.02640  Biso   1.000  H
  H21      1.0000 0.04780  0.27430  0.58470  Biso   1.000  H
  H22      1.0000 0.95220  0.77430  0.91530  Biso   1.000  H
  H23      1.0000 0.95220  0.72570  0.41530  Biso   1.000  H
  H24      1.0000 0.04780  0.22570  0.08470  Biso   1.000  H
  C13      1.0000 0.30340  0.31160  0.66660  Biso   1.000  C
  C14      1.0000 0.69660  0.81160  0.83340  Biso   1.000  C
  C15      1.0000 0.69660  0.68840  0.33340  Biso   1.000  C
  C16      1.0000 0.30340  0.18840  0.16660  Biso   1.000  C
  H25      1.0000 0.36650  0.36150  0.69740  Biso   1.000  H
  H26      1.0000 0.63350  0.86150  0.80260  Biso   1.000  H
  H27      1.0000 0.63350  0.63850  0.30260  Biso   1.000  H
  H28      1.0000 0.36650  0.13850  0.19740  Biso   1.000  H
  H29      1.0000 0.23430  0.29960  0.69490  Biso   1.000  H
  H30      1.0000 0.76570  0.79960  0.80510  Biso   1.000  H
  H31      1.0000 0.76570  0.70040  0.30510  Biso   1.000  H
  H32      1.0000 0.23430  0.20040  0.19490  Biso   1.000  H
  C17      1.0000 0.37210  0.20480  0.66080  Biso   1.000  C
  C18      1.0000 0.62790  0.70480  0.83920  Biso   1.000  C
  C19      1.0000 0.62790  0.79520  0.33920  Biso   1.000  C
  C20      1.0000 0.37210  0.29520  0.16080  Biso   1.000  C
  H33      1.0000 0.30990  0.15510  0.62910  Biso   1.000  H
  H34      1.0000 0.69010  0.65510  0.87090  Biso   1.000  H
  H35      1.0000 0.69010  0.84490  0.37090  Biso   1.000  H
  H36      1.0000 0.30990  0.34490  0.12910  Biso   1.000  H
  H37      1.0000 0.39970  0.17380  0.71290  Biso   1.000  H
  H38      1.0000 0.60030  0.67380  0.78710  Biso   1.000  H
  H39      1.0000 0.60030  0.82620  0.28710  Biso   1.000  H
  H40      1.0000 0.39970  0.32620  0.21290  Biso   1.000  H
  C21      1.0000 0.49160  0.21550  0.62500  Biso   1.000  C
  C22      1.0000 0.50840  0.71550  0.87500  Biso   1.000  C
  C23      1.0000 0.50840  0.78450  0.37500  Biso   1.000  C
  C24      1.0000 0.49160  0.28450  0.12500  Biso   1.000  C
  C25      1.0000 0.54340  0.37570  0.44110  Biso   1.000  C
  C26      1.0000 0.45660  0.87570  0.05890  Biso   1.000  C
  C27      1.0000 0.45660  0.62430  0.55890  Biso   1.000  C
  C28      1.0000 0.54340  0.12430  0.94110  Biso   1.000  C
  H41      1.0000 0.62250  0.40820  0.46580  Biso   1.000  H
  H42      1.0000 0.37750  0.90820  0.03420  Biso   1.000  H
  H43      1.0000 0.37750  0.59180  0.53420  Biso   1.000  H
  H44      1.0000 0.62250  0.09180  0.96580  Biso   1.000  H
  C29      1.0000 0.45120  0.43810  0.39230  Biso   1.000  C
  C30      1.0000 0.54880  0.93810  0.10770  Biso   1.000  C
  C31      1.0000 0.54880  0.56190  0.60770  Biso   1.000  C
  C32      1.0000 0.45120  0.06190  0.89230  Biso   1.000  C
  H45      1.0000 0.46760  0.51120  0.38540  Biso   1.000  H
  H46      1.0000 0.53240  0.01120  0.11460  Biso   1.000  H
  H47      1.0000 0.53240  0.48880  0.61460  Biso   1.000  H
  H48      1.0000 0.46760  0.98880  0.88540  Biso   1.000  H
  C33      1.0000 0.33390  0.39210  0.35340  Biso   1.000  C
  C34      1.0000 0.66610  0.89210  0.14660  Biso   1.000  C
  C35      1.0000 0.66610  0.60790  0.64660  Biso   1.000  C
  C36      1.0000 0.33390  0.10790  0.85340  Biso   1.000  C
  C37      1.0000 0.31440  0.28420  0.36880  Biso   1.000  C
  C38      1.0000 0.68560  0.78420  0.13120  Biso   1.000  C
  C39      1.0000 0.68560  0.71580  0.63120  Biso   1.000  C
  C40      1.0000 0.31440  0.21580  0.86880  Biso   1.000  C
  H49      1.0000 0.23580  0.25020  0.34490  Biso   1.000  H
  H50      1.0000 0.76420  0.75020  0.15510  Biso   1.000  H
  H51      1.0000 0.76420  0.74980  0.65510  Biso   1.000  H
  H52      1.0000 0.23580  0.24980  0.84490  Biso   1.000  H
  C41      1.0000 0.41050  0.22740  0.41900  Biso   1.000  C
  C42      1.0000 0.58950  0.72740  0.08100  Biso   1.000  C
  C43      1.0000 0.58950  0.77260  0.58100  Biso   1.000  C
  C44      1.0000 0.41050  0.27260  0.91900  Biso   1.000  C
  H53      1.0000 0.39500  0.15490  0.42860  Biso   1.000  H
  H54      1.0000 0.60500  0.65490  0.07140  Biso   1.000  H
  H55      1.0000 0.60500  0.84510  0.57140  Biso   1.000  H
  H56      1.0000 0.39500  0.34510  0.92860  Biso   1.000  H
  C45      1.0000 0.22970  0.45560  0.29530  Biso   1.000  C
  C46      1.0000 0.77030  0.95560  0.20470  Biso   1.000  C
  C47      1.0000 0.77030  0.54440  0.70470  Biso   1.000  C
  C48      1.0000 0.22970  0.04440  0.79530  Biso   1.000  C
  H57      1.0000 0.27210  0.49300  0.25870  Biso   1.000  H
  H58      1.0000 0.72790  0.99300  0.24130  Biso   1.000  H
  H59      1.0000 0.72790  0.50700  0.74130  Biso   1.000  H
  H60      1.0000 0.27210  0.00700  0.75870  Biso   1.000  H
  H61      1.0000 0.16670  0.40490  0.26530  Biso   1.000  H
  H62      1.0000 0.83330  0.90490  0.23470  Biso   1.000  H
  H63      1.0000 0.83330  0.59510  0.73470  Biso   1.000  H
  H64      1.0000 0.16670  0.09510  0.76530  Biso   1.000  H
  C49      1.0000 0.15610  0.53790  0.33350  Biso   1.000  C
  C50      1.0000 0.84390  0.03790  0.16650  Biso   1.000  C
  C51      1.0000 0.84390  0.46210  0.66650  Biso   1.000  C
  C52      1.0000 0.15610  0.96210  0.83350  Biso   1.000  C
  H65      1.0000 0.10610  0.50020  0.36600  Biso   1.000  H
  H66      1.0000 0.89390  0.00020  0.13400  Biso   1.000  H
  H67      1.0000 0.89390  0.49980  0.63400  Biso   1.000  H
  H68      1.0000 0.10610  0.99980  0.86600  Biso   1.000  H
  H69      1.0000 0.21930  0.58460  0.36750  Biso   1.000  H
  H70      1.0000 0.78070  0.08460  0.13250  Biso   1.000  H
  H71      1.0000 0.78070  0.41540  0.63250  Biso   1.000  H
  H72      1.0000 0.21930  0.91540  0.86750  Biso   1.000  H
  C53      1.0000 0.06270  0.60730  0.27390  Biso   1.000  C
  C54      1.0000 0.93730  0.10730  0.22610  Biso   1.000  C
  C55      1.0000 0.93730  0.39270  0.72610  Biso   1.000  C
  C56      1.0000 0.06270  0.89270  0.77390  Biso   1.000  C
  H73      1.0000 0.11340  0.65050  0.24490  Biso   1.000  H
  H74      1.0000 0.88660  0.15050  0.25510  Biso   1.000  H
  H75      1.0000 0.88660  0.34950  0.75510  Biso   1.000  H
  H76      1.0000 0.11340  0.84950  0.74490  Biso   1.000  H
  H77      1.0000 0.01580  0.65640  0.30130  Biso   1.000  H
  H78      1.0000 0.98420  0.15640  0.19870  Biso   1.000  H
  H79      1.0000 0.98420  0.34360  0.69870  Biso   1.000  H
  H80      1.0000 0.01580  0.84360  0.80130  Biso   1.000  H
  C57      1.0000 0.96390  0.53910  0.21670  Biso   1.000  C
  C58      1.0000 0.03610  0.03910  0.28330  Biso   1.000  C
  C59      1.0000 0.03610  0.46090  0.78330  Biso   1.000  C
  C60      1.0000 0.96390  0.96090  0.71670  Biso   1.000  C
  C61      1.0000 0.96280  0.53780  0.13730  Biso   1.000  C
  C62      1.0000 0.03720  0.03780  0.36270  Biso   1.000  C
  C63      1.0000 0.03720  0.46220  0.86270  Biso   1.000  C
  C64      1.0000 0.96280  0.96220  0.63730  Biso   1.000  C
  H81      1.0000 0.02200  0.58050  0.11790  Biso   1.000  H
  H82      1.0000 0.97800  0.08050  0.38210  Biso   1.000  H
  H83      1.0000 0.97800  0.41950  0.88210  Biso   1.000  H
  H84      1.0000 0.02200  0.91950  0.61790  Biso   1.000  H
  C65      1.0000 0.87510  0.47420  0.08780  Biso   1.000  C
  C66      1.0000 0.12490  0.97420  0.41220  Biso   1.000  C
  C67      1.0000 0.12490  0.52580  0.91220  Biso   1.000  C
  C68      1.0000 0.87510  0.02580  0.58780  Biso   1.000  C
  H85      1.0000 0.87830  0.47420  0.03500  Biso   1.000  H
  H86      1.0000 0.12170  0.97420  0.46500  Biso   1.000  H
  H87      1.0000 0.12170  0.52580  0.96500  Biso   1.000  H
  H88      1.0000 0.87830  0.02580  0.53500  Biso   1.000  H
  C69      1.0000 0.78440  0.41350  0.18470  Biso   1.000  C
  C70      1.0000 0.21560  0.91350  0.31530  Biso   1.000  C
  C71      1.0000 0.21560  0.58650  0.81530  Biso   1.000  C
  C72      1.0000 0.78440  0.08650  0.68470  Biso   1.000  C
  H89      1.0000 0.72160  0.37210  0.20180  Biso   1.000  H
  H90      1.0000 0.27840  0.87210  0.29820  Biso   1.000  H
  H91      1.0000 0.27840  0.62790  0.79820  Biso   1.000  H
  H92      1.0000 0.72160  0.12790  0.70180  Biso   1.000  H
  C73      1.0000 0.87200  0.47350  0.23980  Biso   1.000  C
  C74      1.0000 0.12800  0.97350  0.26020  Biso   1.000  C
  C75      1.0000 0.12800  0.52650  0.76020  Biso   1.000  C
  C76      1.0000 0.87200  0.02650  0.73980  Biso   1.000  C
  H93      1.0000 0.86910  0.46960  0.29260  Biso   1.000  H
  H94      1.0000 0.13090  0.96960  0.20740  Biso   1.000  H
  H95      1.0000 0.13090  0.53040  0.70740  Biso   1.000  H
  H96      1.0000 0.86910  0.03040  0.79260  Biso   1.000  H
  O21      1.0000 0.60550  0.15440  0.30000  Biso   1.000  O
  O22      1.0000 0.39450  0.65440  0.20000  Biso   1.000  O
  O23      1.0000 0.39450  0.84560  0.70000  Biso   1.000  O
  O24      1.0000 0.60550  0.34560  0.80000  Biso   1.000  O
  H97      1.0000 0.61000  0.13000  0.25500  Biso   1.000  H
  H98      1.0000 0.39000  0.63000  0.24500  Biso   1.000  H
  H99      1.0000 0.39000  0.87000  0.74500  Biso   1.000  H
  H100     1.0000 0.61000  0.37000  0.75500  Biso   1.000  H
  H101     1.0000 0.65200  0.21200  0.31000  Biso   1.000  H
  H102     1.0000 0.34800  0.71200  0.19000  Biso   1.000  H
  H103     1.0000 0.34800  0.78800  0.69000  Biso   1.000  H
  H104     1.0000 0.65200  0.28800  0.81000  Biso   1.000  H
