data_image0
_cell_length_a       10.874
_cell_length_b       22.702
_cell_length_c       9.137
_cell_angle_alpha    90
_cell_angle_beta     106.701
_cell_angle_gamma    90

_symmetry_space_group_name_H-M    "P 1"
_symmetry_int_tables_number       1

loop_
  _symmetry_equiv_pos_as_xyz
  'x, y, z'

loop_
  _atom_site_label
  _atom_site_occupancy
  _atom_site_fract_x
  _atom_site_fract_y
  _atom_site_fract_z
  _atom_site_thermal_displace_type
  _atom_site_B_iso_or_equiv
  _atom_site_type_symbol
  Cu1      1.0000 0.22469  0.27684  0.76683  Biso   1.000  Cu
  Cu2      1.0000 0.77531  0.77684  0.73317  Biso   1.000  Cu
  Cu3      1.0000 0.77531  0.72316  0.23317  Biso   1.000  Cu
  Cu4      1.0000 0.22469  0.22316  0.26683  Biso   1.000  Cu
  O1       1.0000 0.09165  0.32967  0.77090  Biso   1.000  O
  O2       1.0000 0.90835  0.82967  0.72910  Biso   1.000  O
  O3       1.0000 0.90835  0.67033  0.22910  Biso   1.000  O
  O4       1.0000 0.09165  0.17033  0.27090  Biso   1.000  O
  O5       1.0000 0.35735  0.22366  0.74037  Biso   1.000  O
  O6       1.0000 0.64265  0.72366  0.75963  Biso   1.000  O
  O7       1.0000 0.64265  0.77634  0.25963  Biso   1.000  O
  O8       1.0000 0.35735  0.27634  0.24037  Biso   1.000  O
  O9       1.0000 0.38580  0.15040  0.41410  Biso   1.000  O
  O10      1.0000 0.61420  0.65040  0.08590  Biso   1.000  O
  O11      1.0000 0.61420  0.84960  0.58590  Biso   1.000  O
  O12      1.0000 0.38580  0.34960  0.91410  Biso   1.000  O
  N1       1.0000 0.18970  0.28199  0.54780  Biso   1.000  N
  N2       1.0000 0.81030  0.78199  0.95220  Biso   1.000  N
  N3       1.0000 0.81030  0.71801  0.45220  Biso   1.000  N
  N4       1.0000 0.18970  0.21801  0.04780  Biso   1.000  N
  N5       1.0000 0.26140  0.24276  0.48768  Biso   1.000  N
  N6       1.0000 0.73860  0.74276  0.01232  Biso   1.000  N
  N7       1.0000 0.73860  0.75724  0.51232  Biso   1.000  N
  N8       1.0000 0.26140  0.25724  0.98768  Biso   1.000  N
  C1       1.0000 0.02780  0.36435  0.65880  Biso   1.000  C
  C2       1.0000 0.97220  0.86435  0.84120  Biso   1.000  C
  C3       1.0000 0.97220  0.63565  0.34120  Biso   1.000  C
  C4       1.0000 0.02780  0.13565  0.15880  Biso   1.000  C
  C5       1.0000 0.03340  0.35888  0.50500  Biso   1.000  C
  C6       1.0000 0.96660  0.85888  0.99500  Biso   1.000  C
  C7       1.0000 0.96660  0.64112  0.49500  Biso   1.000  C
  C8       1.0000 0.03340  0.14112  0.00500  Biso   1.000  C
  C9       1.0000 0.96020  0.39776  0.39330  Biso   1.000  C
  C10      1.0000 0.03980  0.89776  0.10670  Biso   1.000  C
  C11      1.0000 0.03980  0.60224  0.60670  Biso   1.000  C
  C12      1.0000 0.96020  0.10224  0.89330  Biso   1.000  C
  H1       1.0000 0.96300  0.39410  0.29290  Biso   1.000  H
  H2       1.0000 0.03700  0.89410  0.20710  Biso   1.000  H
  H3       1.0000 0.03700  0.60590  0.70710  Biso   1.000  H
  H4       1.0000 0.96300  0.10590  0.79290  Biso   1.000  H
  C13      1.0000 0.88550  0.44055  0.42830  Biso   1.000  C
  C14      1.0000 0.11450  0.94055  0.07170  Biso   1.000  C
  C15      1.0000 0.11450  0.55945  0.57170  Biso   1.000  C
  C16      1.0000 0.88550  0.05945  0.92830  Biso   1.000  C
  H5       1.0000 0.83790  0.46590  0.35320  Biso   1.000  H
  H6       1.0000 0.16210  0.96590  0.14680  Biso   1.000  H
  H7       1.0000 0.16210  0.53410  0.64680  Biso   1.000  H
  H8       1.0000 0.83790  0.03410  0.85320  Biso   1.000  H
  C17      1.0000 0.88180  0.44561  0.57910  Biso   1.000  C
  C18      1.0000 0.11820  0.94561  0.92090  Biso   1.000  C
  C19      1.0000 0.11820  0.55439  0.42090  Biso   1.000  C
  C20      1.0000 0.88180  0.05439  0.07910  Biso   1.000  C
  H9       1.0000 0.83180  0.47490  0.60470  Biso   1.000  H
  H10      1.0000 0.16820  0.97490  0.89530  Biso   1.000  H
  H11      1.0000 0.16820  0.52510  0.39530  Biso   1.000  H
  H12      1.0000 0.83180  0.02510  0.10470  Biso   1.000  H
  C21      1.0000 0.95040  0.40836  0.68950  Biso   1.000  C
  C22      1.0000 0.04960  0.90836  0.81050  Biso   1.000  C
  C23      1.0000 0.04960  0.59164  0.31050  Biso   1.000  C
  C24      1.0000 0.95040  0.09164  0.18950  Biso   1.000  C
  H13      1.0000 0.94520  0.41260  0.78880  Biso   1.000  H
  H14      1.0000 0.05480  0.91260  0.71120  Biso   1.000  H
  H15      1.0000 0.05480  0.58740  0.21120  Biso   1.000  H
  H16      1.0000 0.94520  0.08740  0.28880  Biso   1.000  H
  C25      1.0000 0.11000  0.31659  0.45730  Biso   1.000  C
  C26      1.0000 0.89000  0.81659  0.04270  Biso   1.000  C
  C27      1.0000 0.89000  0.68341  0.54270  Biso   1.000  C
  C28      1.0000 0.11000  0.18341  0.95730  Biso   1.000  C
  H17      1.0000 0.10180  0.31380  0.35340  Biso   1.000  H
  H18      1.0000 0.89820  0.81380  0.14660  Biso   1.000  H
  H19      1.0000 0.89820  0.68620  0.64660  Biso   1.000  H
  H20      1.0000 0.10180  0.18620  0.85340  Biso   1.000  H
  C29      1.0000 0.34530  0.21523  0.59880  Biso   1.000  C
  C30      1.0000 0.65470  0.71523  0.90120  Biso   1.000  C
  C31      1.0000 0.65470  0.78477  0.40120  Biso   1.000  C
  C32      1.0000 0.34530  0.28477  0.09880  Biso   1.000  C
  C33      1.0000 0.43750  0.17330  0.56310  Biso   1.000  C
  C34      1.0000 0.56250  0.67330  0.93690  Biso   1.000  C
  C35      1.0000 0.56250  0.82670  0.43690  Biso   1.000  C
  C36      1.0000 0.43750  0.32670  0.06310  Biso   1.000  C
  H21      1.0000 0.51780  0.19330  0.57010  Biso   1.000  H
  H22      1.0000 0.48220  0.69330  0.92990  Biso   1.000  H
  H23      1.0000 0.48220  0.80670  0.42990  Biso   1.000  H
  H24      1.0000 0.51780  0.30670  0.07010  Biso   1.000  H
  H25      1.0000 0.45490  0.14130  0.63670  Biso   1.000  H
  H26      1.0000 0.54510  0.64130  0.86330  Biso   1.000  H
  H27      1.0000 0.54510  0.85870  0.36330  Biso   1.000  H
  H28      1.0000 0.45490  0.35870  0.13670  Biso   1.000  H
  C37      1.0000 0.44680  0.10244  0.37430  Biso   1.000  C
  C38      1.0000 0.55320  0.60244  0.12570  Biso   1.000  C
  C39      1.0000 0.55320  0.89756  0.62570  Biso   1.000  C
  C40      1.0000 0.44680  0.39756  0.87430  Biso   1.000  C
  C41      1.0000 0.56630  0.08353  0.45100  Biso   1.000  C
  C42      1.0000 0.43370  0.58353  0.04900  Biso   1.000  C
  C43      1.0000 0.43370  0.91647  0.54900  Biso   1.000  C
  C44      1.0000 0.56630  0.41647  0.95100  Biso   1.000  C
  H29      1.0000 0.61210  0.10290  0.53960  Biso   1.000  H
  H30      1.0000 0.38790  0.60290  0.96040  Biso   1.000  H
  H31      1.0000 0.38790  0.89710  0.46040  Biso   1.000  H
  H32      1.0000 0.61210  0.39710  0.03960  Biso   1.000  H
  C45      1.0000 0.62200  0.03484  0.39820  Biso   1.000  C
  C46      1.0000 0.37800  0.53484  0.10180  Biso   1.000  C
  C47      1.0000 0.37800  0.96516  0.60180  Biso   1.000  C
  C48      1.0000 0.62200  0.46516  0.89820  Biso   1.000  C
  C49      1.0000 0.74780  0.01502  0.47160  Biso   1.000  C
  C50      1.0000 0.25220  0.51502  0.02840  Biso   1.000  C
  C51      1.0000 0.25220  0.98498  0.52840  Biso   1.000  C
  C52      1.0000 0.74780  0.48498  0.97160  Biso   1.000  C
  H33      1.0000 0.79660  0.03440  0.55870  Biso   1.000  H
  H34      1.0000 0.20340  0.53440  0.94130  Biso   1.000  H
  H35      1.0000 0.20340  0.96560  0.44130  Biso   1.000  H
  H36      1.0000 0.79660  0.46560  0.05870  Biso   1.000  H
  C53      1.0000 0.79830  0.96838  0.41730  Biso   1.000  C
  C54      1.0000 0.20170  0.46838  0.08270  Biso   1.000  C
  C55      1.0000 0.20170  0.03162  0.58270  Biso   1.000  C
  C56      1.0000 0.79830  0.53162  0.91730  Biso   1.000  C
  H37      1.0000 0.88120  0.95600  0.46760  Biso   1.000  H
  H38      1.0000 0.11880  0.45600  0.03240  Biso   1.000  H
  H39      1.0000 0.11880  0.04400  0.53240  Biso   1.000  H
  H40      1.0000 0.88120  0.54400  0.96760  Biso   1.000  H
  C57      1.0000 0.72800  0.93881  0.28740  Biso   1.000  C
  C58      1.0000 0.27200  0.43881  0.21260  Biso   1.000  C
  C59      1.0000 0.27200  0.06119  0.71260  Biso   1.000  C
  C60      1.0000 0.72800  0.56119  0.78740  Biso   1.000  C
  H41      1.0000 0.76400  0.90680  0.25110  Biso   1.000  H
  H42      1.0000 0.23600  0.40680  0.24890  Biso   1.000  H
  H43      1.0000 0.23600  0.09320  0.74890  Biso   1.000  H
  H44      1.0000 0.76400  0.59320  0.75110  Biso   1.000  H
  C61      1.0000 0.60730  0.95633  0.21310  Biso   1.000  C
  C62      1.0000 0.39270  0.45633  0.28690  Biso   1.000  C
  C63      1.0000 0.39270  0.04367  0.78690  Biso   1.000  C
  C64      1.0000 0.60730  0.54367  0.71310  Biso   1.000  C
  H45      1.0000 0.56080  0.93600  0.12660  Biso   1.000  H
  H46      1.0000 0.43920  0.43600  0.37340  Biso   1.000  H
  H47      1.0000 0.43920  0.06400  0.87340  Biso   1.000  H
  H48      1.0000 0.56080  0.56400  0.62660  Biso   1.000  H
  C65      1.0000 0.55060  0.00532  0.26540  Biso   1.000  C
  C66      1.0000 0.44940  0.50532  0.23460  Biso   1.000  C
  C67      1.0000 0.44940  0.99468  0.73460  Biso   1.000  C
  C68      1.0000 0.55060  0.49468  0.76540  Biso   1.000  C
  C69      1.0000 0.42680  0.02601  0.19060  Biso   1.000  C
  C70      1.0000 0.57320  0.52601  0.30940  Biso   1.000  C
  C71      1.0000 0.57320  0.97399  0.80940  Biso   1.000  C
  C72      1.0000 0.42680  0.47399  0.69060  Biso   1.000  C
  H49      1.0000 0.37870  0.00670  0.10310  Biso   1.000  H
  H50      1.0000 0.62130  0.50670  0.39690  Biso   1.000  H
  H51      1.0000 0.62130  0.99330  0.89690  Biso   1.000  H
  H52      1.0000 0.37870  0.49330  0.60310  Biso   1.000  H
  C73      1.0000 0.37550  0.07322  0.24190  Biso   1.000  C
  C74      1.0000 0.62450  0.57322  0.25810  Biso   1.000  C
  C75      1.0000 0.62450  0.92678  0.75810  Biso   1.000  C
  C76      1.0000 0.37550  0.42678  0.74190  Biso   1.000  C
  H53      1.0000 0.29350  0.08620  0.18970  Biso   1.000  H
  H54      1.0000 0.70650  0.58620  0.31030  Biso   1.000  H
  H55      1.0000 0.70650  0.91380  0.81030  Biso   1.000  H
  H56      1.0000 0.29350  0.41380  0.68970  Biso   1.000  H
  O13      1.0000 0.83670  0.23117  0.55440  Biso   1.000  O
  O14      1.0000 0.16330  0.73117  0.94560  Biso   1.000  O
  O15      1.0000 0.16330  0.76883  0.44560  Biso   1.000  O
  O16      1.0000 0.83670  0.26883  0.05440  Biso   1.000  O
  N9       1.0000 0.70860  0.29975  0.60600  Biso   1.000  N
  N10      1.0000 0.29140  0.79975  0.89400  Biso   1.000  N
  N11      1.0000 0.29140  0.70025  0.39400  Biso   1.000  N
  N12      1.0000 0.70860  0.20025  0.10600  Biso   1.000  N
  C77      1.0000 0.80190  0.26120  0.64460  Biso   1.000  C
  C78      1.0000 0.19810  0.76120  0.85540  Biso   1.000  C
  C79      1.0000 0.19810  0.73880  0.35540  Biso   1.000  C
  C80      1.0000 0.80190  0.23880  0.14460  Biso   1.000  C
  H57      1.0000 0.84430  0.25660  0.74800  Biso   1.000  H
  H58      1.0000 0.15570  0.75660  0.75200  Biso   1.000  H
  H59      1.0000 0.15570  0.74340  0.25200  Biso   1.000  H
  H60      1.0000 0.84430  0.24340  0.24800  Biso   1.000  H
  C81      1.0000 0.64770  0.31300  0.44690  Biso   1.000  C
  C82      1.0000 0.35230  0.81300  0.05310  Biso   1.000  C
  C83      1.0000 0.35230  0.68700  0.55310  Biso   1.000  C
  C84      1.0000 0.64770  0.18700  0.94690  Biso   1.000  C
  H61      1.0000 0.68090  0.28730  0.38390  Biso   1.000  H
  H62      1.0000 0.31910  0.78730  0.11610  Biso   1.000  H
  H63      1.0000 0.31910  0.71270  0.61610  Biso   1.000  H
  H64      1.0000 0.68090  0.21270  0.88390  Biso   1.000  H
  H65      1.0000 0.66510  0.35320  0.42670  Biso   1.000  H
  H66      1.0000 0.33490  0.85320  0.07330  Biso   1.000  H
  H67      1.0000 0.33490  0.64680  0.57330  Biso   1.000  H
  H68      1.0000 0.66510  0.14680  0.92670  Biso   1.000  H
  H69      1.0000 0.55670  0.30740  0.42450  Biso   1.000  H
  H70      1.0000 0.44330  0.80740  0.07550  Biso   1.000  H
  H71      1.0000 0.44330  0.69260  0.57550  Biso   1.000  H
  H72      1.0000 0.55670  0.19260  0.92450  Biso   1.000  H
  C85      1.0000 0.66910  0.33400  0.71820  Biso   1.000  C
  C86      1.0000 0.33090  0.83400  0.78180  Biso   1.000  C
  C87      1.0000 0.33090  0.66600  0.28180  Biso   1.000  C
  C88      1.0000 0.66910  0.16600  0.21820  Biso   1.000  C
  H73      1.0000 0.71250  0.31980  0.81870  Biso   1.000  H
  H74      1.0000 0.28750  0.81980  0.68130  Biso   1.000  H
  H75      1.0000 0.28750  0.68020  0.18130  Biso   1.000  H
  H76      1.0000 0.71250  0.18020  0.31870  Biso   1.000  H
  H77      1.0000 0.57800  0.33020  0.70020  Biso   1.000  H
  H78      1.0000 0.42200  0.83020  0.79980  Biso   1.000  H
  H79      1.0000 0.42200  0.66980  0.29980  Biso   1.000  H
  H80      1.0000 0.57800  0.16980  0.20020  Biso   1.000  H
  H81      1.0000 0.69050  0.37460  0.71000  Biso   1.000  H
  H82      1.0000 0.30950  0.87460  0.79000  Biso   1.000  H
  H83      1.0000 0.30950  0.62540  0.29000  Biso   1.000  H
  H84      1.0000 0.69050  0.12540  0.21000  Biso   1.000  H
  O17      1.0000 0.04350  0.16060  0.57270  Biso   1.000  O
  O18      1.0000 0.95650  0.66060  0.92730  Biso   1.000  O
  O19      1.0000 0.95650  0.83940  0.42730  Biso   1.000  O
  O20      1.0000 0.04350  0.33940  0.07270  Biso   1.000  O
  H85      1.0000 0.97400  0.18010  0.55500  Biso   1.000  H
  H86      1.0000 0.02600  0.68010  0.94500  Biso   1.000  H
  H87      1.0000 0.02600  0.81990  0.44500  Biso   1.000  H
  H88      1.0000 0.97400  0.31990  0.05500  Biso   1.000  H
  H89      1.0000 0.05200  0.15990  0.48800  Biso   1.000  H
  H90      1.0000 0.94800  0.65990  0.01200  Biso   1.000  H
  H91      1.0000 0.94800  0.84010  0.51200  Biso   1.000  H
  H92      1.0000 0.05200  0.34010  0.98800  Biso   1.000  H
