data_image0
_cell_length_a       5.71
_cell_length_b       9.622
_cell_length_c       17.509
_cell_angle_alpha    90
_cell_angle_beta     102.686
_cell_angle_gamma    90

_symmetry_space_group_name_H-M    "P 1"
_symmetry_int_tables_number       1

loop_
  _symmetry_equiv_pos_as_xyz
  'x, y, z'

loop_
  _atom_site_label
  _atom_site_occupancy
  _atom_site_fract_x
  _atom_site_fract_y
  _atom_site_fract_z
  _atom_site_thermal_displace_type
  _atom_site_B_iso_or_equiv
  _atom_site_type_symbol
  Cu1      1.0000 0.63950  0.98618  0.89650  Biso   1.000  Cu
  Cu2      1.0000 0.63950  0.01382  0.39650  Biso   1.000  Cu
  O1       1.0000 0.71490  0.94080  0.79730  Biso   1.000  O
  O2       1.0000 0.71490  0.05920  0.29730  Biso   1.000  O
  O3       1.0000 0.38890  0.06280  0.75940  Biso   1.000  O
  O4       1.0000 0.38890  0.93720  0.25940  Biso   1.000  O
  O5       1.0000 0.90640  0.10150  0.53210  Biso   1.000  O
  O6       1.0000 0.90640  0.89850  0.03210  Biso   1.000  O
  O7       1.0000 0.57170  0.97250  0.49720  Biso   1.000  O
  O8       1.0000 0.57170  0.02750  0.99720  Biso   1.000  O
  N1       1.0000 0.44360  0.80660  0.89240  Biso   1.000  N
  N2       1.0000 0.44360  0.19340  0.39240  Biso   1.000  N
  N3       1.0000 0.83530  0.16570  0.90240  Biso   1.000  N
  N4       1.0000 0.83530  0.83430  0.40240  Biso   1.000  N
  C1       1.0000 0.56900  0.99510  0.74720  Biso   1.000  C
  C2       1.0000 0.56900  0.00490  0.24720  Biso   1.000  C
  C3       1.0000 0.56600  0.95370  0.66000  Biso   1.000  C
  C4       1.0000 0.56600  0.04630  0.16000  Biso   1.000  C
  H1       1.0000 0.40960  0.97690  0.62670  Biso   1.000  H
  H2       1.0000 0.40960  0.02310  0.12670  Biso   1.000  H
  C5       1.0000 0.73600  0.03810  0.64260  Biso   1.000  C
  C6       1.0000 0.73600  0.96190  0.14260  Biso   1.000  C
  H3       1.0000 0.89100  0.01190  0.67450  Biso   1.000  H
  H4       1.0000 0.89100  0.98810  0.17450  Biso   1.000  H
  H5       1.0000 0.70330  0.13280  0.65610  Biso   1.000  H
  H6       1.0000 0.70330  0.86720  0.15610  Biso   1.000  H
  C7       1.0000 0.75000  0.03260  0.54980  Biso   1.000  C
  C8       1.0000 0.75000  0.96740  0.04980  Biso   1.000  C
  C9       1.0000 0.62800  0.79580  0.64690  Biso   1.000  C
  C10      1.0000 0.62800  0.20420  0.14690  Biso   1.000  C
  C11      1.0000 0.42300  0.71600  0.61120  Biso   1.000  C
  C12      1.0000 0.42300  0.28400  0.11120  Biso   1.000  C
  H7       1.0000 0.27470  0.75650  0.59020  Biso   1.000  H
  H8       1.0000 0.27470  0.24350  0.09020  Biso   1.000  H
  C13      1.0000 0.46000  0.57410  0.60980  Biso   1.000  C
  C14      1.0000 0.46000  0.42590  0.10980  Biso   1.000  C
  H9       1.0000 0.32760  0.51980  0.58780  Biso   1.000  H
  H10      1.0000 0.32760  0.48020  0.08780  Biso   1.000  H
  C15      1.0000 0.65500  0.51060  0.63540  Biso   1.000  C
  C16      1.0000 0.65500  0.48940  0.13540  Biso   1.000  C
  H11      1.0000 0.66330  0.41450  0.63060  Biso   1.000  H
  H12      1.0000 0.66330  0.58550  0.13060  Biso   1.000  H
  C17      1.0000 0.86400  0.58780  0.67190  Biso   1.000  C
  C18      1.0000 0.86400  0.41220  0.17190  Biso   1.000  C
  H13      1.0000 0.01110  0.54540  0.69230  Biso   1.000  H
  H14      1.0000 0.01110  0.45460  0.19230  Biso   1.000  H
  C19      1.0000 0.83200  0.73060  0.67470  Biso   1.000  C
  C20      1.0000 0.83200  0.26940  0.17470  Biso   1.000  C
  H15      1.0000 0.96390  0.78430  0.69790  Biso   1.000  H
  H16      1.0000 0.96390  0.21570  0.19790  Biso   1.000  H
  C21      1.0000 0.48630  0.69710  0.84910  Biso   1.000  C
  C22      1.0000 0.48630  0.30290  0.34910  Biso   1.000  C
  H17      1.0000 0.59770  0.70670  0.81790  Biso   1.000  H
  H18      1.0000 0.59770  0.29330  0.31790  Biso   1.000  H
  C23      1.0000 0.37030  0.57110  0.84960  Biso   1.000  C
  C24      1.0000 0.37030  0.42890  0.34960  Biso   1.000  C
  H19      1.0000 0.41070  0.49670  0.82110  Biso   1.000  H
  H20      1.0000 0.41070  0.50330  0.32110  Biso   1.000  H
  C25      1.0000 0.19340  0.55480  0.89240  Biso   1.000  C
  C26      1.0000 0.19340  0.44520  0.39240  Biso   1.000  C
  C27      1.0000 0.14700  0.66980  0.93370  Biso   1.000  C
  C28      1.0000 0.14700  0.33020  0.43370  Biso   1.000  C
  H21      1.0000 0.02860  0.66520  0.96260  Biso   1.000  H
  H22      1.0000 0.02860  0.33480  0.46260  Biso   1.000  H
  C29      1.0000 0.27400  0.79100  0.93280  Biso   1.000  C
  C30      1.0000 0.27400  0.20900  0.43280  Biso   1.000  C
  H23      1.0000 0.23890  0.86590  0.96200  Biso   1.000  H
  H24      1.0000 0.23890  0.13410  0.46200  Biso   1.000  H
  C31      1.0000 0.06600  0.42070  0.89600  Biso   1.000  C
  C32      1.0000 0.06600  0.57930  0.39600  Biso   1.000  C
  C33      1.0000 0.11500  0.30410  0.85470  Biso   1.000  C
  C34      1.0000 0.11500  0.69590  0.35470  Biso   1.000  C
  H25      1.0000 0.22640  0.31060  0.82330  Biso   1.000  H
  H26      1.0000 0.22640  0.68940  0.32330  Biso   1.000  H
  C35      1.0000 0.00100  0.17970  0.85990  Biso   1.000  C
  C36      1.0000 0.00100  0.82030  0.35990  Biso   1.000  C
  H27      1.0000 0.04080  0.10310  0.83290  Biso   1.000  H
  H28      1.0000 0.04080  0.89690  0.33290  Biso   1.000  H
  C37      1.0000 0.79400  0.27420  0.94220  Biso   1.000  C
  C38      1.0000 0.79400  0.72580  0.44220  Biso   1.000  C
  H29      1.0000 0.67960  0.26490  0.97240  Biso   1.000  H
  H30      1.0000 0.67960  0.73510  0.47240  Biso   1.000  H
  C39      1.0000 0.90400  0.40080  0.94320  Biso   1.000  C
  C40      1.0000 0.90400  0.59920  0.44320  Biso   1.000  C
  H31      1.0000 0.87130  0.47200  0.97520  Biso   1.000  H
  H32      1.0000 0.87130  0.52800  0.47520  Biso   1.000  H
  O9       1.0000 0.17800  0.26980  0.65610  Biso   1.000  O
  O10      1.0000 0.17800  0.73020  0.15610  Biso   1.000  O
  H33      1.0000 0.20170  0.21160  0.69360  Biso   1.000  H
  H34      1.0000 0.20170  0.78840  0.19360  Biso   1.000  H
  H35      1.0000 0.27950  0.26810  0.62710  Biso   1.000  H
  H36      1.0000 0.27950  0.73190  0.12710  Biso   1.000  H
