data_image0
_cell_length_a       6.9209
_cell_length_b       17.591
_cell_length_c       9.088
_cell_angle_alpha    90
_cell_angle_beta     101.81
_cell_angle_gamma    90

_symmetry_space_group_name_H-M    "P 1"
_symmetry_int_tables_number       1

loop_
  _symmetry_equiv_pos_as_xyz
  'x, y, z'

loop_
  _atom_site_label
  _atom_site_occupancy
  _atom_site_fract_x
  _atom_site_fract_y
  _atom_site_fract_z
  _atom_site_thermal_displace_type
  _atom_site_B_iso_or_equiv
  _atom_site_type_symbol
  Cu1      1.0000 0.59469  0.37956  0.56514  Biso   1.000  Cu
  Cu2      1.0000 0.40531  0.87956  0.43486  Biso   1.000  Cu
  O1       1.0000 0.69940  0.38170  0.38440  Biso   1.000  O
  O2       1.0000 0.30060  0.88170  0.61560  Biso   1.000  O
  O3       1.0000 0.88940  0.46590  0.52370  Biso   1.000  O
  O4       1.0000 0.11060  0.96590  0.47630  Biso   1.000  O
  O5       1.0000 0.24920  0.36260  0.39300  Biso   1.000  O
  O6       1.0000 0.75080  0.86260  0.60700  Biso   1.000  O
  O7       1.0000 0.41160  0.46350  0.48860  Biso   1.000  O
  O8       1.0000 0.58840  0.96350  0.51140  Biso   1.000  O
  N1       1.0000 0.79470  0.30320  0.66600  Biso   1.000  N
  N2       1.0000 0.20530  0.80320  0.33400  Biso   1.000  N
  N3       1.0000 0.49650  0.36750  0.75600  Biso   1.000  N
  N4       1.0000 0.50350  0.86750  0.24400  Biso   1.000  N
  C1       1.0000 0.83080  0.43250  0.40140  Biso   1.000  C
  C2       1.0000 0.16920  0.93250  0.59860  Biso   1.000  C
  C3       1.0000 0.91590  0.45110  0.26370  Biso   1.000  C
  C4       1.0000 0.08410  0.95110  0.73630  Biso   1.000  C
  H1       1.0000 0.92800  0.40280  0.21270  Biso   1.000  H
  H2       1.0000 0.07200  0.90280  0.78730  Biso   1.000  H
  C5       1.0000 0.77250  0.50070  0.15220  Biso   1.000  C
  C6       1.0000 0.22750  0.00070  0.84780  Biso   1.000  C
  C7       1.0000 0.79000  0.50390  0.00310  Biso   1.000  C
  C8       1.0000 0.21000  0.00390  0.99690  Biso   1.000  C
  H3       1.0000 0.89000  0.47640  0.97300  Biso   1.000  H
  H4       1.0000 0.11000  0.97640  0.02700  Biso   1.000  H
  C9       1.0000 0.66370  0.54640  0.89880  Biso   1.000  C
  C10      1.0000 0.33630  0.04640  0.10120  Biso   1.000  C
  H5       1.0000 0.67970  0.54810  0.79980  Biso   1.000  H
  H6       1.0000 0.32030  0.04810  0.20020  Biso   1.000  H
  C11      1.0000 0.51330  0.58640  0.94140  Biso   1.000  C
  C12      1.0000 0.48670  0.08640  0.05860  Biso   1.000  C
  H7       1.0000 0.42400  0.61370  0.87050  Biso   1.000  H
  H8       1.0000 0.57600  0.11370  0.12950  Biso   1.000  H
  C13      1.0000 0.49630  0.58580  0.08910  Biso   1.000  C
  C14      1.0000 0.50370  0.08580  0.91090  Biso   1.000  C
  H9       1.0000 0.39780  0.61430  0.11890  Biso   1.000  H
  H10      1.0000 0.60220  0.11430  0.88110  Biso   1.000  H
  C15      1.0000 0.62400  0.54310  0.19410  Biso   1.000  C
  C16      1.0000 0.37600  0.04310  0.80590  Biso   1.000  C
  H11      1.0000 0.61010  0.54280  0.29380  Biso   1.000  H
  H12      1.0000 0.38990  0.04280  0.70620  Biso   1.000  H
  C17      1.0000 0.11690  0.48400  0.30360  Biso   1.000  C
  C18      1.0000 0.88310  0.98400  0.69640  Biso   1.000  C
  H13      1.0000 0.11030  0.53140  0.35680  Biso   1.000  H
  H14      1.0000 0.88970  0.03140  0.64320  Biso   1.000  H
  H15      1.0000 0.16140  0.49580  0.21160  Biso   1.000  H
  H16      1.0000 0.83860  0.99580  0.78840  Biso   1.000  H
  C19      1.0000 0.26820  0.43300  0.39960  Biso   1.000  C
  C20      1.0000 0.73180  0.93300  0.60040  Biso   1.000  C
  C21      1.0000 0.94040  0.27090  0.61830  Biso   1.000  C
  C22      1.0000 0.05960  0.77090  0.38170  Biso   1.000  C
  H17      1.0000 0.95310  0.28010  0.51990  Biso   1.000  H
  H18      1.0000 0.04690  0.78010  0.48010  Biso   1.000  H
  C23      1.0000 0.07810  0.22320  0.70720  Biso   1.000  C
  C24      1.0000 0.92190  0.72320  0.29280  Biso   1.000  C
  H19      1.0000 0.18070  0.20200  0.66900  Biso   1.000  H
  H20      1.0000 0.81930  0.70200  0.33100  Biso   1.000  H
  C25      1.0000 0.05980  0.20830  0.85080  Biso   1.000  C
  C26      1.0000 0.94020  0.70830  0.14920  Biso   1.000  C
  H21      1.0000 0.14870  0.17580  0.91080  Biso   1.000  H
  H22      1.0000 0.85130  0.67580  0.08920  Biso   1.000  H
  C27      1.0000 0.91070  0.24100  0.90670  Biso   1.000  C
  C28      1.0000 0.08930  0.74100  0.09330  Biso   1.000  C
  C29      1.0000 0.87680  0.23110  0.05600  Biso   1.000  C
  C30      1.0000 0.12320  0.73110  0.94400  Biso   1.000  C
  H23      1.0000 0.96320  0.20080  0.12310  Biso   1.000  H
  H24      1.0000 0.03680  0.70080  0.87690  Biso   1.000  H
  C31      1.0000 0.72610  0.26380  0.10200  Biso   1.000  C
  C32      1.0000 0.27390  0.76380  0.89800  Biso   1.000  C
  H25      1.0000 0.71060  0.25580  0.20010  Biso   1.000  H
  H26      1.0000 0.28940  0.75580  0.79990  Biso   1.000  H
  C33      1.0000 0.58660  0.31100  0.00380  Biso   1.000  C
  C34      1.0000 0.41340  0.81100  0.99620  Biso   1.000  C
  C35      1.0000 0.42290  0.34670  0.04240  Biso   1.000  C
  C36      1.0000 0.57710  0.84670  0.95760  Biso   1.000  C
  H27      1.0000 0.39700  0.34040  0.13820  Biso   1.000  H
  H28      1.0000 0.60300  0.84040  0.86180  Biso   1.000  H
  C37      1.0000 0.30130  0.39070  0.93900  Biso   1.000  C
  C38      1.0000 0.69870  0.89070  0.06100  Biso   1.000  C
  H29      1.0000 0.19100  0.41370  0.96340  Biso   1.000  H
  H30      1.0000 0.80900  0.91370  0.03660  Biso   1.000  H
  C39      1.0000 0.34370  0.40100  0.79670  Biso   1.000  C
  C40      1.0000 0.65630  0.90100  0.20330  Biso   1.000  C
  H31      1.0000 0.26230  0.43240  0.72820  Biso   1.000  H
  H32      1.0000 0.73770  0.93240  0.27180  Biso   1.000  H
  C41      1.0000 0.61440  0.32300  0.85820  Biso   1.000  C
  C42      1.0000 0.38560  0.82300  0.14180  Biso   1.000  C
  C43      1.0000 0.77470  0.28790  0.80980  Biso   1.000  C
  C44      1.0000 0.22530  0.78790  0.19020  Biso   1.000  C
  O9       1.0000 0.28050  0.20550  0.36580  Biso   1.000  O
  O10      1.0000 0.71950  0.70550  0.63420  Biso   1.000  O
  H33      1.0000 0.25040  0.25220  0.34690  Biso   1.000  H
  H34      1.0000 0.74960  0.75220  0.65310  Biso   1.000  H
  H35      1.0000 0.36510  0.19820  0.44830  Biso   1.000  H
  H36      1.0000 0.63490  0.69820  0.55170  Biso   1.000  H
  O11      1.0000 0.03530  0.60910  0.63400  Biso   1.000  O
  O12      1.0000 0.96470  0.10910  0.36600  Biso   1.000  O
  H37      1.0000 0.95050  0.64660  0.63560  Biso   1.000  H
  H38      1.0000 0.04950  0.14660  0.36440  Biso   1.000  H
  H39      1.0000 0.98460  0.56510  0.61750  Biso   1.000  H
  H40      1.0000 0.01540  0.06510  0.38250  Biso   1.000  H
  O13      1.0000 0.61900  0.12540  0.46300  Biso   1.000  O
  O14      1.0000 0.38100  0.62540  0.53700  Biso   1.000  O
  H41      1.0000 0.64980  0.07280  0.45200  Biso   1.000  H
  H42      1.0000 0.35020  0.57280  0.54800  Biso   1.000  H
  H43      1.0000 0.59760  0.13820  0.54880  Biso   1.000  H
  H44      1.0000 0.40240  0.63820  0.45120  Biso   1.000  H
