data_image0
_cell_length_a       19.329
_cell_length_b       6.3717
_cell_length_c       16.976
_cell_angle_alpha    90
_cell_angle_beta     90
_cell_angle_gamma    90

_symmetry_space_group_name_H-M    "P 1"
_symmetry_int_tables_number       1

loop_
  _symmetry_equiv_pos_as_xyz
  'x, y, z'

loop_
  _atom_site_label
  _atom_site_occupancy
  _atom_site_fract_x
  _atom_site_fract_y
  _atom_site_fract_z
  _atom_site_thermal_displace_type
  _atom_site_B_iso_or_equiv
  _atom_site_type_symbol
  Cu1      1.0000 0.24717  0.36069  0.41944  Biso   1.000  Cu
  Cu2      1.0000 0.75283  0.63931  0.91944  Biso   1.000  Cu
  Cu3      1.0000 0.74717  0.63931  0.41944  Biso   1.000  Cu
  Cu4      1.0000 0.25283  0.36069  0.91944  Biso   1.000  Cu
  O1       1.0000 0.31040  0.14330  0.45960  Biso   1.000  O
  O2       1.0000 0.68960  0.85670  0.95960  Biso   1.000  O
  O3       1.0000 0.81040  0.85670  0.45960  Biso   1.000  O
  O4       1.0000 0.18960  0.14330  0.95960  Biso   1.000  O
  O5       1.0000 0.23460  0.15780  0.55730  Biso   1.000  O
  O6       1.0000 0.76540  0.84220  0.05730  Biso   1.000  O
  O7       1.0000 0.73460  0.84220  0.55730  Biso   1.000  O
  O8       1.0000 0.26540  0.15780  0.05730  Biso   1.000  O
  O9       1.0000 0.29450  0.58270  0.47600  Biso   1.000  O
  O10      1.0000 0.70550  0.41730  0.97600  Biso   1.000  O
  O11      1.0000 0.79450  0.41730  0.47600  Biso   1.000  O
  O12      1.0000 0.20550  0.58270  0.97600  Biso   1.000  O
  O13      1.0000 0.37920  0.67560  0.39320  Biso   1.000  O
  O14      1.0000 0.62080  0.32440  0.89320  Biso   1.000  O
  O15      1.0000 0.87920  0.32440  0.39320  Biso   1.000  O
  O16      1.0000 0.12080  0.67560  0.89320  Biso   1.000  O
  O17      1.0000 0.31590  0.38660  0.31330  Biso   1.000  O
  O18      1.0000 0.68410  0.61340  0.81330  Biso   1.000  O
  O19      1.0000 0.81590  0.61340  0.31330  Biso   1.000  O
  O20      1.0000 0.18410  0.38660  0.81330  Biso   1.000  O
  H1       1.0000 0.30700  0.31570  0.27210  Biso   1.000  H
  H2       1.0000 0.69300  0.68430  0.77210  Biso   1.000  H
  H3       1.0000 0.80700  0.68430  0.27210  Biso   1.000  H
  H4       1.0000 0.19300  0.31570  0.77210  Biso   1.000  H
  H5       1.0000 0.35100  0.46710  0.31440  Biso   1.000  H
  H6       1.0000 0.64900  0.53290  0.81440  Biso   1.000  H
  H7       1.0000 0.85100  0.53290  0.31440  Biso   1.000  H
  H8       1.0000 0.14900  0.46710  0.81440  Biso   1.000  H
  N1       1.0000 0.15600  0.50220  0.43040  Biso   1.000  N
  N2       1.0000 0.84400  0.49780  0.93040  Biso   1.000  N
  N3       1.0000 0.65600  0.49780  0.43040  Biso   1.000  N
  N4       1.0000 0.34400  0.50220  0.93040  Biso   1.000  N
  N5       1.0000 0.18920  0.15780  0.36020  Biso   1.000  N
  N6       1.0000 0.81080  0.84220  0.86020  Biso   1.000  N
  N7       1.0000 0.68920  0.84220  0.36020  Biso   1.000  N
  N8       1.0000 0.31080  0.15780  0.86020  Biso   1.000  N
  C1       1.0000 0.28770  0.08400  0.52570  Biso   1.000  C
  C2       1.0000 0.71230  0.91600  0.02570  Biso   1.000  C
  C3       1.0000 0.78770  0.91600  0.52570  Biso   1.000  C
  C4       1.0000 0.21230  0.08400  0.02570  Biso   1.000  C
  C5       1.0000 0.32850  0.92490  0.57120  Biso   1.000  C
  C6       1.0000 0.67150  0.07510  0.07120  Biso   1.000  C
  C7       1.0000 0.82850  0.07510  0.57120  Biso   1.000  C
  C8       1.0000 0.17150  0.92490  0.07120  Biso   1.000  C
  H9       1.0000 0.29680  0.82230  0.59310  Biso   1.000  H
  H10      1.0000 0.70320  0.17770  0.09310  Biso   1.000  H
  H11      1.0000 0.79680  0.17770  0.59310  Biso   1.000  H
  H12      1.0000 0.20320  0.82230  0.09310  Biso   1.000  H
  H13      1.0000 0.35120  0.99490  0.61490  Biso   1.000  H
  H14      1.0000 0.64880  0.00510  0.11490  Biso   1.000  H
  H15      1.0000 0.85120  0.00510  0.61490  Biso   1.000  H
  H16      1.0000 0.14880  0.99490  0.11490  Biso   1.000  H
  C9       1.0000 0.38240  0.81130  0.52320  Biso   1.000  C
  C10      1.0000 0.61760  0.18870  0.02320  Biso   1.000  C
  C11      1.0000 0.88240  0.18870  0.52320  Biso   1.000  C
  C12      1.0000 0.11760  0.81130  0.02320  Biso   1.000  C
  H17      1.0000 0.41140  0.91860  0.49830  Biso   1.000  H
  H18      1.0000 0.58860  0.08140  0.99830  Biso   1.000  H
  H19      1.0000 0.91140  0.08140  0.49830  Biso   1.000  H
  H20      1.0000 0.08860  0.91860  0.99830  Biso   1.000  H
  C13      1.0000 0.34990  0.68270  0.45730  Biso   1.000  C
  C14      1.0000 0.65010  0.31730  0.95730  Biso   1.000  C
  C15      1.0000 0.84990  0.31730  0.45730  Biso   1.000  C
  C16      1.0000 0.15010  0.68270  0.95730  Biso   1.000  C
  C17      1.0000 0.42890  0.68040  0.57410  Biso   1.000  C
  C18      1.0000 0.57110  0.31960  0.07410  Biso   1.000  C
  C19      1.0000 0.92890  0.31960  0.57410  Biso   1.000  C
  C20      1.0000 0.07110  0.68040  0.07410  Biso   1.000  C
  C21      1.0000 0.40860  0.49240  0.60600  Biso   1.000  C
  C22      1.0000 0.59140  0.50760  0.10600  Biso   1.000  C
  C23      1.0000 0.90860  0.50760  0.60600  Biso   1.000  C
  C24      1.0000 0.09140  0.49240  0.10600  Biso   1.000  C
  H21      1.0000 0.36480  0.44000  0.59450  Biso   1.000  H
  H22      1.0000 0.63520  0.56000  0.09450  Biso   1.000  H
  H23      1.0000 0.86480  0.56000  0.59450  Biso   1.000  H
  H24      1.0000 0.13520  0.44000  0.09450  Biso   1.000  H
  C25      1.0000 0.45180  0.38000  0.65460  Biso   1.000  C
  C26      1.0000 0.54820  0.62000  0.15460  Biso   1.000  C
  C27      1.0000 0.95180  0.62000  0.65460  Biso   1.000  C
  C28      1.0000 0.04820  0.38000  0.15460  Biso   1.000  C
  H25      1.0000 0.43630  0.25520  0.67690  Biso   1.000  H
  H26      1.0000 0.56370  0.74480  0.17690  Biso   1.000  H
  H27      1.0000 0.93630  0.74480  0.67690  Biso   1.000  H
  H28      1.0000 0.06370  0.25520  0.17690  Biso   1.000  H
  C29      1.0000 0.51660  0.44930  0.67020  Biso   1.000  C
  C30      1.0000 0.48340  0.55070  0.17020  Biso   1.000  C
  C31      1.0000 0.01660  0.55070  0.67020  Biso   1.000  C
  C32      1.0000 0.98340  0.44930  0.17020  Biso   1.000  C
  H29      1.0000 0.54660  0.36900  0.70070  Biso   1.000  H
  H30      1.0000 0.45340  0.63100  0.20070  Biso   1.000  H
  H31      1.0000 0.04660  0.63100  0.70070  Biso   1.000  H
  H32      1.0000 0.95340  0.36900  0.20070  Biso   1.000  H
  C33      1.0000 0.53720  0.63760  0.64090  Biso   1.000  C
  C34      1.0000 0.46280  0.36240  0.14090  Biso   1.000  C
  C35      1.0000 0.03720  0.36240  0.64090  Biso   1.000  C
  C36      1.0000 0.96280  0.63760  0.14090  Biso   1.000  C
  H33      1.0000 0.58090  0.68970  0.65280  Biso   1.000  H
  H34      1.0000 0.41910  0.31030  0.15280  Biso   1.000  H
  H35      1.0000 0.08090  0.31030  0.65280  Biso   1.000  H
  H36      1.0000 0.91910  0.68970  0.15280  Biso   1.000  H
  C37      1.0000 0.49330  0.75040  0.59370  Biso   1.000  C
  C38      1.0000 0.50670  0.24960  0.09370  Biso   1.000  C
  C39      1.0000 0.99330  0.24960  0.59370  Biso   1.000  C
  C40      1.0000 0.00670  0.75040  0.09370  Biso   1.000  C
  H37      1.0000 0.50800  0.87940  0.57440  Biso   1.000  H
  H38      1.0000 0.49200  0.12060  0.07440  Biso   1.000  H
  H39      1.0000 0.00800  0.12060  0.57440  Biso   1.000  H
  H40      1.0000 0.99200  0.87940  0.07440  Biso   1.000  H
  C41      1.0000 0.14420  0.67210  0.47140  Biso   1.000  C
  C42      1.0000 0.85580  0.32790  0.97140  Biso   1.000  C
  C43      1.0000 0.64420  0.32790  0.47140  Biso   1.000  C
  C44      1.0000 0.35580  0.67210  0.97140  Biso   1.000  C
  H41      1.0000 0.18100  0.74130  0.49530  Biso   1.000  H
  H42      1.0000 0.81900  0.25870  0.99530  Biso   1.000  H
  H43      1.0000 0.68100  0.25870  0.49530  Biso   1.000  H
  H44      1.0000 0.31900  0.74130  0.99530  Biso   1.000  H
  C45      1.0000 0.07780  0.75070  0.47980  Biso   1.000  C
  C46      1.0000 0.92220  0.24930  0.97980  Biso   1.000  C
  C47      1.0000 0.57780  0.24930  0.47980  Biso   1.000  C
  C48      1.0000 0.42220  0.75070  0.97980  Biso   1.000  C
  H45      1.0000 0.07020  0.87300  0.50840  Biso   1.000  H
  H46      1.0000 0.92980  0.12700  0.00840  Biso   1.000  H
  H47      1.0000 0.57020  0.12700  0.50840  Biso   1.000  H
  H48      1.0000 0.42980  0.87300  0.00840  Biso   1.000  H
  C49      1.0000 0.02360  0.64780  0.44590  Biso   1.000  C
  C50      1.0000 0.97640  0.35220  0.94590  Biso   1.000  C
  C51      1.0000 0.52360  0.35220  0.44590  Biso   1.000  C
  C52      1.0000 0.47640  0.64780  0.94590  Biso   1.000  C
  H49      1.0000 0.97860  0.69740  0.45140  Biso   1.000  H
  H50      1.0000 0.02140  0.30260  0.95140  Biso   1.000  H
  H51      1.0000 0.47860  0.30260  0.45140  Biso   1.000  H
  H52      1.0000 0.52140  0.69740  0.95140  Biso   1.000  H
  C53      1.0000 0.03690  0.47230  0.40430  Biso   1.000  C
  C54      1.0000 0.96310  0.52770  0.90430  Biso   1.000  C
  C55      1.0000 0.53690  0.52770  0.40430  Biso   1.000  C
  C56      1.0000 0.46310  0.47230  0.90430  Biso   1.000  C
  H53      1.0000 0.00070  0.40270  0.37940  Biso   1.000  H
  H54      1.0000 0.99930  0.59730  0.87940  Biso   1.000  H
  H55      1.0000 0.50070  0.59730  0.37940  Biso   1.000  H
  H56      1.0000 0.49930  0.40270  0.87940  Biso   1.000  H
  C57      1.0000 0.10280  0.39460  0.39810  Biso   1.000  C
  C58      1.0000 0.89720  0.60540  0.89810  Biso   1.000  C
  C59      1.0000 0.60280  0.60540  0.39810  Biso   1.000  C
  C60      1.0000 0.39720  0.39460  0.89810  Biso   1.000  C
  C61      1.0000 0.12200  0.20090  0.35800  Biso   1.000  C
  C62      1.0000 0.87800  0.79910  0.85800  Biso   1.000  C
  C63      1.0000 0.62200  0.79910  0.35800  Biso   1.000  C
  C64      1.0000 0.37800  0.20090  0.85800  Biso   1.000  C
  C65      1.0000 0.07640  0.06900  0.31910  Biso   1.000  C
  C66      1.0000 0.92360  0.93100  0.81910  Biso   1.000  C
  C67      1.0000 0.57640  0.93100  0.31910  Biso   1.000  C
  C68      1.0000 0.42360  0.06900  0.81910  Biso   1.000  C
  H57      1.0000 0.02930  0.09910  0.31810  Biso   1.000  H
  H58      1.0000 0.97070  0.90090  0.81810  Biso   1.000  H
  H59      1.0000 0.52930  0.90090  0.31810  Biso   1.000  H
  H60      1.0000 0.47070  0.09910  0.81810  Biso   1.000  H
  C69      1.0000 0.10120  0.89460  0.28220  Biso   1.000  C
  C70      1.0000 0.89880  0.10540  0.78220  Biso   1.000  C
  C71      1.0000 0.60120  0.10540  0.28220  Biso   1.000  C
  C72      1.0000 0.39880  0.89460  0.78220  Biso   1.000  C
  H61      1.0000 0.07120  0.80680  0.25480  Biso   1.000  H
  H62      1.0000 0.92880  0.19320  0.75480  Biso   1.000  H
  H63      1.0000 0.57120  0.19320  0.25480  Biso   1.000  H
  H64      1.0000 0.42880  0.80680  0.75480  Biso   1.000  H
  C73      1.0000 0.16860  0.84980  0.28530  Biso   1.000  C
  C74      1.0000 0.83140  0.15020  0.78530  Biso   1.000  C
  C75      1.0000 0.66860  0.15020  0.28530  Biso   1.000  C
  C76      1.0000 0.33140  0.84980  0.78530  Biso   1.000  C
  H65      1.0000 0.18580  0.72930  0.26130  Biso   1.000  H
  H66      1.0000 0.81420  0.27070  0.76130  Biso   1.000  H
  H67      1.0000 0.68580  0.27070  0.26130  Biso   1.000  H
  H68      1.0000 0.31420  0.72930  0.76130  Biso   1.000  H
  C77      1.0000 0.21210  0.98480  0.32450  Biso   1.000  C
  C78      1.0000 0.78790  0.01520  0.82450  Biso   1.000  C
  C79      1.0000 0.71210  0.01520  0.32450  Biso   1.000  C
  C80      1.0000 0.28790  0.98480  0.82450  Biso   1.000  C
  H69      1.0000 0.25920  0.95440  0.32630  Biso   1.000  H
  H70      1.0000 0.74080  0.04560  0.82630  Biso   1.000  H
  H71      1.0000 0.75920  0.04560  0.32630  Biso   1.000  H
  H72      1.0000 0.24080  0.95440  0.82630  Biso   1.000  H
  O21      1.0000 0.27610  0.49280  0.16630  Biso   1.000  O
  O22      1.0000 0.72390  0.50720  0.66630  Biso   1.000  O
  O23      1.0000 0.77610  0.50720  0.16630  Biso   1.000  O
  O24      1.0000 0.22390  0.49280  0.66630  Biso   1.000  O
  H73      1.0000 0.28300  0.46050  0.21470  Biso   1.000  H
  H74      1.0000 0.71700  0.53950  0.71470  Biso   1.000  H
  H75      1.0000 0.78300  0.53950  0.21470  Biso   1.000  H
  H76      1.0000 0.21700  0.46050  0.71470  Biso   1.000  H
  H77      1.0000 0.30190  0.58910  0.14700  Biso   1.000  H
  H78      1.0000 0.69810  0.41090  0.64700  Biso   1.000  H
  H79      1.0000 0.80190  0.41090  0.14700  Biso   1.000  H
  H80      1.0000 0.19810  0.58910  0.64700  Biso   1.000  H
  O25      1.0000 0.40170  0.02210  0.29490  Biso   1.000  O
  O26      1.0000 0.59830  0.97790  0.79490  Biso   1.000  O
  O27      1.0000 0.90170  0.97790  0.29490  Biso   1.000  O
  O28      1.0000 0.09830  0.02210  0.79490  Biso   1.000  O
  H81      1.0000 0.35960  0.96900  0.29420  Biso   1.000  H
  H82      1.0000 0.64040  0.03100  0.79420  Biso   1.000  H
  H83      1.0000 0.85960  0.03100  0.29420  Biso   1.000  H
  H84      1.0000 0.14040  0.96900  0.79420  Biso   1.000  H
  H85      1.0000 0.43370  0.96240  0.32250  Biso   1.000  H
  H86      1.0000 0.56630  0.03760  0.82250  Biso   1.000  H
  H87      1.0000 0.93370  0.03760  0.32250  Biso   1.000  H
  H88      1.0000 0.06630  0.96240  0.82250  Biso   1.000  H
  O29      1.0000 0.16290  0.88420  0.65410  Biso   1.000  O
  O30      1.0000 0.83710  0.11580  0.15410  Biso   1.000  O
  O31      1.0000 0.66290  0.11580  0.65410  Biso   1.000  O
  O32      1.0000 0.33710  0.88420  0.15410  Biso   1.000  O
  H89      1.0000 0.19010  0.98440  0.64190  Biso   1.000  H
  H90      1.0000 0.80990  0.01560  0.14190  Biso   1.000  H
  H91      1.0000 0.69010  0.01560  0.64190  Biso   1.000  H
  H92      1.0000 0.30990  0.98440  0.14190  Biso   1.000  H
  H93      1.0000 0.12290  0.88440  0.63160  Biso   1.000  H
  H94      1.0000 0.87710  0.11560  0.13160  Biso   1.000  H
  H95      1.0000 0.62290  0.11560  0.63160  Biso   1.000  H
  H96      1.0000 0.37710  0.88440  0.13160  Biso   1.000  H
