data_image0
_cell_length_a       30.474
_cell_length_b       7.585
_cell_length_c       17.188
_cell_angle_alpha    90
_cell_angle_beta     116.81
_cell_angle_gamma    90

_symmetry_space_group_name_H-M    "P 1"
_symmetry_int_tables_number       1

loop_
  _symmetry_equiv_pos_as_xyz
  'x, y, z'

loop_
  _atom_site_label
  _atom_site_occupancy
  _atom_site_fract_x
  _atom_site_fract_y
  _atom_site_fract_z
  _atom_site_thermal_displace_type
  _atom_site_B_iso_or_equiv
  _atom_site_type_symbol
  Cu1      1.0000 0.40053  0.32644  0.53479  Biso   1.000  Cu
  Cu2      1.0000 0.90053  0.82644  0.53479  Biso   1.000  Cu
  Cu3      1.0000 0.59947  0.32644  0.96521  Biso   1.000  Cu
  Cu4      1.0000 0.09947  0.82644  0.96521  Biso   1.000  Cu
  Cu5      1.0000 0.59947  0.67356  0.46521  Biso   1.000  Cu
  Cu6      1.0000 0.09947  0.17356  0.46521  Biso   1.000  Cu
  Cu7      1.0000 0.40053  0.67356  0.03479  Biso   1.000  Cu
  Cu8      1.0000 0.90053  0.17356  0.03479  Biso   1.000  Cu
  O1       1.0000 0.39860  0.18000  0.62730  Biso   1.000  O
  O2       1.0000 0.89860  0.68000  0.62730  Biso   1.000  O
  O3       1.0000 0.60140  0.18000  0.87270  Biso   1.000  O
  O4       1.0000 0.10140  0.68000  0.87270  Biso   1.000  O
  O5       1.0000 0.60140  0.82000  0.37270  Biso   1.000  O
  O6       1.0000 0.10140  0.32000  0.37270  Biso   1.000  O
  O7       1.0000 0.39860  0.82000  0.12730  Biso   1.000  O
  O8       1.0000 0.89860  0.32000  0.12730  Biso   1.000  O
  O9       1.0000 0.35620  0.04110  0.50310  Biso   1.000  O
  O10      1.0000 0.85620  0.54110  0.50310  Biso   1.000  O
  O11      1.0000 0.64380  0.04110  0.99690  Biso   1.000  O
  O12      1.0000 0.14380  0.54110  0.99690  Biso   1.000  O
  O13      1.0000 0.64380  0.95890  0.49690  Biso   1.000  O
  O14      1.0000 0.14380  0.45890  0.49690  Biso   1.000  O
  O15      1.0000 0.35620  0.95890  0.00310  Biso   1.000  O
  O16      1.0000 0.85620  0.45890  0.00310  Biso   1.000  O
  O17      1.0000 0.41460  0.64720  0.60950  Biso   1.000  O
  O18      1.0000 0.91460  0.14720  0.60950  Biso   1.000  O
  O19      1.0000 0.58540  0.64720  0.89050  Biso   1.000  O
  O20      1.0000 0.08540  0.14720  0.89050  Biso   1.000  O
  O21      1.0000 0.58540  0.35280  0.39050  Biso   1.000  O
  O22      1.0000 0.08540  0.85280  0.39050  Biso   1.000  O
  O23      1.0000 0.41460  0.35280  0.10950  Biso   1.000  O
  O24      1.0000 0.91460  0.85280  0.10950  Biso   1.000  O
  O25      1.0000 0.35000  0.48550  0.52910  Biso   1.000  O
  O26      1.0000 0.85000  0.98550  0.52910  Biso   1.000  O
  O27      1.0000 0.65000  0.48550  0.97090  Biso   1.000  O
  O28      1.0000 0.15000  0.98550  0.97090  Biso   1.000  O
  O29      1.0000 0.65000  0.51450  0.47090  Biso   1.000  O
  O30      1.0000 0.15000  0.01450  0.47090  Biso   1.000  O
  O31      1.0000 0.35000  0.51450  0.02910  Biso   1.000  O
  O32      1.0000 0.85000  0.01450  0.02910  Biso   1.000  O
  N1       1.0000 0.46560  0.23940  0.55340  Biso   1.000  N
  N2       1.0000 0.96560  0.73940  0.55340  Biso   1.000  N
  N3       1.0000 0.53440  0.23940  0.94660  Biso   1.000  N
  N4       1.0000 0.03440  0.73940  0.94660  Biso   1.000  N
  N5       1.0000 0.53440  0.76060  0.44660  Biso   1.000  N
  N6       1.0000 0.03440  0.26060  0.44660  Biso   1.000  N
  N7       1.0000 0.46560  0.76060  0.05340  Biso   1.000  N
  N8       1.0000 0.96560  0.26060  0.05340  Biso   1.000  N
  N9       1.0000 0.39980  0.41190  0.42480  Biso   1.000  N
  N10      1.0000 0.89980  0.91190  0.42480  Biso   1.000  N
  N11      1.0000 0.60020  0.41190  0.07520  Biso   1.000  N
  N12      1.0000 0.10020  0.91190  0.07520  Biso   1.000  N
  N13      1.0000 0.60020  0.58810  0.57520  Biso   1.000  N
  N14      1.0000 0.10020  0.08810  0.57520  Biso   1.000  N
  N15      1.0000 0.39980  0.58810  0.92480  Biso   1.000  N
  N16      1.0000 0.89980  0.08810  0.92480  Biso   1.000  N
  C1       1.0000 0.37130  0.05280  0.58290  Biso   1.000  C
  C2       1.0000 0.87130  0.55280  0.58290  Biso   1.000  C
  C3       1.0000 0.62870  0.05280  0.91710  Biso   1.000  C
  C4       1.0000 0.12870  0.55280  0.91710  Biso   1.000  C
  C5       1.0000 0.62870  0.94720  0.41710  Biso   1.000  C
  C6       1.0000 0.12870  0.44720  0.41710  Biso   1.000  C
  C7       1.0000 0.37130  0.94720  0.08290  Biso   1.000  C
  C8       1.0000 0.87130  0.44720  0.08290  Biso   1.000  C
  C9       1.0000 0.35760  0.91650  0.63350  Biso   1.000  C
  C10      1.0000 0.85760  0.41650  0.63350  Biso   1.000  C
  C11      1.0000 0.64240  0.91650  0.86650  Biso   1.000  C
  C12      1.0000 0.14240  0.41650  0.86650  Biso   1.000  C
  C13      1.0000 0.64240  0.08350  0.36650  Biso   1.000  C
  C14      1.0000 0.14240  0.58350  0.36650  Biso   1.000  C
  C15      1.0000 0.35760  0.08350  0.13350  Biso   1.000  C
  C16      1.0000 0.85760  0.58350  0.13350  Biso   1.000  C
  H1       1.0000 0.38800  0.88090  0.68400  Biso   1.000  H
  H2       1.0000 0.88800  0.38090  0.68400  Biso   1.000  H
  H3       1.0000 0.61200  0.88090  0.81600  Biso   1.000  H
  H4       1.0000 0.11200  0.38090  0.81600  Biso   1.000  H
  H5       1.0000 0.61200  0.11910  0.31600  Biso   1.000  H
  H6       1.0000 0.11200  0.61910  0.31600  Biso   1.000  H
  H7       1.0000 0.38800  0.11910  0.18400  Biso   1.000  H
  H8       1.0000 0.88800  0.61910  0.18400  Biso   1.000  H
  C17      1.0000 0.32480  0.00010  0.66750  Biso   1.000  C
  C18      1.0000 0.82480  0.50010  0.66750  Biso   1.000  C
  C19      1.0000 0.67520  0.00010  0.83250  Biso   1.000  C
  C20      1.0000 0.17520  0.50010  0.83250  Biso   1.000  C
  C21      1.0000 0.67520  0.99990  0.33250  Biso   1.000  C
  C22      1.0000 0.17520  0.49990  0.33250  Biso   1.000  C
  C23      1.0000 0.32480  0.99990  0.16750  Biso   1.000  C
  C24      1.0000 0.82480  0.49990  0.16750  Biso   1.000  C
  C25      1.0000 0.28420  0.10200  0.61480  Biso   1.000  C
  C26      1.0000 0.78420  0.60200  0.61480  Biso   1.000  C
  C27      1.0000 0.71580  0.10200  0.88520  Biso   1.000  C
  C28      1.0000 0.21580  0.60200  0.88520  Biso   1.000  C
  C29      1.0000 0.71580  0.89800  0.38520  Biso   1.000  C
  C30      1.0000 0.21580  0.39800  0.38520  Biso   1.000  C
  C31      1.0000 0.28420  0.89800  0.11480  Biso   1.000  C
  C32      1.0000 0.78420  0.39800  0.11480  Biso   1.000  C
  H9       1.0000 0.27700  0.12040  0.55670  Biso   1.000  H
  H10      1.0000 0.77700  0.62040  0.55670  Biso   1.000  H
  H11      1.0000 0.72300  0.12040  0.94330  Biso   1.000  H
  H12      1.0000 0.22300  0.62040  0.94330  Biso   1.000  H
  H13      1.0000 0.72300  0.87960  0.44330  Biso   1.000  H
  H14      1.0000 0.22300  0.37960  0.44330  Biso   1.000  H
  H15      1.0000 0.27700  0.87960  0.05670  Biso   1.000  H
  H16      1.0000 0.77700  0.37960  0.05670  Biso   1.000  H
  C33      1.0000 0.25460  0.17630  0.64770  Biso   1.000  C
  C34      1.0000 0.75460  0.67630  0.64770  Biso   1.000  C
  C35      1.0000 0.74540  0.17630  0.85230  Biso   1.000  C
  C36      1.0000 0.24540  0.67630  0.85230  Biso   1.000  C
  C37      1.0000 0.74540  0.82370  0.35230  Biso   1.000  C
  C38      1.0000 0.24540  0.32370  0.35230  Biso   1.000  C
  C39      1.0000 0.25460  0.82370  0.14770  Biso   1.000  C
  C40      1.0000 0.75460  0.32370  0.14770  Biso   1.000  C
  H17      1.0000 0.22810  0.24610  0.61190  Biso   1.000  H
  H18      1.0000 0.72810  0.74610  0.61190  Biso   1.000  H
  H19      1.0000 0.77190  0.24610  0.88810  Biso   1.000  H
  H20      1.0000 0.27190  0.74610  0.88810  Biso   1.000  H
  H21      1.0000 0.77190  0.75390  0.38810  Biso   1.000  H
  H22      1.0000 0.27190  0.25390  0.38810  Biso   1.000  H
  H23      1.0000 0.22810  0.75390  0.11190  Biso   1.000  H
  H24      1.0000 0.72810  0.25390  0.11190  Biso   1.000  H
  C41      1.0000 0.26400  0.14820  0.73270  Biso   1.000  C
  C42      1.0000 0.76400  0.64820  0.73270  Biso   1.000  C
  C43      1.0000 0.73600  0.14820  0.76730  Biso   1.000  C
  C44      1.0000 0.23600  0.64820  0.76730  Biso   1.000  C
  C45      1.0000 0.73600  0.85180  0.26730  Biso   1.000  C
  C46      1.0000 0.23600  0.35180  0.26730  Biso   1.000  C
  C47      1.0000 0.26400  0.85180  0.23270  Biso   1.000  C
  C48      1.0000 0.76400  0.35180  0.23270  Biso   1.000  C
  H25      1.0000 0.24440  0.20020  0.75490  Biso   1.000  H
  H26      1.0000 0.74440  0.70020  0.75490  Biso   1.000  H
  H27      1.0000 0.75560  0.20020  0.74510  Biso   1.000  H
  H28      1.0000 0.25560  0.70020  0.74510  Biso   1.000  H
  H29      1.0000 0.75560  0.79980  0.24510  Biso   1.000  H
  H30      1.0000 0.25560  0.29980  0.24510  Biso   1.000  H
  H31      1.0000 0.24440  0.79980  0.25490  Biso   1.000  H
  H32      1.0000 0.74440  0.29980  0.25490  Biso   1.000  H
  C49      1.0000 0.30260  0.04300  0.78430  Biso   1.000  C
  C50      1.0000 0.80260  0.54300  0.78430  Biso   1.000  C
  C51      1.0000 0.69740  0.04300  0.71570  Biso   1.000  C
  C52      1.0000 0.19740  0.54300  0.71570  Biso   1.000  C
  C53      1.0000 0.69740  0.95700  0.21570  Biso   1.000  C
  C54      1.0000 0.19740  0.45700  0.21570  Biso   1.000  C
  C55      1.0000 0.30260  0.95700  0.28430  Biso   1.000  C
  C56      1.0000 0.80260  0.45700  0.28430  Biso   1.000  C
  H33      1.0000 0.30860  0.02050  0.84140  Biso   1.000  H
  H34      1.0000 0.80860  0.52050  0.84140  Biso   1.000  H
  H35      1.0000 0.69140  0.02050  0.65860  Biso   1.000  H
  H36      1.0000 0.19140  0.52050  0.65860  Biso   1.000  H
  H37      1.0000 0.69140  0.97950  0.15860  Biso   1.000  H
  H38      1.0000 0.19140  0.47950  0.15860  Biso   1.000  H
  H39      1.0000 0.30860  0.97950  0.34140  Biso   1.000  H
  H40      1.0000 0.80860  0.47950  0.34140  Biso   1.000  H
  C57      1.0000 0.33250  0.97020  0.75250  Biso   1.000  C
  C58      1.0000 0.83250  0.47020  0.75250  Biso   1.000  C
  C59      1.0000 0.66750  0.97020  0.74750  Biso   1.000  C
  C60      1.0000 0.16750  0.47020  0.74750  Biso   1.000  C
  C61      1.0000 0.66750  0.02980  0.24750  Biso   1.000  C
  C62      1.0000 0.16750  0.52980  0.24750  Biso   1.000  C
  C63      1.0000 0.33250  0.02980  0.25250  Biso   1.000  C
  C64      1.0000 0.83250  0.52980  0.25250  Biso   1.000  C
  H41      1.0000 0.35860  0.89910  0.78880  Biso   1.000  H
  H42      1.0000 0.85860  0.39910  0.78880  Biso   1.000  H
  H43      1.0000 0.64140  0.89910  0.71120  Biso   1.000  H
  H44      1.0000 0.14140  0.39910  0.71120  Biso   1.000  H
  H45      1.0000 0.64140  0.10090  0.21120  Biso   1.000  H
  H46      1.0000 0.14140  0.60090  0.21120  Biso   1.000  H
  H47      1.0000 0.35860  0.10090  0.28880  Biso   1.000  H
  H48      1.0000 0.85860  0.60090  0.28880  Biso   1.000  H
  C65      1.0000 0.33490  0.75320  0.58100  Biso   1.000  C
  C66      1.0000 0.83490  0.25320  0.58100  Biso   1.000  C
  C67      1.0000 0.66510  0.75320  0.91900  Biso   1.000  C
  C68      1.0000 0.16510  0.25320  0.91900  Biso   1.000  C
  C69      1.0000 0.66510  0.24680  0.41900  Biso   1.000  C
  C70      1.0000 0.16510  0.74680  0.41900  Biso   1.000  C
  C71      1.0000 0.33490  0.24680  0.08100  Biso   1.000  C
  C72      1.0000 0.83490  0.74680  0.08100  Biso   1.000  C
  H49      1.0000 0.31640  0.69350  0.60680  Biso   1.000  H
  H50      1.0000 0.81640  0.19350  0.60680  Biso   1.000  H
  H51      1.0000 0.68360  0.69350  0.89320  Biso   1.000  H
  H52      1.0000 0.18360  0.19350  0.89320  Biso   1.000  H
  H53      1.0000 0.68360  0.30650  0.39320  Biso   1.000  H
  H54      1.0000 0.18360  0.80650  0.39320  Biso   1.000  H
  H55      1.0000 0.31640  0.30650  0.10680  Biso   1.000  H
  H56      1.0000 0.81640  0.80650  0.10680  Biso   1.000  H
  H57      1.0000 0.31170  0.78870  0.52260  Biso   1.000  H
  H58      1.0000 0.81170  0.28870  0.52260  Biso   1.000  H
  H59      1.0000 0.68830  0.78870  0.97740  Biso   1.000  H
  H60      1.0000 0.18830  0.28870  0.97740  Biso   1.000  H
  H61      1.0000 0.68830  0.21130  0.47740  Biso   1.000  H
  H62      1.0000 0.18830  0.71130  0.47740  Biso   1.000  H
  H63      1.0000 0.31170  0.21130  0.02260  Biso   1.000  H
  H64      1.0000 0.81170  0.71130  0.02260  Biso   1.000  H
  C73      1.0000 0.37030  0.62390  0.57430  Biso   1.000  C
  C74      1.0000 0.87030  0.12390  0.57430  Biso   1.000  C
  C75      1.0000 0.62970  0.62390  0.92570  Biso   1.000  C
  C76      1.0000 0.12970  0.12390  0.92570  Biso   1.000  C
  C77      1.0000 0.62970  0.37610  0.42570  Biso   1.000  C
  C78      1.0000 0.12970  0.87610  0.42570  Biso   1.000  C
  C79      1.0000 0.37030  0.37610  0.07430  Biso   1.000  C
  C80      1.0000 0.87030  0.87610  0.07430  Biso   1.000  C
  C81      1.0000 0.49740  0.15170  0.62270  Biso   1.000  C
  C82      1.0000 0.99740  0.65170  0.62270  Biso   1.000  C
  C83      1.0000 0.50260  0.15170  0.87730  Biso   1.000  C
  C84      1.0000 0.00260  0.65170  0.87730  Biso   1.000  C
  C85      1.0000 0.50260  0.84830  0.37730  Biso   1.000  C
  C86      1.0000 0.00260  0.34830  0.37730  Biso   1.000  C
  C87      1.0000 0.49740  0.84830  0.12270  Biso   1.000  C
  C88      1.0000 0.99740  0.34830  0.12270  Biso   1.000  C
  H65      1.0000 0.48830  0.12330  0.66610  Biso   1.000  H
  H66      1.0000 0.98830  0.62330  0.66610  Biso   1.000  H
  H67      1.0000 0.51170  0.12330  0.83390  Biso   1.000  H
  H68      1.0000 0.01170  0.62330  0.83390  Biso   1.000  H
  H69      1.0000 0.51170  0.87670  0.33390  Biso   1.000  H
  H70      1.0000 0.01170  0.37670  0.33390  Biso   1.000  H
  H71      1.0000 0.48830  0.87670  0.16610  Biso   1.000  H
  H72      1.0000 0.98830  0.37670  0.16610  Biso   1.000  H
  C89      1.0000 0.54290  0.10060  0.63350  Biso   1.000  C
  C90      1.0000 0.04290  0.60060  0.63350  Biso   1.000  C
  C91      1.0000 0.45710  0.10060  0.86650  Biso   1.000  C
  C92      1.0000 0.95710  0.60060  0.86650  Biso   1.000  C
  C93      1.0000 0.45710  0.89940  0.36650  Biso   1.000  C
  C94      1.0000 0.95710  0.39940  0.36650  Biso   1.000  C
  C95      1.0000 0.54290  0.89940  0.13350  Biso   1.000  C
  C96      1.0000 0.04290  0.39940  0.13350  Biso   1.000  C
  H73      1.0000 0.56430  0.03990  0.68320  Biso   1.000  H
  H74      1.0000 0.06430  0.53990  0.68320  Biso   1.000  H
  H75      1.0000 0.43570  0.03990  0.81680  Biso   1.000  H
  H76      1.0000 0.93570  0.53990  0.81680  Biso   1.000  H
  H77      1.0000 0.43570  0.96010  0.31680  Biso   1.000  H
  H78      1.0000 0.93570  0.46010  0.31680  Biso   1.000  H
  H79      1.0000 0.56430  0.96010  0.18320  Biso   1.000  H
  H80      1.0000 0.06430  0.46010  0.18320  Biso   1.000  H
  C97      1.0000 0.55630  0.14050  0.56990  Biso   1.000  C
  C98      1.0000 0.05630  0.64050  0.56990  Biso   1.000  C
  C99      1.0000 0.44370  0.14050  0.93010  Biso   1.000  C
  C100     1.0000 0.94370  0.64050  0.93010  Biso   1.000  C
  C101     1.0000 0.44370  0.85950  0.43010  Biso   1.000  C
  C102     1.0000 0.94370  0.35950  0.43010  Biso   1.000  C
  C103     1.0000 0.55630  0.85950  0.06990  Biso   1.000  C
  C104     1.0000 0.05630  0.35950  0.06990  Biso   1.000  C
  H81      1.0000 0.58710  0.10880  0.57580  Biso   1.000  H
  H82      1.0000 0.08710  0.60880  0.57580  Biso   1.000  H
  H83      1.0000 0.41290  0.10880  0.92420  Biso   1.000  H
  H84      1.0000 0.91290  0.60880  0.92420  Biso   1.000  H
  H85      1.0000 0.41290  0.89120  0.42420  Biso   1.000  H
  H86      1.0000 0.91290  0.39120  0.42420  Biso   1.000  H
  H87      1.0000 0.58710  0.89120  0.07580  Biso   1.000  H
  H88      1.0000 0.08710  0.39120  0.07580  Biso   1.000  H
  C105     1.0000 0.52290  0.23010  0.49580  Biso   1.000  C
  C106     1.0000 0.02290  0.73010  0.49580  Biso   1.000  C
  C107     1.0000 0.47710  0.23010  0.00420  Biso   1.000  C
  C108     1.0000 0.97710  0.73010  0.00420  Biso   1.000  C
  C109     1.0000 0.47710  0.76990  0.50420  Biso   1.000  C
  C110     1.0000 0.97710  0.26990  0.50420  Biso   1.000  C
  C111     1.0000 0.52290  0.76990  0.99580  Biso   1.000  C
  C112     1.0000 0.02290  0.26990  0.99580  Biso   1.000  C
  H89      1.0000 0.53090  0.25670  0.45100  Biso   1.000  H
  H90      1.0000 0.03090  0.75670  0.45100  Biso   1.000  H
  H91      1.0000 0.46910  0.25670  0.04900  Biso   1.000  H
  H92      1.0000 0.96910  0.75670  0.04900  Biso   1.000  H
  H93      1.0000 0.46910  0.74330  0.54900  Biso   1.000  H
  H94      1.0000 0.96910  0.24330  0.54900  Biso   1.000  H
  H95      1.0000 0.53090  0.74330  0.95100  Biso   1.000  H
  H96      1.0000 0.03090  0.24330  0.95100  Biso   1.000  H
  C113     1.0000 0.47850  0.27770  0.49000  Biso   1.000  C
  C114     1.0000 0.97850  0.77770  0.49000  Biso   1.000  C
  C115     1.0000 0.52150  0.27770  0.01000  Biso   1.000  C
  C116     1.0000 0.02150  0.77770  0.01000  Biso   1.000  C
  C117     1.0000 0.52150  0.72230  0.51000  Biso   1.000  C
  C118     1.0000 0.02150  0.22230  0.51000  Biso   1.000  C
  C119     1.0000 0.47850  0.72230  0.99000  Biso   1.000  C
  C120     1.0000 0.97850  0.22230  0.99000  Biso   1.000  C
  C121     1.0000 0.44060  0.37570  0.41580  Biso   1.000  C
  C122     1.0000 0.94060  0.87570  0.41580  Biso   1.000  C
  C123     1.0000 0.55940  0.37570  0.08420  Biso   1.000  C
  C124     1.0000 0.05940  0.87570  0.08420  Biso   1.000  C
  C125     1.0000 0.55940  0.62430  0.58420  Biso   1.000  C
  C126     1.0000 0.05940  0.12430  0.58420  Biso   1.000  C
  C127     1.0000 0.44060  0.62430  0.91580  Biso   1.000  C
  C128     1.0000 0.94060  0.12430  0.91580  Biso   1.000  C
  C129     1.0000 0.44540  0.42860  0.34400  Biso   1.000  C
  C130     1.0000 0.94540  0.92860  0.34400  Biso   1.000  C
  C131     1.0000 0.55460  0.42860  0.15600  Biso   1.000  C
  C132     1.0000 0.05460  0.92860  0.15600  Biso   1.000  C
  C133     1.0000 0.55460  0.57140  0.65600  Biso   1.000  C
  C134     1.0000 0.05460  0.07140  0.65600  Biso   1.000  C
  C135     1.0000 0.44540  0.57140  0.84400  Biso   1.000  C
  C136     1.0000 0.94540  0.07140  0.84400  Biso   1.000  C
  H97      1.0000 0.47380  0.40430  0.33880  Biso   1.000  H
  H98      1.0000 0.97380  0.90430  0.33880  Biso   1.000  H
  H99      1.0000 0.52620  0.40430  0.16120  Biso   1.000  H
  H100     1.0000 0.02620  0.90430  0.16120  Biso   1.000  H
  H101     1.0000 0.52620  0.59570  0.66120  Biso   1.000  H
  H102     1.0000 0.02620  0.09570  0.66120  Biso   1.000  H
  H103     1.0000 0.47380  0.59570  0.83880  Biso   1.000  H
  H104     1.0000 0.97380  0.09570  0.83880  Biso   1.000  H
  C137     1.0000 0.40650  0.52000  0.27900  Biso   1.000  C
  C138     1.0000 0.90650  0.02000  0.27900  Biso   1.000  C
  C139     1.0000 0.59350  0.52000  0.22100  Biso   1.000  C
  C140     1.0000 0.09350  0.02000  0.22100  Biso   1.000  C
  C141     1.0000 0.59350  0.48000  0.72100  Biso   1.000  C
  C142     1.0000 0.09350  0.98000  0.72100  Biso   1.000  C
  C143     1.0000 0.40650  0.48000  0.77900  Biso   1.000  C
  C144     1.0000 0.90650  0.98000  0.77900  Biso   1.000  C
  H105     1.0000 0.40890  0.55690  0.22950  Biso   1.000  H
  H106     1.0000 0.90890  0.05690  0.22950  Biso   1.000  H
  H107     1.0000 0.59110  0.55690  0.27050  Biso   1.000  H
  H108     1.0000 0.09110  0.05690  0.27050  Biso   1.000  H
  H109     1.0000 0.59110  0.44310  0.77050  Biso   1.000  H
  H110     1.0000 0.09110  0.94310  0.77050  Biso   1.000  H
  H111     1.0000 0.40890  0.44310  0.72950  Biso   1.000  H
  H112     1.0000 0.90890  0.94310  0.72950  Biso   1.000  H
  C145     1.0000 0.36510  0.55570  0.28720  Biso   1.000  C
  C146     1.0000 0.86510  0.05570  0.28720  Biso   1.000  C
  C147     1.0000 0.63490  0.55570  0.21280  Biso   1.000  C
  C148     1.0000 0.13490  0.05570  0.21280  Biso   1.000  C
  C149     1.0000 0.63490  0.44430  0.71280  Biso   1.000  C
  C150     1.0000 0.13490  0.94430  0.71280  Biso   1.000  C
  C151     1.0000 0.36510  0.44430  0.78720  Biso   1.000  C
  C152     1.0000 0.86510  0.94430  0.78720  Biso   1.000  C
  H113     1.0000 0.33900  0.61640  0.24380  Biso   1.000  H
  H114     1.0000 0.83900  0.11640  0.24380  Biso   1.000  H
  H115     1.0000 0.66100  0.61640  0.25620  Biso   1.000  H
  H116     1.0000 0.16100  0.11640  0.25620  Biso   1.000  H
  H117     1.0000 0.66100  0.38360  0.75620  Biso   1.000  H
  H118     1.0000 0.16100  0.88360  0.75620  Biso   1.000  H
  H119     1.0000 0.33900  0.38360  0.74380  Biso   1.000  H
  H120     1.0000 0.83900  0.88360  0.74380  Biso   1.000  H
  C153     1.0000 0.36300  0.49970  0.36080  Biso   1.000  C
  C154     1.0000 0.86300  0.99970  0.36080  Biso   1.000  C
  C155     1.0000 0.63700  0.49970  0.13920  Biso   1.000  C
  C156     1.0000 0.13700  0.99970  0.13920  Biso   1.000  C
  C157     1.0000 0.63700  0.50030  0.63920  Biso   1.000  C
  C158     1.0000 0.13700  0.00030  0.63920  Biso   1.000  C
  C159     1.0000 0.36300  0.50030  0.86080  Biso   1.000  C
  C160     1.0000 0.86300  0.00030  0.86080  Biso   1.000  C
  H121     1.0000 0.33470  0.52350  0.36680  Biso   1.000  H
  H122     1.0000 0.83470  0.02350  0.36680  Biso   1.000  H
  H123     1.0000 0.66530  0.52350  0.13320  Biso   1.000  H
  H124     1.0000 0.16530  0.02350  0.13320  Biso   1.000  H
  H125     1.0000 0.66530  0.47650  0.63320  Biso   1.000  H
  H126     1.0000 0.16530  0.97650  0.63320  Biso   1.000  H
  H127     1.0000 0.33470  0.47650  0.86680  Biso   1.000  H
  H128     1.0000 0.83470  0.97650  0.86680  Biso   1.000  H
  O33      1.0000 0.50000  0.83290  0.75000  Biso   1.000  O
  O34      1.0000 0.00000  0.33290  0.75000  Biso   1.000  O
  O35      1.0000 0.50000  0.16710  0.25000  Biso   1.000  O
  O36      1.0000 0.00000  0.66710  0.25000  Biso   1.000  O
  H129     1.0000 0.47900  0.76000  0.71300  Biso   1.000  H
  H130     1.0000 0.97900  0.26000  0.71300  Biso   1.000  H
  H131     1.0000 0.52100  0.76000  0.78700  Biso   1.000  H
  H132     1.0000 0.02100  0.26000  0.78700  Biso   1.000  H
  H133     1.0000 0.52100  0.24000  0.28700  Biso   1.000  H
  H134     1.0000 0.02100  0.74000  0.28700  Biso   1.000  H
  H135     1.0000 0.47900  0.24000  0.21300  Biso   1.000  H
  H136     1.0000 0.97900  0.74000  0.21300  Biso   1.000  H
  H137     1.0000 0.50200  0.82000  0.80000  Biso   1.000  H
  H138     1.0000 0.00200  0.32000  0.80000  Biso   1.000  H
  H139     1.0000 0.49800  0.82000  0.70000  Biso   1.000  H
  H140     1.0000 0.99800  0.32000  0.70000  Biso   1.000  H
  H141     1.0000 0.49800  0.18000  0.20000  Biso   1.000  H
  H142     1.0000 0.99800  0.68000  0.20000  Biso   1.000  H
  H143     1.0000 0.50200  0.18000  0.30000  Biso   1.000  H
  H144     1.0000 0.00200  0.68000  0.30000  Biso   1.000  H
