data_image0
_cell_length_a       9.578
_cell_length_b       13.532
_cell_length_c       14.62
_cell_angle_alpha    90
_cell_angle_beta     90
_cell_angle_gamma    90

_symmetry_space_group_name_H-M    "P 1"
_symmetry_int_tables_number       1

loop_
  _symmetry_equiv_pos_as_xyz
  'x, y, z'

loop_
  _atom_site_label
  _atom_site_occupancy
  _atom_site_fract_x
  _atom_site_fract_y
  _atom_site_fract_z
  _atom_site_thermal_displace_type
  _atom_site_B_iso_or_equiv
  _atom_site_type_symbol
  Cu1      1.0000 0.40930  0.04060  0.36200  Biso   1.000  Cu
  Cu2      1.0000 0.09070  0.95940  0.86200  Biso   1.000  Cu
  Cu3      1.0000 0.90930  0.45940  0.63800  Biso   1.000  Cu
  Cu4      1.0000 0.59070  0.54060  0.13800  Biso   1.000  Cu
  O1       1.0000 0.40200  0.16030  0.28590  Biso   1.000  O
  O2       1.0000 0.09800  0.83970  0.78590  Biso   1.000  O
  O3       1.0000 0.90200  0.33970  0.71410  Biso   1.000  O
  O4       1.0000 0.59800  0.66030  0.21410  Biso   1.000  O
  O5       1.0000 0.25680  0.27020  0.22590  Biso   1.000  O
  O6       1.0000 0.24320  0.72980  0.72590  Biso   1.000  O
  O7       1.0000 0.75680  0.22980  0.77410  Biso   1.000  O
  O8       1.0000 0.74320  0.77020  0.27410  Biso   1.000  O
  O9       1.0000 0.00610  0.97800  0.38480  Biso   1.000  O
  O10      1.0000 0.49390  0.02200  0.88480  Biso   1.000  O
  O11      1.0000 0.50610  0.52200  0.61520  Biso   1.000  O
  O12      1.0000 0.99390  0.47800  0.11520  Biso   1.000  O
  O13      1.0000 0.12180  0.22460  0.76570  Biso   1.000  O
  O14      1.0000 0.37820  0.77540  0.26570  Biso   1.000  O
  O15      1.0000 0.62180  0.27540  0.23430  Biso   1.000  O
  O16      1.0000 0.87820  0.72460  0.73430  Biso   1.000  O
  O17      1.0000 0.15260  0.47550  0.27440  Biso   1.000  O
  O18      1.0000 0.34740  0.52450  0.77440  Biso   1.000  O
  O19      1.0000 0.65260  0.02450  0.72560  Biso   1.000  O
  O20      1.0000 0.84740  0.97550  0.22560  Biso   1.000  O
  O21      1.0000 0.40700  0.39480  0.92590  Biso   1.000  O
  O22      1.0000 0.09300  0.60520  0.42590  Biso   1.000  O
  O23      1.0000 0.90700  0.10520  0.07410  Biso   1.000  O
  O24      1.0000 0.59300  0.89480  0.57410  Biso   1.000  O
  O25      1.0000 0.20220  0.35510  0.05490  Biso   1.000  O
  O26      1.0000 0.29780  0.64490  0.55490  Biso   1.000  O
  O27      1.0000 0.70220  0.14490  0.94510  Biso   1.000  O
  O28      1.0000 0.79780  0.85510  0.44510  Biso   1.000  O
  N1       1.0000 0.21160  0.05670  0.36720  Biso   1.000  N
  N2       1.0000 0.28840  0.94330  0.86720  Biso   1.000  N
  N3       1.0000 0.71160  0.44330  0.63280  Biso   1.000  N
  N4       1.0000 0.78840  0.55670  0.13280  Biso   1.000  N
  N5       1.0000 0.37000  0.91470  0.42770  Biso   1.000  N
  N6       1.0000 0.13000  0.08530  0.92770  Biso   1.000  N
  N7       1.0000 0.87000  0.58530  0.57230  Biso   1.000  N
  N8       1.0000 0.63000  0.41470  0.07230  Biso   1.000  N
  N9       1.0000 0.11810  0.46660  0.63250  Biso   1.000  N
  N10      1.0000 0.38190  0.53340  0.13250  Biso   1.000  N
  N11      1.0000 0.61810  0.03340  0.36750  Biso   1.000  N
  N12      1.0000 0.88190  0.96660  0.86750  Biso   1.000  N
  C1       1.0000 0.27920  0.19640  0.27090  Biso   1.000  C
  C2       1.0000 0.22080  0.80360  0.77090  Biso   1.000  C
  C3       1.0000 0.77920  0.30360  0.72910  Biso   1.000  C
  C4       1.0000 0.72080  0.69640  0.22910  Biso   1.000  C
  C5       1.0000 0.15760  0.14190  0.31970  Biso   1.000  C
  C6       1.0000 0.34240  0.85810  0.81970  Biso   1.000  C
  C7       1.0000 0.65760  0.35810  0.68030  Biso   1.000  C
  C8       1.0000 0.84240  0.64190  0.18030  Biso   1.000  C
  C9       1.0000 0.08520  0.21400  0.38220  Biso   1.000  C
  C10      1.0000 0.41480  0.78600  0.88220  Biso   1.000  C
  C11      1.0000 0.58520  0.28600  0.61780  Biso   1.000  C
  C12      1.0000 0.91480  0.71400  0.11780  Biso   1.000  C
  C13      1.0000 0.17090  0.25850  0.45800  Biso   1.000  C
  C14      1.0000 0.32910  0.74150  0.95800  Biso   1.000  C
  C15      1.0000 0.67090  0.24150  0.54200  Biso   1.000  C
  C16      1.0000 0.82910  0.75850  0.04200  Biso   1.000  C
  C17      1.0000 0.10220  0.33740  0.51060  Biso   1.000  C
  C18      1.0000 0.39780  0.66260  0.01060  Biso   1.000  C
  C19      1.0000 0.60220  0.16260  0.48940  Biso   1.000  C
  C20      1.0000 0.89780  0.83740  0.98940  Biso   1.000  C
  C21      1.0000 0.18480  0.38300  0.58660  Biso   1.000  C
  C22      1.0000 0.31520  0.61700  0.08660  Biso   1.000  C
  C23      1.0000 0.68480  0.11700  0.41340  Biso   1.000  C
  C24      1.0000 0.81520  0.88300  0.91340  Biso   1.000  C
  C25      1.0000 0.13860  0.98280  0.39360  Biso   1.000  C
  C26      1.0000 0.36140  0.01720  0.89360  Biso   1.000  C
  C27      1.0000 0.63860  0.51720  0.60640  Biso   1.000  C
  C28      1.0000 0.86140  0.48280  0.10640  Biso   1.000  C
  C29      1.0000 0.21310  0.89760  0.43750  Biso   1.000  C
  C30      1.0000 0.28690  0.10240  0.93750  Biso   1.000  C
  C31      1.0000 0.71310  0.60240  0.56250  Biso   1.000  C
  C32      1.0000 0.78690  0.39760  0.06250  Biso   1.000  C
  C33      1.0000 0.17210  0.88400  0.53810  Biso   1.000  C
  C34      1.0000 0.32790  0.11600  0.03810  Biso   1.000  C
  C35      1.0000 0.67210  0.61600  0.46190  Biso   1.000  C
  C36      1.0000 0.82790  0.38400  0.96190  Biso   1.000  C
  C37      1.0000 0.16190  0.97680  0.59470  Biso   1.000  C
  C38      1.0000 0.33810  0.02320  0.09470  Biso   1.000  C
  C39      1.0000 0.66190  0.52320  0.40530  Biso   1.000  C
  C40      1.0000 0.83810  0.47680  0.90530  Biso   1.000  C
  C41      1.0000 0.03240  0.01970  0.61340  Biso   1.000  C
  C42      1.0000 0.46760  0.98030  0.11340  Biso   1.000  C
  C43      1.0000 0.53240  0.48030  0.38660  Biso   1.000  C
  C44      1.0000 0.96760  0.51970  0.88660  Biso   1.000  C
  C45      1.0000 0.01730  0.09920  0.66840  Biso   1.000  C
  C46      1.0000 0.48270  0.90080  0.16840  Biso   1.000  C
  C47      1.0000 0.51730  0.40080  0.33160  Biso   1.000  C
  C48      1.0000 0.98270  0.59920  0.83160  Biso   1.000  C
  C49      1.0000 0.12810  0.14690  0.70890  Biso   1.000  C
  C50      1.0000 0.37190  0.85310  0.20890  Biso   1.000  C
  C51      1.0000 0.62810  0.35310  0.29110  Biso   1.000  C
  C52      1.0000 0.87190  0.64690  0.79110  Biso   1.000  C
  C53      1.0000 0.26000  0.10520  0.68650  Biso   1.000  C
  C54      1.0000 0.24000  0.89480  0.18650  Biso   1.000  C
  C55      1.0000 0.76000  0.39480  0.31350  Biso   1.000  C
  C56      1.0000 0.74000  0.60520  0.81350  Biso   1.000  C
  C57      1.0000 0.27370  0.02510  0.63380  Biso   1.000  C
  C58      1.0000 0.22630  0.97490  0.13380  Biso   1.000  C
  C59      1.0000 0.77370  0.47490  0.36620  Biso   1.000  C
  C60      1.0000 0.72630  0.52510  0.86620  Biso   1.000  C
  H1       1.0000 0.08700  0.12400  0.27600  Biso   1.000  H
  H2       1.0000 0.41300  0.87600  0.77600  Biso   1.000  H
  H3       1.0000 0.58700  0.37600  0.72400  Biso   1.000  H
  H4       1.0000 0.91300  0.62400  0.22400  Biso   1.000  H
  H5       1.0000 0.03200  0.17600  0.42000  Biso   1.000  H
  H6       1.0000 0.46800  0.82400  0.92000  Biso   1.000  H
  H7       1.0000 0.53200  0.32400  0.58000  Biso   1.000  H
  H8       1.0000 0.96800  0.67600  0.08000  Biso   1.000  H
  H9       1.0000 0.05400  0.27000  0.34900  Biso   1.000  H
  H10      1.0000 0.44600  0.73000  0.84900  Biso   1.000  H
  H11      1.0000 0.55400  0.23000  0.65100  Biso   1.000  H
  H12      1.0000 0.94600  0.77000  0.15100  Biso   1.000  H
  H13      1.0000 0.25300  0.28400  0.43300  Biso   1.000  H
  H14      1.0000 0.24700  0.71600  0.93300  Biso   1.000  H
  H15      1.0000 0.75300  0.21600  0.56700  Biso   1.000  H
  H16      1.0000 0.74700  0.78400  0.06700  Biso   1.000  H
  H17      1.0000 0.18900  0.19700  0.50000  Biso   1.000  H
  H18      1.0000 0.31100  0.80300  0.00000  Biso   1.000  H
  H19      1.0000 0.68900  0.30300  0.50000  Biso   1.000  H
  H20      1.0000 0.81100  0.69700  0.00000  Biso   1.000  H
  H21      1.0000 0.00900  0.30200  0.54600  Biso   1.000  H
  H22      1.0000 0.49100  0.69800  0.04600  Biso   1.000  H
  H23      1.0000 0.50900  0.19800  0.45400  Biso   1.000  H
  H24      1.0000 0.99100  0.80200  0.95400  Biso   1.000  H
  H25      1.0000 0.08700  0.39100  0.47200  Biso   1.000  H
  H26      1.0000 0.41300  0.60900  0.97200  Biso   1.000  H
  H27      1.0000 0.58700  0.10900  0.52800  Biso   1.000  H
  H28      1.0000 0.91300  0.89100  0.02800  Biso   1.000  H
  H29      1.0000 0.19900  0.33100  0.63600  Biso   1.000  H
  H30      1.0000 0.30100  0.66900  0.13600  Biso   1.000  H
  H31      1.0000 0.69900  0.16900  0.36400  Biso   1.000  H
  H32      1.0000 0.80100  0.83100  0.86400  Biso   1.000  H
  H33      1.0000 0.27200  0.40600  0.55900  Biso   1.000  H
  H34      1.0000 0.22800  0.59400  0.05900  Biso   1.000  H
  H35      1.0000 0.77200  0.09400  0.44100  Biso   1.000  H
  H36      1.0000 0.72800  0.90600  0.94100  Biso   1.000  H
  H37      1.0000 0.14900  0.53100  0.59700  Biso   1.000  H
  H38      1.0000 0.35100  0.46900  0.09700  Biso   1.000  H
  H39      1.0000 0.64900  0.96900  0.40300  Biso   1.000  H
  H40      1.0000 0.85100  0.03100  0.90300  Biso   1.000  H
  H41      1.0000 0.15200  0.46800  0.69700  Biso   1.000  H
  H42      1.0000 0.34800  0.53200  0.19700  Biso   1.000  H
  H43      1.0000 0.65200  0.03200  0.30300  Biso   1.000  H
  H44      1.0000 0.84800  0.96800  0.80300  Biso   1.000  H
  H45      1.0000 0.19100  0.17100  0.40800  Biso   1.000  H
  H46      1.0000 0.30900  0.82900  0.90800  Biso   1.000  H
  H47      1.0000 0.69100  0.32900  0.59200  Biso   1.000  H
  H48      1.0000 0.80900  0.67100  0.09200  Biso   1.000  H
  H49      1.0000 0.39100  0.14700  0.39200  Biso   1.000  H
  H50      1.0000 0.10900  0.85300  0.89200  Biso   1.000  H
  H51      1.0000 0.89100  0.35300  0.60800  Biso   1.000  H
  H52      1.0000 0.60900  0.64700  0.10800  Biso   1.000  H
  H53      1.0000 0.41000  0.08200  0.48000  Biso   1.000  H
  H54      1.0000 0.09000  0.91800  0.98000  Biso   1.000  H
  H55      1.0000 0.91000  0.41800  0.52000  Biso   1.000  H
  H56      1.0000 0.59000  0.58200  0.02000  Biso   1.000  H
  H57      1.0000 0.23200  0.16900  0.57000  Biso   1.000  H
  H58      1.0000 0.26800  0.83100  0.07000  Biso   1.000  H
  H59      1.0000 0.73200  0.33100  0.43000  Biso   1.000  H
  H60      1.0000 0.76800  0.66900  0.93000  Biso   1.000  H
  H61      1.0000 0.09700  0.14600  0.53800  Biso   1.000  H
  H62      1.0000 0.40300  0.85400  0.03800  Biso   1.000  H
  H63      1.0000 0.59700  0.35400  0.46200  Biso   1.000  H
  H64      1.0000 0.90300  0.64600  0.96200  Biso   1.000  H
  H65      1.0000 0.95500  0.01300  0.59400  Biso   1.000  H
  H66      1.0000 0.54500  0.98700  0.09400  Biso   1.000  H
  H67      1.0000 0.45500  0.48700  0.40600  Biso   1.000  H
  H68      1.0000 0.04500  0.51300  0.90600  Biso   1.000  H
  H69      1.0000 0.94300  0.13300  0.68400  Biso   1.000  H
  H70      1.0000 0.55700  0.86700  0.18400  Biso   1.000  H
  H71      1.0000 0.44300  0.36700  0.31600  Biso   1.000  H
  H72      1.0000 0.05700  0.63300  0.81600  Biso   1.000  H
  H73      1.0000 0.33200  0.13200  0.71100  Biso   1.000  H
  H74      1.0000 0.16800  0.86800  0.21100  Biso   1.000  H
  H75      1.0000 0.83200  0.36800  0.28900  Biso   1.000  H
  H76      1.0000 0.66800  0.63200  0.78900  Biso   1.000  H
  H77      1.0000 0.35000  0.00700  0.61800  Biso   1.000  H
  H78      1.0000 0.15000  0.99300  0.11800  Biso   1.000  H
  H79      1.0000 0.85000  0.49300  0.38200  Biso   1.000  H
  H80      1.0000 0.65000  0.50700  0.88200  Biso   1.000  H
  H81      1.0000 0.05800  0.25600  0.76200  Biso   1.000  H
  H82      1.0000 0.44200  0.74400  0.26200  Biso   1.000  H
  H83      1.0000 0.55800  0.24400  0.23800  Biso   1.000  H
  H84      1.0000 0.94200  0.75600  0.73800  Biso   1.000  H
  H85      1.0000 0.18000  0.40100  0.27900  Biso   1.000  H
  H86      1.0000 0.32000  0.59900  0.77900  Biso   1.000  H
  H87      1.0000 0.68000  0.09900  0.72100  Biso   1.000  H
  H88      1.0000 0.82000  0.90100  0.22100  Biso   1.000  H
  H89      1.0000 0.11800  0.47700  0.22400  Biso   1.000  H
  H90      1.0000 0.38200  0.52300  0.72400  Biso   1.000  H
  H91      1.0000 0.61800  0.02300  0.77600  Biso   1.000  H
  H92      1.0000 0.88200  0.97700  0.27600  Biso   1.000  H
  H93      1.0000 0.33300  0.38400  0.02900  Biso   1.000  H
  H94      1.0000 0.16700  0.61600  0.52900  Biso   1.000  H
  H95      1.0000 0.83300  0.11600  0.97100  Biso   1.000  H
  H96      1.0000 0.66700  0.88400  0.47100  Biso   1.000  H
  H97      1.0000 0.38600  0.41900  0.13000  Biso   1.000  H
  H98      1.0000 0.11400  0.58100  0.63000  Biso   1.000  H
  H99      1.0000 0.88600  0.08100  0.87000  Biso   1.000  H
  H100     1.0000 0.61400  0.91900  0.37000  Biso   1.000  H
  H101     1.0000 0.22300  0.32100  0.11800  Biso   1.000  H
  H102     1.0000 0.27700  0.67900  0.61800  Biso   1.000  H
  H103     1.0000 0.72300  0.17900  0.88200  Biso   1.000  H
  H104     1.0000 0.77700  0.82100  0.38200  Biso   1.000  H
  H105     1.0000 0.13300  0.39100  0.07700  Biso   1.000  H
  H106     1.0000 0.36700  0.60900  0.57700  Biso   1.000  H
  H107     1.0000 0.63300  0.10900  0.92300  Biso   1.000  H
  H108     1.0000 0.86700  0.89100  0.42300  Biso   1.000  H
