data_image0
_cell_length_a       9.8818
_cell_length_b       13.5064
_cell_length_c       12.5856
_cell_angle_alpha    90
_cell_angle_beta     91.8462
_cell_angle_gamma    90

_symmetry_space_group_name_H-M    "P 1"
_symmetry_int_tables_number       1

loop_
  _symmetry_equiv_pos_as_xyz
  'x, y, z'

loop_
  _atom_site_label
  _atom_site_occupancy
  _atom_site_fract_x
  _atom_site_fract_y
  _atom_site_fract_z
  _atom_site_thermal_displace_type
  _atom_site_B_iso_or_equiv
  _atom_site_type_symbol
  Cu1      1.0000 0.61866  0.41066  0.62648  Biso   1.000  Cu
  Cu2      1.0000 0.38134  0.91066  0.37352  Biso   1.000  Cu
  Cl1      1.0000 0.54268  0.25384  0.63446  Biso   1.000  Cl
  Cl2      1.0000 0.45732  0.75384  0.36554  Biso   1.000  Cl
  O1       1.0000 0.40355  0.49987  0.65292  Biso   1.000  O
  O2       1.0000 0.59645  0.99987  0.34708  Biso   1.000  O
  O3       1.0000 0.17140  0.43992  0.53132  Biso   1.000  O
  O4       1.0000 0.82860  0.93992  0.46868  Biso   1.000  O
  O5       1.0000 0.03971  0.26867  0.61808  Biso   1.000  O
  O6       1.0000 0.96029  0.76867  0.38192  Biso   1.000  O
  O7       1.0000 0.02550  0.26777  0.83764  Biso   1.000  O
  O8       1.0000 0.97450  0.76777  0.16236  Biso   1.000  O
  O9       1.0000 0.32559  0.42131  0.79856  Biso   1.000  O
  O10      1.0000 0.67441  0.92131  0.20144  Biso   1.000  O
  O11      1.0000 0.35780  0.26443  0.94112  Biso   1.000  O
  O12      1.0000 0.64220  0.76443  0.05888  Biso   1.000  O
  O13      1.0000 0.22510  0.30767  0.43215  Biso   1.000  O
  O14      1.0000 0.77490  0.80767  0.56785  Biso   1.000  O
  O15      1.0000 0.85920  0.36456  0.58610  Biso   1.000  O
  O16      1.0000 0.14080  0.86456  0.41390  Biso   1.000  O
  O17      1.0000 0.10170  0.11130  0.83690  Biso   1.000  O
  O18      1.0000 0.89830  0.61130  0.16310  Biso   1.000  O
  O19      1.0000 0.37880  0.23470  0.11503  Biso   1.000  O
  O20      1.0000 0.62120  0.73470  0.88497  Biso   1.000  O
  N1       1.0000 0.68650  0.55405  0.61949  Biso   1.000  N
  N2       1.0000 0.31350  0.05405  0.38051  Biso   1.000  N
  N3       1.0000 0.60020  0.43032  0.46979  Biso   1.000  N
  N4       1.0000 0.39980  0.93032  0.53021  Biso   1.000  N
  N5       1.0000 0.67570  0.42422  0.77953  Biso   1.000  N
  N6       1.0000 0.32430  0.92422  0.22047  Biso   1.000  N
  C1       1.0000 0.28580  0.46680  0.70010  Biso   1.000  C
  C2       1.0000 0.71420  0.96680  0.29990  Biso   1.000  C
  C3       1.0000 0.22010  0.39000  0.62660  Biso   1.000  C
  C4       1.0000 0.77990  0.89000  0.37340  Biso   1.000  C
  C5       1.0000 0.10070  0.34580  0.68200  Biso   1.000  C
  C6       1.0000 0.89930  0.84580  0.31800  Biso   1.000  C
  C7       1.0000 0.14560  0.30200  0.78860  Biso   1.000  C
  C8       1.0000 0.85440  0.80200  0.21140  Biso   1.000  C
  C9       1.0000 0.21310  0.38320  0.85520  Biso   1.000  C
  C10      1.0000 0.78690  0.88320  0.14480  Biso   1.000  C
  C11      1.0000 0.26780  0.34650  0.96170  Biso   1.000  C
  C12      1.0000 0.73220  0.84650  0.03830  Biso   1.000  C
  C13      1.0000 0.45850  0.59000  0.69750  Biso   1.000  C
  C14      1.0000 0.54150  0.09000  0.30250  Biso   1.000  C
  C15      1.0000 0.56720  0.62300  0.62450  Biso   1.000  C
  C16      1.0000 0.43280  0.12300  0.37550  Biso   1.000  C
  C17      1.0000 0.74990  0.56610  0.51580  Biso   1.000  C
  C18      1.0000 0.25010  0.06610  0.48420  Biso   1.000  C
  C19      1.0000 0.66970  0.50780  0.43340  Biso   1.000  C
  C20      1.0000 0.33030  0.00780  0.56660  Biso   1.000  C
  C21      1.0000 0.67210  0.52880  0.32610  Biso   1.000  C
  C22      1.0000 0.32790  0.02880  0.67390  Biso   1.000  C
  C23      1.0000 0.60330  0.46860  0.25540  Biso   1.000  C
  C24      1.0000 0.39670  0.96860  0.74460  Biso   1.000  C
  C25      1.0000 0.52900  0.38960  0.29280  Biso   1.000  C
  C26      1.0000 0.47100  0.88960  0.70720  Biso   1.000  C
  C27      1.0000 0.53010  0.37270  0.40180  Biso   1.000  C
  C28      1.0000 0.46990  0.87270  0.59820  Biso   1.000  C
  C29      1.0000 0.78390  0.57080  0.70970  Biso   1.000  C
  C30      1.0000 0.21610  0.07080  0.29030  Biso   1.000  C
  C31      1.0000 0.75610  0.50220  0.80070  Biso   1.000  C
  C32      1.0000 0.24390  0.00220  0.19930  Biso   1.000  C
  C33      1.0000 0.81570  0.51710  0.90190  Biso   1.000  C
  C34      1.0000 0.18430  0.01710  0.09810  Biso   1.000  C
  C35      1.0000 0.78730  0.45120  0.98120  Biso   1.000  C
  C36      1.0000 0.21270  0.95120  0.01880  Biso   1.000  C
  C37      1.0000 0.70170  0.37390  0.96030  Biso   1.000  C
  C38      1.0000 0.29830  0.87390  0.03970  Biso   1.000  C
  C39      1.0000 0.64600  0.36270  0.85820  Biso   1.000  C
  C40      1.0000 0.35400  0.86270  0.14180  Biso   1.000  C
  C41      1.0000 0.17930  0.38900  0.43770  Biso   1.000  C
  C42      1.0000 0.82070  0.88900  0.56230  Biso   1.000  C
  C43      1.0000 0.12520  0.44830  0.34620  Biso   1.000  C
  C44      1.0000 0.87480  0.94830  0.65380  Biso   1.000  C
  C45      1.0000 0.91740  0.28770  0.57400  Biso   1.000  C
  C46      1.0000 0.08260  0.78770  0.42600  Biso   1.000  C
  C47      1.0000 0.86500  0.20280  0.50920  Biso   1.000  C
  C48      1.0000 0.13500  0.70280  0.49080  Biso   1.000  C
  C49      1.0000 0.01170  0.16900  0.85120  Biso   1.000  C
  C50      1.0000 0.98830  0.66900  0.14880  Biso   1.000  C
  C51      1.0000 0.87260  0.14140  0.87980  Biso   1.000  C
  C52      1.0000 0.12740  0.64140  0.12020  Biso   1.000  C
  C53      1.0000 0.40650  0.21390  0.02550  Biso   1.000  C
  C54      1.0000 0.59350  0.71390  0.97450  Biso   1.000  C
  C55      1.0000 0.49800  0.13310  0.99400  Biso   1.000  C
  C56      1.0000 0.50200  0.63310  0.00600  Biso   1.000  C
  H1       1.0000 0.22600  0.52400  0.70600  Biso   1.000  H
  H2       1.0000 0.77400  0.02400  0.29400  Biso   1.000  H
  H3       1.0000 0.29000  0.33800  0.60500  Biso   1.000  H
  H4       1.0000 0.71000  0.83800  0.39500  Biso   1.000  H
  H5       1.0000 0.03200  0.40000  0.69200  Biso   1.000  H
  H6       1.0000 0.96800  0.90000  0.30800  Biso   1.000  H
  H7       1.0000 0.20800  0.24300  0.78900  Biso   1.000  H
  H8       1.0000 0.79200  0.74300  0.21100  Biso   1.000  H
  H9       1.0000 0.13700  0.43200  0.86200  Biso   1.000  H
  H10      1.0000 0.86300  0.93200  0.13800  Biso   1.000  H
  H11      1.0000 0.20200  0.32300  0.01200  Biso   1.000  H
  H12      1.0000 0.79800  0.82300  0.98800  Biso   1.000  H
  H13      1.0000 0.32700  0.40100  0.00500  Biso   1.000  H
  H14      1.0000 0.67300  0.90100  0.99500  Biso   1.000  H
  H15      1.0000 0.39000  0.63300  0.69900  Biso   1.000  H
  H16      1.0000 0.61000  0.13300  0.30100  Biso   1.000  H
  H17      1.0000 0.48800  0.58300  0.76700  Biso   1.000  H
  H18      1.0000 0.51200  0.08300  0.23300  Biso   1.000  H
  H19      1.0000 0.53200  0.63000  0.55800  Biso   1.000  H
  H20      1.0000 0.46800  0.13000  0.44200  Biso   1.000  H
  H21      1.0000 0.60900  0.68100  0.64500  Biso   1.000  H
  H22      1.0000 0.39100  0.18100  0.35500  Biso   1.000  H
  H23      1.0000 0.83800  0.53900  0.52100  Biso   1.000  H
  H24      1.0000 0.16200  0.03900  0.47900  Biso   1.000  H
  H25      1.0000 0.74700  0.64700  0.49500  Biso   1.000  H
  H26      1.0000 0.25300  0.14700  0.50500  Biso   1.000  H
  H27      1.0000 0.72000  0.57700  0.30400  Biso   1.000  H
  H28      1.0000 0.28000  0.07700  0.69600  Biso   1.000  H
  H29      1.0000 0.59300  0.49300  0.18700  Biso   1.000  H
  H30      1.0000 0.40700  0.99300  0.81300  Biso   1.000  H
  H31      1.0000 0.47300  0.35600  0.24700  Biso   1.000  H
  H32      1.0000 0.52700  0.85600  0.75300  Biso   1.000  H
  H33      1.0000 0.49500  0.31300  0.42700  Biso   1.000  H
  H34      1.0000 0.50500  0.81300  0.57300  Biso   1.000  H
  H35      1.0000 0.78700  0.64000  0.73000  Biso   1.000  H
  H36      1.0000 0.21300  0.14000  0.27000  Biso   1.000  H
  H37      1.0000 0.87800  0.55400  0.67900  Biso   1.000  H
  H38      1.0000 0.12200  0.05400  0.32100  Biso   1.000  H
  H39      1.0000 0.87100  0.57000  0.90700  Biso   1.000  H
  H40      1.0000 0.12900  0.07000  0.09300  Biso   1.000  H
  H41      1.0000 0.84700  0.45500  0.05800  Biso   1.000  H
  H42      1.0000 0.15300  0.95500  0.94200  Biso   1.000  H
  H43      1.0000 0.68600  0.33400  0.00800  Biso   1.000  H
  H44      1.0000 0.31400  0.83400  0.99200  Biso   1.000  H
  H45      1.0000 0.59300  0.32600  0.83200  Biso   1.000  H
  H46      1.0000 0.40700  0.82600  0.16800  Biso   1.000  H
  H47      1.0000 0.02810  0.43540  0.33590  Biso   1.000  H
  H48      1.0000 0.97190  0.93540  0.66410  Biso   1.000  H
  H49      1.0000 0.17220  0.42960  0.28180  Biso   1.000  H
  H50      1.0000 0.82780  0.92960  0.71820  Biso   1.000  H
  H51      1.0000 0.13960  0.51890  0.36070  Biso   1.000  H
  H52      1.0000 0.86040  0.01890  0.63930  Biso   1.000  H
  H53      1.0000 0.89390  0.21000  0.43580  Biso   1.000  H
  H54      1.0000 0.10610  0.71000  0.56420  Biso   1.000  H
  H55      1.0000 0.76580  0.20200  0.51000  Biso   1.000  H
  H56      1.0000 0.23420  0.70200  0.49000  Biso   1.000  H
  H57      1.0000 0.90070  0.14070  0.53900  Biso   1.000  H
  H58      1.0000 0.09930  0.64070  0.46100  Biso   1.000  H
  H59      1.0000 0.86590  0.14210  0.95730  Biso   1.000  H
  H60      1.0000 0.13410  0.64210  0.04270  Biso   1.000  H
  H61      1.0000 0.85170  0.07490  0.85280  Biso   1.000  H
  H62      1.0000 0.14830  0.57490  0.14720  Biso   1.000  H
  H63      1.0000 0.80810  0.18900  0.84820  Biso   1.000  H
  H64      1.0000 0.19190  0.68900  0.15180  Biso   1.000  H
  H65      1.0000 0.44540  0.07230  0.98200  Biso   1.000  H
  H66      1.0000 0.55460  0.57230  0.01800  Biso   1.000  H
  H67      1.0000 0.56650  0.12180  0.05080  Biso   1.000  H
  H68      1.0000 0.43350  0.62180  0.94920  Biso   1.000  H
  H69      1.0000 0.54260  0.15150  0.92850  Biso   1.000  H
  H70      1.0000 0.45740  0.65150  0.07150  Biso   1.000  H
  Cl3      1.0000 0.10786  0.72265  0.81847  Biso   1.000  Cl
  Cl4      1.0000 0.89214  0.22265  0.18153  Biso   1.000  Cl
  O21      1.0000 0.01390  0.75120  0.89370  Biso   1.000  O
  O22      1.0000 0.98610  0.25120  0.10630  Biso   1.000  O
  O23      1.0000 0.06210  0.65950  0.74090  Biso   1.000  O
  O24      1.0000 0.93790  0.15950  0.25910  Biso   1.000  O
  O25      1.0000 0.22420  0.68660  0.86500  Biso   1.000  O
  O26      1.0000 0.77580  0.18660  0.13500  Biso   1.000  O
  O27      1.0000 0.15350  0.80500  0.77050  Biso   1.000  O
  O28      1.0000 0.84650  0.30500  0.22950  Biso   1.000  O
