data_image0
_cell_length_a       10.6903
_cell_length_b       15.235
_cell_length_c       25.04
_cell_angle_alpha    90
_cell_angle_beta     90
_cell_angle_gamma    90

_symmetry_space_group_name_H-M    "P 1"
_symmetry_int_tables_number       1

loop_
  _symmetry_equiv_pos_as_xyz
  'x, y, z'

loop_
  _atom_site_label
  _atom_site_occupancy
  _atom_site_fract_x
  _atom_site_fract_y
  _atom_site_fract_z
  _atom_site_thermal_displace_type
  _atom_site_B_iso_or_equiv
  _atom_site_type_symbol
  Cu1      1.0000 0.49056  0.75125  0.87547  Biso   1.000  Cu
  Cu2      1.0000 0.00944  0.24875  0.37547  Biso   1.000  Cu
  Cu3      1.0000 0.50944  0.25125  0.62453  Biso   1.000  Cu
  Cu4      1.0000 0.99056  0.74875  0.12453  Biso   1.000  Cu
  O1       1.0000 0.65460  0.75010  0.81276  Biso   1.000  O
  O2       1.0000 0.84540  0.24990  0.31276  Biso   1.000  O
  O3       1.0000 0.34540  0.25010  0.68724  Biso   1.000  O
  O4       1.0000 0.15460  0.74990  0.18724  Biso   1.000  O
  N1       1.0000 0.39260  0.65920  0.83460  Biso   1.000  N
  N2       1.0000 0.10740  0.34080  0.33460  Biso   1.000  N
  N3       1.0000 0.60740  0.15920  0.66540  Biso   1.000  N
  N4       1.0000 0.89260  0.84080  0.16540  Biso   1.000  N
  C1       1.0000 0.45070  0.60290  0.80350  Biso   1.000  C
  C2       1.0000 0.04930  0.39710  0.30350  Biso   1.000  C
  C3       1.0000 0.54930  0.10290  0.69650  Biso   1.000  C
  C4       1.0000 0.95070  0.89710  0.19650  Biso   1.000  C
  H1       1.0000 0.53530  0.61070  0.79620  Biso   1.000  H
  H2       1.0000 0.96470  0.38930  0.29620  Biso   1.000  H
  H3       1.0000 0.46470  0.11070  0.70380  Biso   1.000  H
  H4       1.0000 0.03530  0.88930  0.20380  Biso   1.000  H
  C5       1.0000 0.38600  0.53010  0.78070  Biso   1.000  C
  C6       1.0000 0.11400  0.46990  0.28070  Biso   1.000  C
  C7       1.0000 0.61400  0.03010  0.71930  Biso   1.000  C
  C8       1.0000 0.88600  0.96990  0.21930  Biso   1.000  C
  H5       1.0000 0.42930  0.49080  0.75910  Biso   1.000  H
  H6       1.0000 0.07070  0.50920  0.25910  Biso   1.000  H
  H7       1.0000 0.57070  0.99080  0.74090  Biso   1.000  H
  H8       1.0000 0.92930  0.00920  0.24090  Biso   1.000  H
  C9       1.0000 0.20630  0.58130  0.81900  Biso   1.000  C
  C10      1.0000 0.29370  0.41870  0.31900  Biso   1.000  C
  C11      1.0000 0.79370  0.08130  0.68100  Biso   1.000  C
  C12      1.0000 0.70630  0.91870  0.18100  Biso   1.000  C
  H9       1.0000 0.12030  0.57680  0.82390  Biso   1.000  H
  H10      1.0000 0.37970  0.42320  0.32390  Biso   1.000  H
  H11      1.0000 0.87970  0.07680  0.67610  Biso   1.000  H
  H12      1.0000 0.62030  0.92320  0.17610  Biso   1.000  H
  C13      1.0000 0.26810  0.64940  0.84060  Biso   1.000  C
  C14      1.0000 0.23190  0.35060  0.34060  Biso   1.000  C
  C15      1.0000 0.73190  0.14940  0.65940  Biso   1.000  C
  C16      1.0000 0.76810  0.85060  0.15940  Biso   1.000  C
  H13      1.0000 0.22380  0.69090  0.86020  Biso   1.000  H
  H14      1.0000 0.27620  0.30910  0.36020  Biso   1.000  H
  H15      1.0000 0.77620  0.19090  0.63980  Biso   1.000  H
  H16      1.0000 0.72380  0.80910  0.13980  Biso   1.000  H
  O5       1.0000 0.23560  0.08250  0.71630  Biso   1.000  O
  O6       1.0000 0.26440  0.91750  0.21630  Biso   1.000  O
  O7       1.0000 0.76440  0.58250  0.78370  Biso   1.000  O
  O8       1.0000 0.73560  0.41750  0.28370  Biso   1.000  O
  N5       1.0000 0.39160  0.84790  0.83810  Biso   1.000  N
  N6       1.0000 0.10840  0.15210  0.33810  Biso   1.000  N
  N7       1.0000 0.60840  0.34790  0.66190  Biso   1.000  N
  N8       1.0000 0.89160  0.65210  0.16190  Biso   1.000  N
  C17      1.0000 0.38120  0.85230  0.78530  Biso   1.000  C
  C18      1.0000 0.11880  0.14770  0.28530  Biso   1.000  C
  C19      1.0000 0.61880  0.35230  0.71470  Biso   1.000  C
  C20      1.0000 0.88120  0.64770  0.21470  Biso   1.000  C
  H17      1.0000 0.41990  0.80890  0.76510  Biso   1.000  H
  H18      1.0000 0.08010  0.19110  0.26510  Biso   1.000  H
  H19      1.0000 0.58010  0.30890  0.73490  Biso   1.000  H
  H20      1.0000 0.91990  0.69110  0.23490  Biso   1.000  H
  C21      1.0000 0.31560  0.91820  0.75840  Biso   1.000  C
  C22      1.0000 0.18440  0.08180  0.25840  Biso   1.000  C
  C23      1.0000 0.68440  0.41820  0.74160  Biso   1.000  C
  C24      1.0000 0.81560  0.58180  0.24160  Biso   1.000  C
  H21      1.0000 0.31090  0.91890  0.72140  Biso   1.000  H
  H22      1.0000 0.18910  0.08110  0.22140  Biso   1.000  H
  H23      1.0000 0.68910  0.41890  0.77860  Biso   1.000  H
  H24      1.0000 0.81090  0.58110  0.27860  Biso   1.000  H
  C25      1.0000 0.26030  0.97970  0.78750  Biso   1.000  C
  C26      1.0000 0.23970  0.02030  0.28750  Biso   1.000  C
  C27      1.0000 0.73970  0.47970  0.71250  Biso   1.000  C
  C28      1.0000 0.76030  0.52030  0.21250  Biso   1.000  C
  C29      1.0000 0.26820  0.97840  0.84360  Biso   1.000  C
  C30      1.0000 0.23180  0.02160  0.34360  Biso   1.000  C
  C31      1.0000 0.73180  0.47840  0.65640  Biso   1.000  C
  C32      1.0000 0.76820  0.52160  0.15640  Biso   1.000  C
  H25      1.0000 0.23140  0.02220  0.86410  Biso   1.000  H
  H26      1.0000 0.26860  0.97780  0.36410  Biso   1.000  H
  H27      1.0000 0.76860  0.52220  0.63590  Biso   1.000  H
  H28      1.0000 0.73140  0.47780  0.13590  Biso   1.000  H
  C33      1.0000 0.33260  0.90950  0.86740  Biso   1.000  C
  C34      1.0000 0.16740  0.09050  0.36740  Biso   1.000  C
  C35      1.0000 0.66740  0.40950  0.63260  Biso   1.000  C
  C36      1.0000 0.83260  0.59050  0.13260  Biso   1.000  C
  H29      1.0000 0.33510  0.90590  0.90440  Biso   1.000  H
  H30      1.0000 0.16490  0.09410  0.40440  Biso   1.000  H
  H31      1.0000 0.66490  0.40590  0.59560  Biso   1.000  H
  H32      1.0000 0.83510  0.59410  0.09560  Biso   1.000  H
  C37      1.0000 0.19840  0.05810  0.75810  Biso   1.000  C
  C38      1.0000 0.30160  0.94190  0.25810  Biso   1.000  C
  C39      1.0000 0.80160  0.55810  0.74190  Biso   1.000  C
  C40      1.0000 0.69840  0.44190  0.24190  Biso   1.000  C
  N9       1.0000 0.10020  0.09520  0.78550  Biso   1.000  N
  N10      1.0000 0.39980  0.90480  0.28550  Biso   1.000  N
  N11      1.0000 0.89980  0.59520  0.71450  Biso   1.000  N
  N12      1.0000 0.60020  0.40480  0.21450  Biso   1.000  N
  H33      1.0000 0.07630  0.07290  0.81540  Biso   1.000  H
  H34      1.0000 0.42370  0.92710  0.31540  Biso   1.000  H
  H35      1.0000 0.92370  0.57290  0.68460  Biso   1.000  H
  H36      1.0000 0.57630  0.42710  0.18460  Biso   1.000  H
  N13      1.0000 0.58240  0.65400  0.91510  Biso   1.000  N
  N14      1.0000 0.91760  0.34600  0.41510  Biso   1.000  N
  N15      1.0000 0.41760  0.15400  0.58490  Biso   1.000  N
  N16      1.0000 0.08240  0.84600  0.08490  Biso   1.000  N
  C41      1.0000 0.51770  0.58270  0.93590  Biso   1.000  C
  C42      1.0000 0.98230  0.41730  0.43590  Biso   1.000  C
  C43      1.0000 0.48230  0.08270  0.56410  Biso   1.000  C
  C44      1.0000 0.01770  0.91730  0.06410  Biso   1.000  C
  H37      1.0000 0.43080  0.58020  0.93440  Biso   1.000  H
  H38      1.0000 0.06920  0.41980  0.43440  Biso   1.000  H
  H39      1.0000 0.56920  0.08020  0.56560  Biso   1.000  H
  H40      1.0000 0.93080  0.91980  0.06560  Biso   1.000  H
  C45      1.0000 0.58660  0.51510  0.95920  Biso   1.000  C
  C46      1.0000 0.91340  0.48490  0.45920  Biso   1.000  C
  C47      1.0000 0.41340  0.01510  0.54080  Biso   1.000  C
  C48      1.0000 0.08660  0.98490  0.04080  Biso   1.000  C
  H41      1.0000 0.54370  0.46600  0.97150  Biso   1.000  H
  H42      1.0000 0.95630  0.53400  0.47150  Biso   1.000  H
  H43      1.0000 0.45630  0.96600  0.52850  Biso   1.000  H
  H44      1.0000 0.04370  0.03400  0.02850  Biso   1.000  H
  C49      1.0000 0.77010  0.59350  0.94390  Biso   1.000  C
  C50      1.0000 0.72990  0.40650  0.44390  Biso   1.000  C
  C51      1.0000 0.22990  0.09350  0.55610  Biso   1.000  C
  C52      1.0000 0.27010  0.90650  0.05610  Biso   1.000  C
  H45      1.0000 0.85650  0.59910  0.94640  Biso   1.000  H
  H46      1.0000 0.64350  0.40090  0.44640  Biso   1.000  H
  H47      1.0000 0.14350  0.09910  0.55360  Biso   1.000  H
  H48      1.0000 0.35650  0.90090  0.05360  Biso   1.000  H
  C53      1.0000 0.70170  0.65750  0.92100  Biso   1.000  C
  C54      1.0000 0.79830  0.34250  0.42100  Biso   1.000  C
  C55      1.0000 0.29830  0.15750  0.57900  Biso   1.000  C
  C56      1.0000 0.20170  0.84250  0.07900  Biso   1.000  C
  H49      1.0000 0.74330  0.70710  0.90860  Biso   1.000  H
  H50      1.0000 0.75670  0.29290  0.40860  Biso   1.000  H
  H51      1.0000 0.25670  0.20710  0.59140  Biso   1.000  H
  H52      1.0000 0.24330  0.79290  0.09140  Biso   1.000  H
  N17      1.0000 0.57740  0.84600  0.91980  Biso   1.000  N
  N18      1.0000 0.92260  0.15400  0.41980  Biso   1.000  N
  N19      1.0000 0.42260  0.34600  0.58020  Biso   1.000  N
  N20      1.0000 0.07740  0.65400  0.08020  Biso   1.000  N
  C57      1.0000 0.58070  0.84290  0.97370  Biso   1.000  C
  C58      1.0000 0.91930  0.15710  0.47370  Biso   1.000  C
  C59      1.0000 0.41930  0.34290  0.52630  Biso   1.000  C
  C60      1.0000 0.08070  0.65710  0.02630  Biso   1.000  C
  H53      1.0000 0.55210  0.79260  0.99090  Biso   1.000  H
  H54      1.0000 0.94790  0.20740  0.49090  Biso   1.000  H
  H55      1.0000 0.44790  0.29260  0.50910  Biso   1.000  H
  H56      1.0000 0.05210  0.70740  0.00910  Biso   1.000  H
  C61      1.0000 0.62340  0.90940  0.00300  Biso   1.000  C
  C62      1.0000 0.87660  0.09060  0.50300  Biso   1.000  C
  C63      1.0000 0.37660  0.40940  0.49700  Biso   1.000  C
  C64      1.0000 0.12340  0.59060  0.99700  Biso   1.000  C
  H57      1.0000 0.61920  0.90540  0.04000  Biso   1.000  H
  H58      1.0000 0.88080  0.09460  0.54000  Biso   1.000  H
  H59      1.0000 0.38080  0.40540  0.46000  Biso   1.000  H
  H60      1.0000 0.11920  0.59460  0.96000  Biso   1.000  H
  C65      1.0000 0.67450  0.98290  0.92410  Biso   1.000  C
  C66      1.0000 0.82550  0.01710  0.42410  Biso   1.000  C
  C67      1.0000 0.32550  0.48290  0.57590  Biso   1.000  C
  C68      1.0000 0.17450  0.51710  0.07590  Biso   1.000  C
  H61      1.0000 0.70780  0.03080  0.90610  Biso   1.000  H
  H62      1.0000 0.79220  0.96920  0.40610  Biso   1.000  H
  H63      1.0000 0.29220  0.53080  0.59390  Biso   1.000  H
  H64      1.0000 0.20780  0.46920  0.09390  Biso   1.000  H
  C69      1.0000 0.63040  0.91720  0.89790  Biso   1.000  C
  C70      1.0000 0.86960  0.08280  0.39790  Biso   1.000  C
  C71      1.0000 0.36960  0.41720  0.60210  Biso   1.000  C
  C72      1.0000 0.13040  0.58280  0.10210  Biso   1.000  C
  H65      1.0000 0.63580  0.91920  0.86090  Biso   1.000  H
  H66      1.0000 0.86420  0.08080  0.36090  Biso   1.000  H
  H67      1.0000 0.36420  0.41920  0.63910  Biso   1.000  H
  H68      1.0000 0.13580  0.58080  0.13910  Biso   1.000  H
  O9       1.0000 0.26180  0.40350  0.72720  Biso   1.000  O
  O10      1.0000 0.23820  0.59650  0.22720  Biso   1.000  O
  O11      1.0000 0.73820  0.90350  0.77280  Biso   1.000  O
  O12      1.0000 0.76180  0.09650  0.27280  Biso   1.000  O
  C73      1.0000 0.20660  0.44190  0.76320  Biso   1.000  C
  C74      1.0000 0.29340  0.55810  0.26320  Biso   1.000  C
  C75      1.0000 0.79340  0.94190  0.73680  Biso   1.000  C
  C76      1.0000 0.70660  0.05810  0.23680  Biso   1.000  C
  N21      1.0000 0.09920  0.41490  0.78080  Biso   1.000  N
  N22      1.0000 0.40080  0.58510  0.28080  Biso   1.000  N
  N23      1.0000 0.90080  0.91490  0.71920  Biso   1.000  N
  N24      1.0000 0.59920  0.08510  0.21920  Biso   1.000  N
  H69      1.0000 0.06230  0.44550  0.80500  Biso   1.000  H
  H70      1.0000 0.43770  0.55450  0.30500  Biso   1.000  H
  H71      1.0000 0.93770  0.94550  0.69500  Biso   1.000  H
  H72      1.0000 0.56230  0.05450  0.19500  Biso   1.000  H
  C77      1.0000 0.26790  0.51800  0.78970  Biso   1.000  C
  C78      1.0000 0.23210  0.48200  0.28970  Biso   1.000  C
  C79      1.0000 0.73210  0.01800  0.71030  Biso   1.000  C
  C80      1.0000 0.76790  0.98200  0.21030  Biso   1.000  C
  O13      1.0000 0.73410  0.05230  0.05760  Biso   1.000  O
  O14      1.0000 0.76590  0.94770  0.55760  Biso   1.000  O
  O15      1.0000 0.26590  0.55230  0.44240  Biso   1.000  O
  O16      1.0000 0.23410  0.44770  0.94240  Biso   1.000  O
  C81      1.0000 0.73270  0.05870  0.01020  Biso   1.000  C
  C82      1.0000 0.76730  0.94130  0.51020  Biso   1.000  C
  C83      1.0000 0.26730  0.55870  0.48980  Biso   1.000  C
  C84      1.0000 0.23270  0.44130  0.98980  Biso   1.000  C
  N25      1.0000 0.68630  0.13490  0.99920  Biso   1.000  N
  N26      1.0000 0.81370  0.86510  0.49920  Biso   1.000  N
  N27      1.0000 0.31370  0.63490  0.50080  Biso   1.000  N
  N28      1.0000 0.18630  0.36510  0.00080  Biso   1.000  N
  H73      1.0000 0.64650  0.14140  0.96960  Biso   1.000  H
  H74      1.0000 0.85350  0.85860  0.46960  Biso   1.000  H
  H75      1.0000 0.35350  0.64140  0.53040  Biso   1.000  H
  H76      1.0000 0.14650  0.35860  0.03040  Biso   1.000  H
  C85      1.0000 0.67210  0.98180  0.98110  Biso   1.000  C
  C86      1.0000 0.82790  0.01820  0.48110  Biso   1.000  C
  C87      1.0000 0.32790  0.48180  0.51890  Biso   1.000  C
  C88      1.0000 0.17210  0.51820  0.01890  Biso   1.000  C
  O17      1.0000 0.90080  0.43750  0.97000  Biso   1.000  O
  O18      1.0000 0.59920  0.56250  0.47000  Biso   1.000  O
  O19      1.0000 0.09920  0.93750  0.53000  Biso   1.000  O
  O20      1.0000 0.40080  0.06250  0.03000  Biso   1.000  O
  C89      1.0000 0.79900  0.44940  0.98640  Biso   1.000  C
  C90      1.0000 0.70100  0.55060  0.48640  Biso   1.000  C
  C91      1.0000 0.20100  0.94940  0.51360  Biso   1.000  C
  C92      1.0000 0.29900  0.05060  0.01360  Biso   1.000  C
  N29      1.0000 0.75560  0.40850  0.02920  Biso   1.000  N
  N30      1.0000 0.74440  0.59150  0.52920  Biso   1.000  N
  N31      1.0000 0.24440  0.90850  0.47080  Biso   1.000  N
  N32      1.0000 0.25560  0.09150  0.97080  Biso   1.000  N
  H77      1.0000 0.68330  0.42190  0.04190  Biso   1.000  H
  H78      1.0000 0.81670  0.57810  0.54190  Biso   1.000  H
  H79      1.0000 0.31670  0.92190  0.45810  Biso   1.000  H
  H80      1.0000 0.18330  0.07810  0.95810  Biso   1.000  H
  C93      1.0000 0.70960  0.51680  0.96470  Biso   1.000  C
  C94      1.0000 0.79040  0.48320  0.46470  Biso   1.000  C
  C95      1.0000 0.29040  0.01680  0.53530  Biso   1.000  C
  C96      1.0000 0.20960  0.98320  0.03530  Biso   1.000  C
  C97      1.0000 0.03700  0.33400  0.76130  Biso   1.000  C
  C98      1.0000 0.46300  0.66600  0.26130  Biso   1.000  C
  C99      1.0000 0.96300  0.83400  0.73870  Biso   1.000  C
  C100     1.0000 0.53700  0.16600  0.23870  Biso   1.000  C
  H81      1.0000 0.04650  0.32990  0.72290  Biso   1.000  H
  H82      1.0000 0.45350  0.67010  0.22290  Biso   1.000  H
  H83      1.0000 0.95350  0.82990  0.77710  Biso   1.000  H
  H84      1.0000 0.54650  0.17010  0.27710  Biso   1.000  H
  H85      1.0000 0.94830  0.33690  0.76930  Biso   1.000  H
  H86      1.0000 0.55170  0.66310  0.26930  Biso   1.000  H
  H87      1.0000 0.05170  0.83690  0.73070  Biso   1.000  H
  H88      1.0000 0.44830  0.16310  0.23070  Biso   1.000  H
  C101     1.0000 0.09270  0.25320  0.78730  Biso   1.000  C
  C102     1.0000 0.40730  0.74680  0.28730  Biso   1.000  C
  C103     1.0000 0.90730  0.75320  0.71270  Biso   1.000  C
  C104     1.0000 0.59270  0.24680  0.21270  Biso   1.000  C
  H89      1.0000 0.18250  0.25270  0.78180  Biso   1.000  H
  H90      1.0000 0.31750  0.74730  0.28180  Biso   1.000  H
  H91      1.0000 0.81750  0.75270  0.71820  Biso   1.000  H
  H92      1.0000 0.68250  0.24730  0.21820  Biso   1.000  H
  H93      1.0000 0.07720  0.25490  0.82550  Biso   1.000  H
  H94      1.0000 0.42280  0.74510  0.32550  Biso   1.000  H
  H95      1.0000 0.92280  0.75490  0.67450  Biso   1.000  H
  H96      1.0000 0.57720  0.24510  0.17450  Biso   1.000  H
  C105     1.0000 0.03700  0.17190  0.76430  Biso   1.000  C
  C106     1.0000 0.46300  0.82810  0.26430  Biso   1.000  C
  C107     1.0000 0.96300  0.67190  0.73570  Biso   1.000  C
  C108     1.0000 0.53700  0.32810  0.23570  Biso   1.000  C
  H97      1.0000 0.94870  0.16920  0.77310  Biso   1.000  H
  H98      1.0000 0.55130  0.83080  0.27310  Biso   1.000  H
  H99      1.0000 0.05130  0.66920  0.72690  Biso   1.000  H
  H100     1.0000 0.44870  0.33080  0.22690  Biso   1.000  H
  H101     1.0000 0.04490  0.17290  0.72570  Biso   1.000  H
  H102     1.0000 0.45510  0.82710  0.22570  Biso   1.000  H
  H103     1.0000 0.95510  0.67290  0.77430  Biso   1.000  H
  H104     1.0000 0.54490  0.32710  0.27430  Biso   1.000  H
  C109     1.0000 0.83140  0.34020  0.05490  Biso   1.000  C
  C110     1.0000 0.66860  0.65980  0.55490  Biso   1.000  C
  C111     1.0000 0.16860  0.84020  0.44510  Biso   1.000  C
  C112     1.0000 0.33140  0.15980  0.94510  Biso   1.000  C
  H105     1.0000 0.80090  0.33000  0.09090  Biso   1.000  H
  H106     1.0000 0.69910  0.67000  0.59090  Biso   1.000  H
  H107     1.0000 0.19910  0.83000  0.40910  Biso   1.000  H
  H108     1.0000 0.30090  0.17000  0.90910  Biso   1.000  H
  H109     1.0000 0.91760  0.35960  0.05730  Biso   1.000  H
  H110     1.0000 0.58240  0.64040  0.55730  Biso   1.000  H
  H111     1.0000 0.08240  0.85960  0.44270  Biso   1.000  H
  H112     1.0000 0.41760  0.14040  0.94270  Biso   1.000  H
  C113     1.0000 0.82460  0.25210  0.02200  Biso   1.000  C
  C114     1.0000 0.67540  0.74790  0.52200  Biso   1.000  C
  C115     1.0000 0.17540  0.75210  0.47800  Biso   1.000  C
  C116     1.0000 0.32460  0.24790  0.97800  Biso   1.000  C
  H113     1.0000 0.82720  0.26270  0.98380  Biso   1.000  H
  H114     1.0000 0.67280  0.73730  0.48380  Biso   1.000  H
  H115     1.0000 0.17280  0.76270  0.51620  Biso   1.000  H
  H116     1.0000 0.32720  0.23730  0.01620  Biso   1.000  H
  H117     1.0000 0.89090  0.21170  0.03190  Biso   1.000  H
  H118     1.0000 0.60910  0.78830  0.53190  Biso   1.000  H
  H119     1.0000 0.10910  0.71170  0.46810  Biso   1.000  H
  H120     1.0000 0.39090  0.28830  0.96810  Biso   1.000  H
  C117     1.0000 0.70000  0.22050  0.03960  Biso   1.000  C
  C118     1.0000 0.80000  0.77950  0.53960  Biso   1.000  C
  C119     1.0000 0.30000  0.72050  0.46040  Biso   1.000  C
  C120     1.0000 0.20000  0.27950  0.96040  Biso   1.000  C
  H121     1.0000 0.63500  0.26380  0.03350  Biso   1.000  H
  H122     1.0000 0.86500  0.73620  0.53350  Biso   1.000  H
  H123     1.0000 0.36500  0.76380  0.46650  Biso   1.000  H
  H124     1.0000 0.13500  0.23620  0.96650  Biso   1.000  H
  H125     1.0000 0.70000  0.20320  0.07690  Biso   1.000  H
  H126     1.0000 0.80000  0.79680  0.57690  Biso   1.000  H
  H127     1.0000 0.30000  0.70320  0.42310  Biso   1.000  H
  H128     1.0000 0.20000  0.29680  0.92310  Biso   1.000  H
  O21      1.0000 0.32790  0.74520  0.94960  Biso   1.000  O
  O22      1.0000 0.17210  0.25480  0.44960  Biso   1.000  O
  O23      1.0000 0.67210  0.24520  0.55040  Biso   1.000  O
  O24      1.0000 0.82790  0.75480  0.05040  Biso   1.000  O
  Cl1      1.0000 0.49410  0.67498  0.08783  Biso   1.000  Cl
  Cl2      1.0000 0.00590  0.32502  0.58783  Biso   1.000  Cl
  Cl3      1.0000 0.50590  0.17498  0.41217  Biso   1.000  Cl
  Cl4      1.0000 0.99410  0.82502  0.91217  Biso   1.000  Cl
  O25      1.0000 0.46790  0.60360  0.12320  Biso   1.000  O
  O26      1.0000 0.03210  0.39640  0.62320  Biso   1.000  O
  O27      1.0000 0.53210  0.10360  0.37680  Biso   1.000  O
  O28      1.0000 0.96790  0.89640  0.87680  Biso   1.000  O
  O29      1.0000 0.60420  0.65600  0.05970  Biso   1.000  O
  O30      1.0000 0.89580  0.34400  0.55970  Biso   1.000  O
  O31      1.0000 0.39580  0.15600  0.44030  Biso   1.000  O
  O32      1.0000 0.10420  0.84400  0.94030  Biso   1.000  O
  O33      1.0000 0.39380  0.67990  0.04990  Biso   1.000  O
  O34      1.0000 0.10620  0.32010  0.54990  Biso   1.000  O
  O35      1.0000 0.60620  0.17990  0.45010  Biso   1.000  O
  O36      1.0000 0.89380  0.82010  0.95010  Biso   1.000  O
  O37      1.0000 0.50230  0.76000  0.11230  Biso   1.000  O
  O38      1.0000 0.99770  0.24000  0.61230  Biso   1.000  O
  O39      1.0000 0.49770  0.26000  0.38770  Biso   1.000  O
  O40      1.0000 0.00230  0.74000  0.88770  Biso   1.000  O
  O41      1.0000 0.43640  0.01490  0.13870  Biso   1.000  O
  O42      1.0000 0.06360  0.98510  0.63870  Biso   1.000  O
  O43      1.0000 0.56360  0.51490  0.36130  Biso   1.000  O
  O44      1.0000 0.93640  0.48510  0.86130  Biso   1.000  O
  O45      1.0000 0.50910  0.42010  0.09700  Biso   1.000  O
  O46      1.0000 0.99090  0.57990  0.59700  Biso   1.000  O
  O47      1.0000 0.49090  0.92010  0.40300  Biso   1.000  O
  O48      1.0000 0.00910  0.07990  0.90300  Biso   1.000  O
