data_image0
_cell_length_a       12.3335
_cell_length_b       12.3335
_cell_length_c       18.836
_cell_angle_alpha    90
_cell_angle_beta     90
_cell_angle_gamma    90

_symmetry_space_group_name_H-M    "P 1"
_symmetry_int_tables_number       1

loop_
  _symmetry_equiv_pos_as_xyz
  'x, y, z'

loop_
  _atom_site_label
  _atom_site_occupancy
  _atom_site_fract_x
  _atom_site_fract_y
  _atom_site_fract_z
  _atom_site_thermal_displace_type
  _atom_site_B_iso_or_equiv
  _atom_site_type_symbol
  Cu1      1.0000 0.50000  0.00000  0.05326  Biso   1.000  Cu
  Cu2      1.0000 0.00000  0.50000  0.94674  Biso   1.000  Cu
  O1       1.0000 0.60760  0.83370  0.06022  Biso   1.000  O
  O2       1.0000 0.39240  0.16630  0.06022  Biso   1.000  O
  O3       1.0000 0.83370  0.39240  0.93978  Biso   1.000  O
  O4       1.0000 0.16630  0.60760  0.93978  Biso   1.000  O
  N1       1.0000 0.60160  0.06250  0.12861  Biso   1.000  N
  N2       1.0000 0.39840  0.93750  0.12861  Biso   1.000  N
  N3       1.0000 0.06250  0.39840  0.87139  Biso   1.000  N
  N4       1.0000 0.93750  0.60160  0.87139  Biso   1.000  N
  O5       1.0000 0.91030  0.19070  0.27994  Biso   1.000  O
  O6       1.0000 0.08970  0.80930  0.27994  Biso   1.000  O
  O7       1.0000 0.19070  0.08970  0.72006  Biso   1.000  O
  O8       1.0000 0.80930  0.91030  0.72006  Biso   1.000  O
  C1       1.0000 0.70940  0.04810  0.12334  Biso   1.000  C
  C2       1.0000 0.29060  0.95190  0.12334  Biso   1.000  C
  C3       1.0000 0.04810  0.29060  0.87666  Biso   1.000  C
  C4       1.0000 0.95190  0.70940  0.87666  Biso   1.000  C
  H1       1.0000 0.73750  0.01400  0.08330  Biso   1.000  H
  H2       1.0000 0.26250  0.98600  0.08330  Biso   1.000  H
  H3       1.0000 0.01400  0.26250  0.91670  Biso   1.000  H
  H4       1.0000 0.98600  0.73750  0.91670  Biso   1.000  H
  C5       1.0000 0.77910  0.08250  0.17545  Biso   1.000  C
  C6       1.0000 0.22090  0.91750  0.17545  Biso   1.000  C
  C7       1.0000 0.08250  0.22090  0.82455  Biso   1.000  C
  C8       1.0000 0.91750  0.77910  0.82455  Biso   1.000  C
  H5       1.0000 0.85330  0.07140  0.17050  Biso   1.000  H
  H6       1.0000 0.14670  0.92860  0.17050  Biso   1.000  H
  H7       1.0000 0.07140  0.14670  0.82950  Biso   1.000  H
  H8       1.0000 0.92860  0.85330  0.82950  Biso   1.000  H
  C9       1.0000 0.73910  0.13400  0.23561  Biso   1.000  C
  C10      1.0000 0.26090  0.86600  0.23561  Biso   1.000  C
  C11      1.0000 0.13400  0.26090  0.76439  Biso   1.000  C
  C12      1.0000 0.86600  0.73910  0.76439  Biso   1.000  C
  C13      1.0000 0.63020  0.15010  0.23935  Biso   1.000  C
  C14      1.0000 0.36980  0.84990  0.23935  Biso   1.000  C
  C15      1.0000 0.15010  0.36980  0.76065  Biso   1.000  C
  C16      1.0000 0.84990  0.63020  0.76065  Biso   1.000  C
  H9       1.0000 0.60050  0.18560  0.27830  Biso   1.000  H
  H10      1.0000 0.39950  0.81440  0.27830  Biso   1.000  H
  H11      1.0000 0.18560  0.39950  0.72170  Biso   1.000  H
  H12      1.0000 0.81440  0.60050  0.72170  Biso   1.000  H
  C17      1.0000 0.56400  0.11410  0.18564  Biso   1.000  C
  C18      1.0000 0.43600  0.88590  0.18564  Biso   1.000  C
  C19      1.0000 0.11410  0.43600  0.81436  Biso   1.000  C
  C20      1.0000 0.88590  0.56400  0.81436  Biso   1.000  C
  H13      1.0000 0.48980  0.12640  0.18930  Biso   1.000  H
  H14      1.0000 0.51020  0.87360  0.18930  Biso   1.000  H
  H15      1.0000 0.12640  0.51020  0.81070  Biso   1.000  H
  H16      1.0000 0.87360  0.48980  0.81070  Biso   1.000  H
  C21      1.0000 0.81670  0.16580  0.29350  Biso   1.000  C
  C22      1.0000 0.18330  0.83420  0.29350  Biso   1.000  C
  C23      1.0000 0.16580  0.18330  0.70650  Biso   1.000  C
  C24      1.0000 0.83420  0.81670  0.70650  Biso   1.000  C
  O9       1.0000 0.80220  0.29520  0.80788  Biso   1.000  O
  O10      1.0000 0.19780  0.70480  0.80788  Biso   1.000  O
  O11      1.0000 0.29520  0.19780  0.19212  Biso   1.000  O
  O12      1.0000 0.70480  0.80220  0.19212  Biso   1.000  O
  N5       1.0000 0.59710  0.06010  0.97497  Biso   1.000  N
  N6       1.0000 0.40290  0.93990  0.97497  Biso   1.000  N
  N7       1.0000 0.06010  0.40290  0.02503  Biso   1.000  N
  N8       1.0000 0.93990  0.59710  0.02503  Biso   1.000  N
  C25      1.0000 0.59470  0.16520  0.95927  Biso   1.000  C
  C26      1.0000 0.40530  0.83480  0.95927  Biso   1.000  C
  C27      1.0000 0.16520  0.40530  0.04073  Biso   1.000  C
  C28      1.0000 0.83480  0.59470  0.04073  Biso   1.000  C
  H17      1.0000 0.55290  0.21060  0.98760  Biso   1.000  H
  H18      1.0000 0.44710  0.78940  0.98760  Biso   1.000  H
  H19      1.0000 0.21060  0.44710  0.01240  Biso   1.000  H
  H20      1.0000 0.78940  0.55290  0.01240  Biso   1.000  H
  C29      1.0000 0.64970  0.21000  0.90438  Biso   1.000  C
  C30      1.0000 0.35030  0.79000  0.90438  Biso   1.000  C
  C31      1.0000 0.21000  0.35030  0.09562  Biso   1.000  C
  C32      1.0000 0.79000  0.64970  0.09562  Biso   1.000  C
  H21      1.0000 0.64260  0.28340  0.89420  Biso   1.000  H
  H22      1.0000 0.35740  0.71660  0.89420  Biso   1.000  H
  H23      1.0000 0.28340  0.35740  0.10580  Biso   1.000  H
  H24      1.0000 0.71660  0.64260  0.10580  Biso   1.000  H
  C33      1.0000 0.71730  0.14430  0.86342  Biso   1.000  C
  C34      1.0000 0.28270  0.85570  0.86342  Biso   1.000  C
  C35      1.0000 0.14430  0.28270  0.13658  Biso   1.000  C
  C36      1.0000 0.85570  0.71730  0.13658  Biso   1.000  C
  C37      1.0000 0.72120  0.03850  0.87996  Biso   1.000  C
  C38      1.0000 0.27880  0.96150  0.87996  Biso   1.000  C
  C39      1.0000 0.03850  0.27880  0.12004  Biso   1.000  C
  C40      1.0000 0.96150  0.72120  0.12004  Biso   1.000  C
  H25      1.0000 0.76560  0.99230  0.85390  Biso   1.000  H
  H26      1.0000 0.23440  0.00770  0.85390  Biso   1.000  H
  H27      1.0000 0.99230  0.23440  0.14610  Biso   1.000  H
  H28      1.0000 0.00770  0.76560  0.14610  Biso   1.000  H
  C41      1.0000 0.66040  0.99770  0.93501  Biso   1.000  C
  C42      1.0000 0.33960  0.00230  0.93501  Biso   1.000  C
  C43      1.0000 0.99770  0.33960  0.06499  Biso   1.000  C
  C44      1.0000 0.00230  0.66040  0.06499  Biso   1.000  C
  H29      1.0000 0.66360  0.92390  0.94460  Biso   1.000  H
  H30      1.0000 0.33640  0.07610  0.94460  Biso   1.000  H
  H31      1.0000 0.92390  0.33640  0.05540  Biso   1.000  H
  H32      1.0000 0.07610  0.66360  0.05540  Biso   1.000  H
  C45      1.0000 0.78120  0.19830  0.80395  Biso   1.000  C
  C46      1.0000 0.21880  0.80170  0.80395  Biso   1.000  C
  C47      1.0000 0.19830  0.21880  0.19605  Biso   1.000  C
  C48      1.0000 0.80170  0.78120  0.19605  Biso   1.000  C
  N9       1.0000 0.77880  0.16180  0.35976  Biso   1.000  N
  N10      1.0000 0.22120  0.83820  0.35976  Biso   1.000  N
  N11      1.0000 0.16180  0.22120  0.64024  Biso   1.000  N
  N12      1.0000 0.83820  0.77880  0.64024  Biso   1.000  N
  H33      1.0000 0.71140  0.14710  0.36660  Biso   1.000  H
  H34      1.0000 0.28860  0.85290  0.36660  Biso   1.000  H
  H35      1.0000 0.14710  0.28860  0.63340  Biso   1.000  H
  H36      1.0000 0.85290  0.71140  0.63340  Biso   1.000  H
  N13      1.0000 0.80850  0.13510  0.75124  Biso   1.000  N
  N14      1.0000 0.19150  0.86490  0.75124  Biso   1.000  N
  N15      1.0000 0.13510  0.19150  0.24876  Biso   1.000  N
  N16      1.0000 0.86490  0.80850  0.24876  Biso   1.000  N
  H37      1.0000 0.79030  0.06800  0.75390  Biso   1.000  H
  H38      1.0000 0.20970  0.93200  0.75390  Biso   1.000  H
  H39      1.0000 0.06800  0.20970  0.24610  Biso   1.000  H
  H40      1.0000 0.93200  0.79030  0.24610  Biso   1.000  H
  C49      1.0000 0.84850  0.18170  0.42119  Biso   1.000  C
  C50      1.0000 0.15150  0.81830  0.42119  Biso   1.000  C
  C51      1.0000 0.18170  0.15150  0.57881  Biso   1.000  C
  C52      1.0000 0.81830  0.84850  0.57881  Biso   1.000  C
  H41      1.0000 0.88050  0.25330  0.41760  Biso   1.000  H
  H42      1.0000 0.11950  0.74670  0.41760  Biso   1.000  H
  H43      1.0000 0.25330  0.11950  0.58240  Biso   1.000  H
  H44      1.0000 0.74670  0.88050  0.58240  Biso   1.000  H
  H45      1.0000 0.90670  0.12880  0.42210  Biso   1.000  H
  H46      1.0000 0.09330  0.87120  0.42210  Biso   1.000  H
  H47      1.0000 0.12880  0.09330  0.57790  Biso   1.000  H
  H48      1.0000 0.87120  0.90670  0.57790  Biso   1.000  H
  C53      1.0000 0.78260  0.17360  0.48915  Biso   1.000  C
  C54      1.0000 0.21740  0.82640  0.48915  Biso   1.000  C
  C55      1.0000 0.17360  0.21740  0.51085  Biso   1.000  C
  C56      1.0000 0.82640  0.78260  0.51085  Biso   1.000  C
  H49      1.0000 0.72920  0.23130  0.49030  Biso   1.000  H
  H50      1.0000 0.27080  0.76870  0.49030  Biso   1.000  H
  H51      1.0000 0.23130  0.27080  0.50970  Biso   1.000  H
  H52      1.0000 0.76870  0.72920  0.50970  Biso   1.000  H
  H53      1.0000 0.74440  0.10490  0.49020  Biso   1.000  H
  H54      1.0000 0.25560  0.89510  0.49020  Biso   1.000  H
  H55      1.0000 0.10490  0.25560  0.50980  Biso   1.000  H
  H56      1.0000 0.89510  0.74440  0.50980  Biso   1.000  H
  C57      1.0000 0.85530  0.18220  0.55345  Biso   1.000  C
  C58      1.0000 0.14470  0.81780  0.55345  Biso   1.000  C
  C59      1.0000 0.18220  0.14470  0.44655  Biso   1.000  C
  C60      1.0000 0.81780  0.85530  0.44655  Biso   1.000  C
  H57      1.0000 0.88950  0.25300  0.55380  Biso   1.000  H
  H58      1.0000 0.11050  0.74700  0.55380  Biso   1.000  H
  H59      1.0000 0.25300  0.11050  0.44620  Biso   1.000  H
  H60      1.0000 0.74700  0.88950  0.44620  Biso   1.000  H
  H61      1.0000 0.91210  0.12800  0.55000  Biso   1.000  H
  H62      1.0000 0.08790  0.87200  0.55000  Biso   1.000  H
  H63      1.0000 0.12800  0.08790  0.45000  Biso   1.000  H
  H64      1.0000 0.87200  0.91210  0.45000  Biso   1.000  H
  C61      1.0000 0.79360  0.16590  0.62354  Biso   1.000  C
  C62      1.0000 0.20640  0.83410  0.62354  Biso   1.000  C
  C63      1.0000 0.16590  0.20640  0.37646  Biso   1.000  C
  C64      1.0000 0.83410  0.79360  0.37646  Biso   1.000  C
  H65      1.0000 0.73870  0.22180  0.62790  Biso   1.000  H
  H66      1.0000 0.26130  0.77820  0.62790  Biso   1.000  H
  H67      1.0000 0.22180  0.26130  0.37210  Biso   1.000  H
  H68      1.0000 0.77820  0.73870  0.37210  Biso   1.000  H
  H69      1.0000 0.75700  0.09640  0.62240  Biso   1.000  H
  H70      1.0000 0.24300  0.90360  0.62240  Biso   1.000  H
  H71      1.0000 0.09640  0.24300  0.37760  Biso   1.000  H
  H72      1.0000 0.90360  0.75700  0.37760  Biso   1.000  H
  C65      1.0000 0.86750  0.17010  0.68820  Biso   1.000  C
  C66      1.0000 0.13250  0.82990  0.68820  Biso   1.000  C
  C67      1.0000 0.17010  0.13250  0.31180  Biso   1.000  C
  C68      1.0000 0.82990  0.86750  0.31180  Biso   1.000  C
  H73      1.0000 0.92960  0.12320  0.68070  Biso   1.000  H
  H74      1.0000 0.07040  0.87680  0.68070  Biso   1.000  H
  H75      1.0000 0.12320  0.07040  0.31930  Biso   1.000  H
  H76      1.0000 0.87680  0.92960  0.31930  Biso   1.000  H
  H77      1.0000 0.89380  0.24350  0.69490  Biso   1.000  H
  H78      1.0000 0.10620  0.75650  0.69490  Biso   1.000  H
  H79      1.0000 0.24350  0.10620  0.30510  Biso   1.000  H
  H80      1.0000 0.75650  0.89380  0.30510  Biso   1.000  H
