data_image0
_cell_length_a       11.496
_cell_length_b       7.74
_cell_length_c       13.609
_cell_angle_alpha    90
_cell_angle_beta     103.14
_cell_angle_gamma    90

_symmetry_space_group_name_H-M    "P 1"
_symmetry_int_tables_number       1

loop_
  _symmetry_equiv_pos_as_xyz
  'x, y, z'

loop_
  _atom_site_label
  _atom_site_occupancy
  _atom_site_fract_x
  _atom_site_fract_y
  _atom_site_fract_z
  _atom_site_thermal_displace_type
  _atom_site_B_iso_or_equiv
  _atom_site_type_symbol
  Cu1      1.0000 0.00000  0.00000  0.50000  Biso   1.000  Cu
  Cu2      1.0000 0.50000  0.00000  0.00000  Biso   1.000  Cu
  C1       1.0000 0.04880  0.68010  0.62250  Biso   1.000  C
  C2       1.0000 0.45120  0.68010  0.87750  Biso   1.000  C
  C3       1.0000 0.95120  0.31990  0.37750  Biso   1.000  C
  C4       1.0000 0.54880  0.31990  0.12250  Biso   1.000  C
  H1       1.0000 0.12900  0.70850  0.64500  Biso   1.000  H
  H2       1.0000 0.37100  0.70850  0.85500  Biso   1.000  H
  H3       1.0000 0.87100  0.29150  0.35500  Biso   1.000  H
  H4       1.0000 0.62900  0.29150  0.14500  Biso   1.000  H
  C5       1.0000 0.88070  0.54430  0.60500  Biso   1.000  C
  C6       1.0000 0.61930  0.54430  0.89500  Biso   1.000  C
  C7       1.0000 0.11930  0.45570  0.39500  Biso   1.000  C
  C8       1.0000 0.38070  0.45570  0.10500  Biso   1.000  C
  H5       1.0000 0.82230  0.46440  0.61120  Biso   1.000  H
  H6       1.0000 0.67770  0.46440  0.88880  Biso   1.000  H
  H7       1.0000 0.17770  0.53560  0.38880  Biso   1.000  H
  H8       1.0000 0.32230  0.53560  0.11120  Biso   1.000  H
  C9       1.0000 0.86670  0.68490  0.54590  Biso   1.000  C
  C10      1.0000 0.63330  0.68490  0.95410  Biso   1.000  C
  C11      1.0000 0.13330  0.31510  0.45410  Biso   1.000  C
  C12      1.0000 0.36670  0.31510  0.04590  Biso   1.000  C
  H9       1.0000 0.79490  0.71920  0.50380  Biso   1.000  H
  H10      1.0000 0.70510  0.71920  0.99620  Biso   1.000  H
  H11      1.0000 0.20510  0.28080  0.49620  Biso   1.000  H
  H12      1.0000 0.29490  0.28080  0.00380  Biso   1.000  H
  C13      1.0000 0.22710  0.91190  0.51320  Biso   1.000  C
  C14      1.0000 0.27290  0.91190  0.98680  Biso   1.000  C
  C15      1.0000 0.77290  0.08810  0.48680  Biso   1.000  C
  C16      1.0000 0.72710  0.08810  0.01320  Biso   1.000  C
  C17      1.0000 0.35580  0.87100  0.55830  Biso   1.000  C
  C18      1.0000 0.14420  0.87100  0.94170  Biso   1.000  C
  C19      1.0000 0.64420  0.12900  0.44170  Biso   1.000  C
  C20      1.0000 0.85580  0.12900  0.05830  Biso   1.000  C
  C21      1.0000 0.42170  0.77400  0.50360  Biso   1.000  C
  C22      1.0000 0.07830  0.77400  0.99640  Biso   1.000  C
  C23      1.0000 0.57830  0.22600  0.49640  Biso   1.000  C
  C24      1.0000 0.92170  0.22600  0.00360  Biso   1.000  C
  H13      1.0000 0.38580  0.73390  0.43940  Biso   1.000  H
  H14      1.0000 0.11420  0.73390  0.06060  Biso   1.000  H
  H15      1.0000 0.61420  0.26610  0.56060  Biso   1.000  H
  H16      1.0000 0.88580  0.26610  0.93940  Biso   1.000  H
  C25      1.0000 0.54080  0.73760  0.54510  Biso   1.000  C
  C26      1.0000 0.95920  0.73760  0.95490  Biso   1.000  C
  C27      1.0000 0.45920  0.26240  0.45490  Biso   1.000  C
  C28      1.0000 0.04080  0.26240  0.04510  Biso   1.000  C
  H17      1.0000 0.58440  0.67210  0.50870  Biso   1.000  H
  H18      1.0000 0.91560  0.67210  0.99130  Biso   1.000  H
  H19      1.0000 0.41560  0.32790  0.49130  Biso   1.000  H
  H20      1.0000 0.08440  0.32790  0.00870  Biso   1.000  H
  C29      1.0000 0.59480  0.79720  0.63910  Biso   1.000  C
  C30      1.0000 0.90520  0.79720  0.86090  Biso   1.000  C
  C31      1.0000 0.40520  0.20280  0.36090  Biso   1.000  C
  C32      1.0000 0.09480  0.20280  0.13910  Biso   1.000  C
  H21      1.0000 0.67500  0.77340  0.66600  Biso   1.000  H
  H22      1.0000 0.82500  0.77340  0.83400  Biso   1.000  H
  H23      1.0000 0.32500  0.22660  0.33400  Biso   1.000  H
  H24      1.0000 0.17500  0.22660  0.16600  Biso   1.000  H
  C33      1.0000 0.53030  0.89260  0.69390  Biso   1.000  C
  C34      1.0000 0.96970  0.89260  0.80610  Biso   1.000  C
  C35      1.0000 0.46970  0.10740  0.30610  Biso   1.000  C
  C36      1.0000 0.03030  0.10740  0.19390  Biso   1.000  C
  H25      1.0000 0.56700  0.93400  0.75750  Biso   1.000  H
  H26      1.0000 0.93300  0.93400  0.74250  Biso   1.000  H
  H27      1.0000 0.43300  0.06600  0.24250  Biso   1.000  H
  H28      1.0000 0.06700  0.06600  0.25750  Biso   1.000  H
  C37      1.0000 0.41020  0.92660  0.65370  Biso   1.000  C
  C38      1.0000 0.08980  0.92660  0.84630  Biso   1.000  C
  C39      1.0000 0.58980  0.07340  0.34630  Biso   1.000  C
  C40      1.0000 0.91020  0.07340  0.15370  Biso   1.000  C
  H29      1.0000 0.36620  0.98770  0.69170  Biso   1.000  H
  H30      1.0000 0.13380  0.98770  0.80830  Biso   1.000  H
  H31      1.0000 0.63380  0.01230  0.30830  Biso   1.000  H
  H32      1.0000 0.86620  0.01230  0.19170  Biso   1.000  H
  C41      1.0000 0.04540  0.37140  0.69740  Biso   1.000  C
  C42      1.0000 0.45460  0.37140  0.80260  Biso   1.000  C
  C43      1.0000 0.95460  0.62860  0.30260  Biso   1.000  C
  C44      1.0000 0.54540  0.62860  0.19740  Biso   1.000  C
  H33      1.0000 0.98320  0.30130  0.71490  Biso   1.000  H
  H34      1.0000 0.51680  0.30130  0.78510  Biso   1.000  H
  H35      1.0000 0.01680  0.69870  0.28510  Biso   1.000  H
  H36      1.0000 0.48320  0.69870  0.21490  Biso   1.000  H
  H37      1.0000 0.08240  0.30780  0.65120  Biso   1.000  H
  H38      1.0000 0.41760  0.30780  0.84880  Biso   1.000  H
  H39      1.0000 0.91760  0.69220  0.34880  Biso   1.000  H
  H40      1.0000 0.58240  0.69220  0.15120  Biso   1.000  H
  C45      1.0000 0.13510  0.42700  0.78880  Biso   1.000  C
  C46      1.0000 0.36490  0.42700  0.71120  Biso   1.000  C
  C47      1.0000 0.86490  0.57300  0.21120  Biso   1.000  C
  C48      1.0000 0.63510  0.57300  0.28880  Biso   1.000  C
  H41      1.0000 0.15430  0.33260  0.83660  Biso   1.000  H
  H42      1.0000 0.34570  0.33260  0.66340  Biso   1.000  H
  H43      1.0000 0.84570  0.66740  0.16340  Biso   1.000  H
  H44      1.0000 0.65430  0.66740  0.33660  Biso   1.000  H
  H45      1.0000 0.10490  0.52310  0.82140  Biso   1.000  H
  H46      1.0000 0.39510  0.52310  0.67860  Biso   1.000  H
  H47      1.0000 0.89510  0.47690  0.17860  Biso   1.000  H
  H48      1.0000 0.60490  0.47690  0.32140  Biso   1.000  H
  C49      1.0000 0.05480  0.45080  0.75430  Biso   1.000  C
  C50      1.0000 0.44520  0.45080  0.74570  Biso   1.000  C
  C51      1.0000 0.94520  0.54920  0.24570  Biso   1.000  C
  C52      1.0000 0.55480  0.54920  0.25430  Biso   1.000  C
  H49      1.0000 0.07450  0.53520  0.80820  Biso   1.000  H
  H50      1.0000 0.42550  0.53520  0.69180  Biso   1.000  H
  H51      1.0000 0.92550  0.46480  0.19180  Biso   1.000  H
  H52      1.0000 0.57450  0.46480  0.30820  Biso   1.000  H
  H53      1.0000 0.99840  0.36910  0.77130  Biso   1.000  H
  H54      1.0000 0.50160  0.36910  0.72870  Biso   1.000  H
  H55      1.0000 0.00160  0.63090  0.22870  Biso   1.000  H
  H56      1.0000 0.49840  0.63090  0.27130  Biso   1.000  H
  C53      1.0000 0.16650  0.35700  0.74390  Biso   1.000  C
  C54      1.0000 0.33350  0.35700  0.75610  Biso   1.000  C
  C55      1.0000 0.83350  0.64300  0.25610  Biso   1.000  C
  C56      1.0000 0.66650  0.64300  0.24390  Biso   1.000  C
  H57      1.0000 0.19080  0.27340  0.79780  Biso   1.000  H
  H58      1.0000 0.30920  0.27340  0.70220  Biso   1.000  H
  H59      1.0000 0.80920  0.72660  0.20220  Biso   1.000  H
  H60      1.0000 0.69080  0.72660  0.29780  Biso   1.000  H
  H61      1.0000 0.15380  0.29750  0.67960  Biso   1.000  H
  H62      1.0000 0.34620  0.29750  0.82040  Biso   1.000  H
  H63      1.0000 0.84620  0.70250  0.32040  Biso   1.000  H
  H64      1.0000 0.65380  0.70250  0.17960  Biso   1.000  H
  N1       1.0000 0.97240  0.77070  0.55599  Biso   1.000  N
  N2       1.0000 0.52760  0.77070  0.94401  Biso   1.000  N
  N3       1.0000 0.02760  0.22930  0.44401  Biso   1.000  N
  N4       1.0000 0.47240  0.22930  0.05599  Biso   1.000  N
  N5       1.0000 0.99780  0.54260  0.65400  Biso   1.000  N
  N6       1.0000 0.50220  0.54260  0.84600  Biso   1.000  N
  N7       1.0000 0.00220  0.45740  0.34600  Biso   1.000  N
  N8       1.0000 0.49780  0.45740  0.15400  Biso   1.000  N
  O1       1.0000 0.18108  0.87390  0.42329  Biso   1.000  O
  O2       1.0000 0.31892  0.87390  0.07671  Biso   1.000  O
  O3       1.0000 0.81892  0.12610  0.57671  Biso   1.000  O
  O4       1.0000 0.68108  0.12610  0.92329  Biso   1.000  O
  O5       1.0000 0.16920  0.98610  0.57095  Biso   1.000  O
  O6       1.0000 0.33080  0.98610  0.92905  Biso   1.000  O
  O7       1.0000 0.83080  0.01390  0.42905  Biso   1.000  O
  O8       1.0000 0.66920  0.01390  0.07095  Biso   1.000  O
  O9       1.0000 0.25000  0.48370  0.75000  Biso   1.000  O
  O10      1.0000 0.75000  0.51630  0.25000  Biso   1.000  O
  O11      1.0000 0.25000  0.73520  0.25000  Biso   1.000  O
  O12      1.0000 0.75000  0.26480  0.75000  Biso   1.000  O
  H65      1.0000 0.26300  0.80700  0.20700  Biso   1.000  H
  H66      1.0000 0.23700  0.80700  0.29300  Biso   1.000  H
  H67      1.0000 0.73700  0.19300  0.79300  Biso   1.000  H
  H68      1.0000 0.76300  0.19300  0.70700  Biso   1.000  H
