data_image0
_cell_length_a       12.179
_cell_length_b       15.898
_cell_length_c       16.42
_cell_angle_alpha    90
_cell_angle_beta     102.834
_cell_angle_gamma    90

_symmetry_space_group_name_H-M    "P 1"
_symmetry_int_tables_number       1

loop_
  _symmetry_equiv_pos_as_xyz
  'x, y, z'

loop_
  _atom_site_label
  _atom_site_occupancy
  _atom_site_fract_x
  _atom_site_fract_y
  _atom_site_fract_z
  _atom_site_thermal_displace_type
  _atom_site_B_iso_or_equiv
  _atom_site_type_symbol
  Cu1      1.0000 0.42338  0.38523  0.21419  Biso   1.000  Cu
  Cu2      1.0000 0.07662  0.88523  0.28581  Biso   1.000  Cu
  Cu3      1.0000 0.57662  0.61477  0.78581  Biso   1.000  Cu
  Cu4      1.0000 0.92338  0.11477  0.71419  Biso   1.000  Cu
  O1       1.0000 0.47550  0.28070  0.16710  Biso   1.000  O
  O2       1.0000 0.02450  0.78070  0.33290  Biso   1.000  O
  O3       1.0000 0.52450  0.71930  0.83290  Biso   1.000  O
  O4       1.0000 0.97550  0.21930  0.66710  Biso   1.000  O
  O5       1.0000 0.59930  0.29980  0.28550  Biso   1.000  O
  O6       1.0000 0.90070  0.79980  0.21450  Biso   1.000  O
  O7       1.0000 0.40070  0.70020  0.71450  Biso   1.000  O
  O8       1.0000 0.09930  0.20020  0.78550  Biso   1.000  O
  O9       1.0000 0.76850  0.24090  0.16830  Biso   1.000  O
  O10      1.0000 0.73150  0.74090  0.33170  Biso   1.000  O
  O11      1.0000 0.23150  0.75910  0.83170  Biso   1.000  O
  O12      1.0000 0.26850  0.25910  0.66830  Biso   1.000  O
  O13      1.0000 0.23190  0.39540  0.12350  Biso   1.000  O
  O14      1.0000 0.26810  0.89540  0.37650  Biso   1.000  O
  O15      1.0000 0.76810  0.60460  0.87650  Biso   1.000  O
  O16      1.0000 0.73190  0.10460  0.62350  Biso   1.000  O
  O17      1.0000 0.29250  0.32070  0.23590  Biso   1.000  O
  O18      1.0000 0.20750  0.82070  0.26410  Biso   1.000  O
  O19      1.0000 0.70750  0.67930  0.76410  Biso   1.000  O
  O20      1.0000 0.79250  0.17930  0.73590  Biso   1.000  O
  O21      1.0000 0.45390  0.00290  0.23260  Biso   1.000  O
  O22      1.0000 0.04610  0.50290  0.26740  Biso   1.000  O
  O23      1.0000 0.54610  0.99710  0.76740  Biso   1.000  O
  O24      1.0000 0.95390  0.49710  0.73260  Biso   1.000  O
  O25      1.0000 0.81420  0.33050  0.56980  Biso   1.000  O
  O26      1.0000 0.68580  0.83050  0.93020  Biso   1.000  O
  O27      1.0000 0.18580  0.66950  0.43020  Biso   1.000  O
  O28      1.0000 0.31420  0.16950  0.06980  Biso   1.000  O
  H1       1.0000 0.88560  0.33330  0.58410  Biso   1.000  H
  H2       1.0000 0.61440  0.83330  0.91590  Biso   1.000  H
  H3       1.0000 0.11440  0.66670  0.41590  Biso   1.000  H
  H4       1.0000 0.38560  0.16670  0.08410  Biso   1.000  H
  H5       1.0000 0.79280  0.27970  0.57110  Biso   1.000  H
  H6       1.0000 0.70720  0.77970  0.92890  Biso   1.000  H
  H7       1.0000 0.20720  0.72030  0.42890  Biso   1.000  H
  H8       1.0000 0.29280  0.22030  0.07110  Biso   1.000  H
  O29      1.0000 0.66570  0.24060  0.44550  Biso   1.000  O
  O30      1.0000 0.83430  0.74060  0.05450  Biso   1.000  O
  O31      1.0000 0.33430  0.75940  0.55450  Biso   1.000  O
  O32      1.0000 0.16570  0.25940  0.94550  Biso   1.000  O
  H9       1.0000 0.64720  0.24990  0.39330  Biso   1.000  H
  H10      1.0000 0.85280  0.74990  0.10670  Biso   1.000  H
  H11      1.0000 0.35280  0.75010  0.60670  Biso   1.000  H
  H12      1.0000 0.14720  0.25010  0.89330  Biso   1.000  H
  H13      1.0000 0.60730  0.22350  0.46090  Biso   1.000  H
  H14      1.0000 0.89270  0.72350  0.03910  Biso   1.000  H
  H15      1.0000 0.39270  0.77650  0.53910  Biso   1.000  H
  H16      1.0000 0.10730  0.27650  0.96090  Biso   1.000  H
  O33      1.0000 0.38600  0.21790  0.37710  Biso   1.000  O
  O34      1.0000 0.11400  0.71790  0.12290  Biso   1.000  O
  O35      1.0000 0.61400  0.78210  0.62290  Biso   1.000  O
  O36      1.0000 0.88600  0.28210  0.87710  Biso   1.000  O
  H17      1.0000 0.44730  0.24430  0.39500  Biso   1.000  H
  H18      1.0000 0.05270  0.74430  0.10500  Biso   1.000  H
  H19      1.0000 0.55270  0.75570  0.60500  Biso   1.000  H
  H20      1.0000 0.94730  0.25570  0.89500  Biso   1.000  H
  H21      1.0000 0.35420  0.23550  0.32880  Biso   1.000  H
  H22      1.0000 0.14580  0.73550  0.17120  Biso   1.000  H
  H23      1.0000 0.64580  0.76450  0.67120  Biso   1.000  H
  H24      1.0000 0.85420  0.26450  0.82880  Biso   1.000  H
  O37      1.0000 0.44050  0.05770  0.38380  Biso   1.000  O
  O38      1.0000 0.05950  0.55770  0.11620  Biso   1.000  O
  O39      1.0000 0.55950  0.94230  0.61620  Biso   1.000  O
  O40      1.0000 0.94050  0.44230  0.88380  Biso   1.000  O
  H25      1.0000 0.38690  0.03840  0.34620  Biso   1.000  H
  H26      1.0000 0.11310  0.53840  0.15380  Biso   1.000  H
  H27      1.0000 0.61310  0.96160  0.65380  Biso   1.000  H
  H28      1.0000 0.88690  0.46160  0.84620  Biso   1.000  H
  H29      1.0000 0.41980  0.05590  0.42990  Biso   1.000  H
  H30      1.0000 0.08020  0.55590  0.07010  Biso   1.000  H
  H31      1.0000 0.58020  0.94410  0.57010  Biso   1.000  H
  H32      1.0000 0.91980  0.44410  0.92990  Biso   1.000  H
  O41      1.0000 0.66160  0.04970  0.45910  Biso   1.000  O
  O42      1.0000 0.83840  0.54970  0.04090  Biso   1.000  O
  O43      1.0000 0.33840  0.95030  0.54090  Biso   1.000  O
  O44      1.0000 0.16160  0.45030  0.95910  Biso   1.000  O
  H33      1.0000 0.63440  0.09230  0.43030  Biso   1.000  H
  H34      1.0000 0.86560  0.59230  0.06970  Biso   1.000  H
  H35      1.0000 0.36560  0.90770  0.56970  Biso   1.000  H
  H36      1.0000 0.13440  0.40770  0.93030  Biso   1.000  H
  H37      1.0000 0.70530  0.06530  0.50440  Biso   1.000  H
  H38      1.0000 0.79470  0.56530  0.99560  Biso   1.000  H
  H39      1.0000 0.29470  0.93470  0.49560  Biso   1.000  H
  H40      1.0000 0.20530  0.43470  0.00440  Biso   1.000  H
  N1       1.0000 0.51390  0.45920  0.15700  Biso   1.000  N
  N2       1.0000 0.98610  0.95920  0.34300  Biso   1.000  N
  N3       1.0000 0.48610  0.54080  0.84300  Biso   1.000  N
  N4       1.0000 0.01390  0.04080  0.65700  Biso   1.000  N
  N5       1.0000 0.64800  0.50910  0.09920  Biso   1.000  N
  N6       1.0000 0.85200  0.00910  0.40080  Biso   1.000  N
  N7       1.0000 0.35200  0.49090  0.90080  Biso   1.000  N
  N8       1.0000 0.14800  0.99090  0.59920  Biso   1.000  N
  H41      1.0000 0.71160  0.51250  0.08490  Biso   1.000  H
  H42      1.0000 0.78840  0.01250  0.41510  Biso   1.000  H
  H43      1.0000 0.28840  0.48750  0.91510  Biso   1.000  H
  H44      1.0000 0.21160  0.98750  0.58490  Biso   1.000  H
  N9       1.0000 0.40820  0.47140  0.29700  Biso   1.000  N
  N10      1.0000 0.09180  0.97140  0.20300  Biso   1.000  N
  N11      1.0000 0.59180  0.52860  0.70300  Biso   1.000  N
  N12      1.0000 0.90820  0.02860  0.79700  Biso   1.000  N
  N13      1.0000 0.33270  0.56700  0.36730  Biso   1.000  N
  N14      1.0000 0.16730  0.06700  0.13270  Biso   1.000  N
  N15      1.0000 0.66730  0.43300  0.63270  Biso   1.000  N
  N16      1.0000 0.83270  0.93300  0.86730  Biso   1.000  N
  H45      1.0000 0.28250  0.59770  0.38240  Biso   1.000  H
  H46      1.0000 0.21750  0.09770  0.11760  Biso   1.000  H
  H47      1.0000 0.71750  0.40230  0.61760  Biso   1.000  H
  H48      1.0000 0.78250  0.90230  0.88240  Biso   1.000  H
  N17      1.0000 0.53370  0.92310  0.14700  Biso   1.000  N
  N18      1.0000 0.96630  0.42310  0.35300  Biso   1.000  N
  N19      1.0000 0.46630  0.07690  0.85300  Biso   1.000  N
  N20      1.0000 0.03370  0.57690  0.64700  Biso   1.000  N
  C1       1.0000 0.56010  0.25650  0.22150  Biso   1.000  C
  C2       1.0000 0.93990  0.75650  0.27850  Biso   1.000  C
  C3       1.0000 0.43990  0.74350  0.77850  Biso   1.000  C
  C4       1.0000 0.06010  0.24350  0.72150  Biso   1.000  C
  C5       1.0000 0.61580  0.17380  0.20720  Biso   1.000  C
  C6       1.0000 0.88420  0.67380  0.29280  Biso   1.000  C
  C7       1.0000 0.38420  0.82620  0.79280  Biso   1.000  C
  C8       1.0000 0.11580  0.32620  0.70720  Biso   1.000  C
  H49      1.0000 0.59430  0.13070  0.24250  Biso   1.000  H
  H50      1.0000 0.90570  0.63070  0.25750  Biso   1.000  H
  H51      1.0000 0.40570  0.86930  0.75750  Biso   1.000  H
  H52      1.0000 0.09430  0.36930  0.74250  Biso   1.000  H
  H53      1.0000 0.58920  0.15660  0.14950  Biso   1.000  H
  H54      1.0000 0.91080  0.65660  0.35050  Biso   1.000  H
  H55      1.0000 0.41080  0.84340  0.85050  Biso   1.000  H
  H56      1.0000 0.08920  0.34340  0.64950  Biso   1.000  H
  C9       1.0000 0.74300  0.18140  0.22660  Biso   1.000  C
  C10      1.0000 0.75700  0.68140  0.27340  Biso   1.000  C
  C11      1.0000 0.25700  0.81860  0.77340  Biso   1.000  C
  C12      1.0000 0.24300  0.31860  0.72660  Biso   1.000  C
  H57      1.0000 0.77090  0.20100  0.28340  Biso   1.000  H
  H58      1.0000 0.72910  0.70100  0.21660  Biso   1.000  H
  H59      1.0000 0.22910  0.79900  0.71660  Biso   1.000  H
  H60      1.0000 0.27090  0.29900  0.78340  Biso   1.000  H
  H61      1.0000 0.77720  0.12740  0.22020  Biso   1.000  H
  H62      1.0000 0.72280  0.62740  0.27980  Biso   1.000  H
  H63      1.0000 0.22280  0.87260  0.77980  Biso   1.000  H
  H64      1.0000 0.27720  0.37260  0.72020  Biso   1.000  H
  C13      1.0000 0.87980  0.25980  0.17300  Biso   1.000  C
  C14      1.0000 0.62020  0.75980  0.32700  Biso   1.000  C
  C15      1.0000 0.12020  0.74020  0.82700  Biso   1.000  C
  C16      1.0000 0.37980  0.24020  0.67300  Biso   1.000  C
  C17      1.0000 0.89990  0.31880  0.11350  Biso   1.000  C
  C18      1.0000 0.60010  0.81880  0.38650  Biso   1.000  C
  C19      1.0000 0.10010  0.68120  0.88650  Biso   1.000  C
  C20      1.0000 0.39990  0.18120  0.61350  Biso   1.000  C
  H65      1.0000 0.83990  0.34120  0.07440  Biso   1.000  H
  H66      1.0000 0.66010  0.84120  0.42560  Biso   1.000  H
  H67      1.0000 0.16010  0.65880  0.92560  Biso   1.000  H
  H68      1.0000 0.33990  0.15880  0.57440  Biso   1.000  H
  C21      1.0000 0.00650  0.34280  0.11360  Biso   1.000  C
  C22      1.0000 0.49350  0.84280  0.38640  Biso   1.000  C
  C23      1.0000 0.99350  0.65720  0.88640  Biso   1.000  C
  C24      1.0000 0.50650  0.15720  0.61360  Biso   1.000  C
  H69      1.0000 0.01910  0.38010  0.07310  Biso   1.000  H
  H70      1.0000 0.48090  0.88010  0.42690  Biso   1.000  H
  H71      1.0000 0.98090  0.61990  0.92690  Biso   1.000  H
  H72      1.0000 0.51910  0.11990  0.57310  Biso   1.000  H
  C25      1.0000 0.09730  0.31280  0.17280  Biso   1.000  C
  C26      1.0000 0.40270  0.81280  0.32720  Biso   1.000  C
  C27      1.0000 0.90270  0.68720  0.82720  Biso   1.000  C
  C28      1.0000 0.59730  0.18720  0.67280  Biso   1.000  C
  C29      1.0000 0.07590  0.25430  0.23000  Biso   1.000  C
  C30      1.0000 0.42410  0.75430  0.27000  Biso   1.000  C
  C31      1.0000 0.92410  0.74570  0.77000  Biso   1.000  C
  C32      1.0000 0.57590  0.24570  0.73000  Biso   1.000  C
  H73      1.0000 0.13610  0.23310  0.26970  Biso   1.000  H
  H74      1.0000 0.36390  0.73310  0.23030  Biso   1.000  H
  H75      1.0000 0.86390  0.76690  0.73030  Biso   1.000  H
  H76      1.0000 0.63610  0.26690  0.76970  Biso   1.000  H
  C33      1.0000 0.96960  0.22670  0.23020  Biso   1.000  C
  C34      1.0000 0.53040  0.72670  0.26980  Biso   1.000  C
  C35      1.0000 0.03040  0.77330  0.76980  Biso   1.000  C
  C36      1.0000 0.46960  0.27330  0.73020  Biso   1.000  C
  H77      1.0000 0.95810  0.18620  0.26830  Biso   1.000  H
  H78      1.0000 0.54190  0.68620  0.23170  Biso   1.000  H
  H79      1.0000 0.04190  0.81380  0.73170  Biso   1.000  H
  H80      1.0000 0.45810  0.31380  0.76830  Biso   1.000  H
  C37      1.0000 0.21280  0.34470  0.17630  Biso   1.000  C
  C38      1.0000 0.28720  0.84470  0.32370  Biso   1.000  C
  C39      1.0000 0.78720  0.65530  0.82370  Biso   1.000  C
  C40      1.0000 0.71280  0.15530  0.67630  Biso   1.000  C
  C41      1.0000 0.61530  0.44660  0.14340  Biso   1.000  C
  C42      1.0000 0.88470  0.94660  0.35660  Biso   1.000  C
  C43      1.0000 0.38470  0.55340  0.85660  Biso   1.000  C
  C44      1.0000 0.11530  0.05340  0.64340  Biso   1.000  C
  H81      1.0000 0.65920  0.39970  0.16230  Biso   1.000  H
  H82      1.0000 0.84080  0.89970  0.33770  Biso   1.000  H
  H83      1.0000 0.34080  0.60030  0.83770  Biso   1.000  H
  H84      1.0000 0.15920  0.10030  0.66230  Biso   1.000  H
  C45      1.0000 0.47640  0.53570  0.11790  Biso   1.000  C
  C46      1.0000 0.02360  0.03570  0.38210  Biso   1.000  C
  C47      1.0000 0.52360  0.46430  0.88210  Biso   1.000  C
  C48      1.0000 0.97640  0.96430  0.61790  Biso   1.000  C
  C49      1.0000 0.37740  0.57870  0.11050  Biso   1.000  C
  C50      1.0000 0.12260  0.07870  0.38950  Biso   1.000  C
  C51      1.0000 0.62260  0.42130  0.88950  Biso   1.000  C
  C52      1.0000 0.87740  0.92130  0.61050  Biso   1.000  C
  H85      1.0000 0.32050  0.55880  0.13490  Biso   1.000  H
  H86      1.0000 0.17950  0.05880  0.36510  Biso   1.000  H
  H87      1.0000 0.67950  0.44120  0.86510  Biso   1.000  H
  H88      1.0000 0.82050  0.94120  0.63490  Biso   1.000  H
  C53      1.0000 0.36530  0.65210  0.06570  Biso   1.000  C
  C54      1.0000 0.13470  0.15210  0.43430  Biso   1.000  C
  C55      1.0000 0.63470  0.34790  0.93430  Biso   1.000  C
  C56      1.0000 0.86530  0.84790  0.56570  Biso   1.000  C
  H89      1.0000 0.29910  0.68280  0.05990  Biso   1.000  H
  H90      1.0000 0.20090  0.18280  0.44010  Biso   1.000  H
  H91      1.0000 0.70090  0.31720  0.94010  Biso   1.000  H
  H92      1.0000 0.79910  0.81720  0.55990  Biso   1.000  H
  C57      1.0000 0.45000  0.68160  0.02860  Biso   1.000  C
  C58      1.0000 0.05000  0.18160  0.47140  Biso   1.000  C
  C59      1.0000 0.55000  0.31840  0.97140  Biso   1.000  C
  C60      1.0000 0.95000  0.81840  0.52860  Biso   1.000  C
  H93      1.0000 0.43880  0.73150  0.99840  Biso   1.000  H
  H94      1.0000 0.06120  0.23150  0.50160  Biso   1.000  H
  H95      1.0000 0.56120  0.26850  0.00160  Biso   1.000  H
  H96      1.0000 0.93880  0.76850  0.49840  Biso   1.000  H
  C61      1.0000 0.54870  0.63960  0.03550  Biso   1.000  C
  C62      1.0000 0.95130  0.13960  0.46450  Biso   1.000  C
  C63      1.0000 0.45130  0.36040  0.96450  Biso   1.000  C
  C64      1.0000 0.04870  0.86040  0.53550  Biso   1.000  C
  H97      1.0000 0.60500  0.65950  0.01040  Biso   1.000  H
  H98      1.0000 0.89500  0.15950  0.48960  Biso   1.000  H
  H99      1.0000 0.39500  0.34050  0.98960  Biso   1.000  H
  H100     1.0000 0.10500  0.84050  0.51040  Biso   1.000  H
  C65      1.0000 0.56170  0.56670  0.08080  Biso   1.000  C
  C66      1.0000 0.93830  0.06670  0.41920  Biso   1.000  C
  C67      1.0000 0.43830  0.43330  0.91920  Biso   1.000  C
  C68      1.0000 0.06170  0.93330  0.58080  Biso   1.000  C
  C69      1.0000 0.31400  0.50810  0.30770  Biso   1.000  C
  C70      1.0000 0.18600  0.00810  0.19230  Biso   1.000  C
  C71      1.0000 0.68600  0.49190  0.69230  Biso   1.000  C
  C72      1.0000 0.81400  0.99190  0.80770  Biso   1.000  C
  H101     1.0000 0.24270  0.49410  0.27700  Biso   1.000  H
  H102     1.0000 0.25730  0.99410  0.22300  Biso   1.000  H
  H103     1.0000 0.75730  0.50590  0.72300  Biso   1.000  H
  H104     1.0000 0.74270  0.00590  0.77700  Biso   1.000  H
  C73      1.0000 0.49460  0.50920  0.35610  Biso   1.000  C
  C74      1.0000 0.00540  0.00920  0.14390  Biso   1.000  C
  C75      1.0000 0.50540  0.49080  0.64390  Biso   1.000  C
  C76      1.0000 0.99460  0.99080  0.85610  Biso   1.000  C
  C77      1.0000 0.60810  0.49480  0.37370  Biso   1.000  C
  C78      1.0000 0.89190  0.99480  0.12630  Biso   1.000  C
  C79      1.0000 0.39190  0.50520  0.62630  Biso   1.000  C
  C80      1.0000 0.10810  0.00520  0.87370  Biso   1.000  C
  H105     1.0000 0.64000  0.45480  0.34470  Biso   1.000  H
  H106     1.0000 0.86000  0.95480  0.15530  Biso   1.000  H
  H107     1.0000 0.36000  0.54520  0.65530  Biso   1.000  H
  H108     1.0000 0.14000  0.04520  0.84470  Biso   1.000  H
  C81      1.0000 0.67370  0.54290  0.43720  Biso   1.000  C
  C82      1.0000 0.82630  0.04290  0.06280  Biso   1.000  C
  C83      1.0000 0.32630  0.45710  0.56280  Biso   1.000  C
  C84      1.0000 0.17370  0.95710  0.93720  Biso   1.000  C
  H109     1.0000 0.75120  0.53430  0.45110  Biso   1.000  H
  H110     1.0000 0.74880  0.03430  0.04890  Biso   1.000  H
  H111     1.0000 0.24880  0.46570  0.54890  Biso   1.000  H
  H112     1.0000 0.25120  0.96570  0.95110  Biso   1.000  H
  C85      1.0000 0.62760  0.60270  0.48010  Biso   1.000  C
  C86      1.0000 0.87240  0.10270  0.01990  Biso   1.000  C
  C87      1.0000 0.37240  0.39730  0.51990  Biso   1.000  C
  C88      1.0000 0.12760  0.89730  0.98010  Biso   1.000  C
  H113     1.0000 0.67470  0.63430  0.52120  Biso   1.000  H
  H114     1.0000 0.82530  0.13430  0.97880  Biso   1.000  H
  H115     1.0000 0.32530  0.36570  0.47880  Biso   1.000  H
  H116     1.0000 0.17470  0.86570  0.02120  Biso   1.000  H
  C89      1.0000 0.51310  0.61680  0.46340  Biso   1.000  C
  C90      1.0000 0.98690  0.11680  0.03660  Biso   1.000  C
  C91      1.0000 0.48690  0.38320  0.53660  Biso   1.000  C
  C92      1.0000 0.01310  0.88320  0.96340  Biso   1.000  C
  H117     1.0000 0.48150  0.65630  0.49330  Biso   1.000  H
  H118     1.0000 0.01850  0.15630  0.00670  Biso   1.000  H
  H119     1.0000 0.51850  0.34370  0.50670  Biso   1.000  H
  H120     1.0000 0.98150  0.84370  0.99330  Biso   1.000  H
  C93      1.0000 0.44750  0.56960  0.40020  Biso   1.000  C
  C94      1.0000 0.05250  0.06960  0.09980  Biso   1.000  C
  C95      1.0000 0.55250  0.43040  0.59980  Biso   1.000  C
  C96      1.0000 0.94750  0.93040  0.90020  Biso   1.000  C
  C97      1.0000 0.53810  0.96070  0.21960  Biso   1.000  C
  C98      1.0000 0.96190  0.46070  0.28040  Biso   1.000  C
  C99      1.0000 0.46190  0.03930  0.78040  Biso   1.000  C
  C100     1.0000 0.03810  0.53930  0.71960  Biso   1.000  C
  H121     1.0000 0.60300  0.95650  0.26170  Biso   1.000  H
  H122     1.0000 0.89700  0.45650  0.23830  Biso   1.000  H
  H123     1.0000 0.39700  0.04350  0.73830  Biso   1.000  H
  H124     1.0000 0.10300  0.54350  0.76170  Biso   1.000  H
  C101     1.0000 0.43640  0.92750  0.08090  Biso   1.000  C
  C102     1.0000 0.06360  0.42750  0.41910  Biso   1.000  C
  C103     1.0000 0.56360  0.07250  0.91910  Biso   1.000  C
  C104     1.0000 0.93640  0.57250  0.58090  Biso   1.000  C
  H125     1.0000 0.41200  0.98490  0.07270  Biso   1.000  H
  H126     1.0000 0.08800  0.48490  0.42730  Biso   1.000  H
  H127     1.0000 0.58800  0.01510  0.92730  Biso   1.000  H
  H128     1.0000 0.91200  0.51510  0.57270  Biso   1.000  H
  H129     1.0000 0.37730  0.89420  0.09480  Biso   1.000  H
  H130     1.0000 0.12270  0.39420  0.40520  Biso   1.000  H
  H131     1.0000 0.62270  0.10580  0.90520  Biso   1.000  H
  H132     1.0000 0.87730  0.60580  0.59480  Biso   1.000  H
  H133     1.0000 0.45390  0.90630  0.03060  Biso   1.000  H
  H134     1.0000 0.04610  0.40630  0.46940  Biso   1.000  H
  H135     1.0000 0.54610  0.09370  0.96940  Biso   1.000  H
  H136     1.0000 0.95390  0.59370  0.53060  Biso   1.000  H
  C105     1.0000 0.62560  0.87500  0.13090  Biso   1.000  C
  C106     1.0000 0.87440  0.37500  0.36910  Biso   1.000  C
  C107     1.0000 0.37440  0.12500  0.86910  Biso   1.000  C
  C108     1.0000 0.12560  0.62500  0.63090  Biso   1.000  C
  H137     1.0000 0.69110  0.88440  0.17470  Biso   1.000  H
  H138     1.0000 0.80890  0.38440  0.32530  Biso   1.000  H
  H139     1.0000 0.30890  0.11560  0.82530  Biso   1.000  H
  H140     1.0000 0.19110  0.61560  0.67470  Biso   1.000  H
  H141     1.0000 0.64090  0.89190  0.07840  Biso   1.000  H
  H142     1.0000 0.85910  0.39190  0.42160  Biso   1.000  H
  H143     1.0000 0.35910  0.10810  0.92160  Biso   1.000  H
  H144     1.0000 0.14090  0.60810  0.57840  Biso   1.000  H
  H145     1.0000 0.60640  0.81630  0.12870  Biso   1.000  H
  H146     1.0000 0.89360  0.31630  0.37130  Biso   1.000  H
  H147     1.0000 0.39360  0.18370  0.87130  Biso   1.000  H
  H148     1.0000 0.10640  0.68370  0.62870  Biso   1.000  H
