data_image0
_cell_length_a       8.5205
_cell_length_b       8.6624
_cell_length_c       9.4999
_cell_angle_alpha    90.386
_cell_angle_beta     112.687
_cell_angle_gamma    116.261

_symmetry_space_group_name_H-M    "P 1"
_symmetry_int_tables_number       1

loop_
  _symmetry_equiv_pos_as_xyz
  'x, y, z'

loop_
  _atom_site_label
  _atom_site_occupancy
  _atom_site_fract_x
  _atom_site_fract_y
  _atom_site_fract_z
  _atom_site_thermal_displace_type
  _atom_site_B_iso_or_equiv
  _atom_site_type_symbol
  Cu1      1.0000 0.18313  0.18435  0.06003  Biso   1.000  Cu
  Cu2      1.0000 0.81687  0.81565  0.93997  Biso   1.000  Cu
  Cu3      1.0000 0.50000  0.50000  0.00000  Biso   1.000  Cu
  C1       1.0000 0.78100  0.13530  0.23600  Biso   1.000  C
  C2       1.0000 0.21900  0.86470  0.76400  Biso   1.000  C
  H1       1.0000 0.89660  0.18390  0.21990  Biso   1.000  H
  H2       1.0000 0.10340  0.81610  0.78010  Biso   1.000  H
  H3       1.0000 0.81110  0.18930  0.33820  Biso   1.000  H
  H4       1.0000 0.18890  0.81070  0.66180  Biso   1.000  H
  H5       1.0000 0.68540  0.15770  0.15860  Biso   1.000  H
  H6       1.0000 0.31460  0.84230  0.84140  Biso   1.000  H
  C3       1.0000 0.47610  0.85940  0.23950  Biso   1.000  C
  C4       1.0000 0.52390  0.14060  0.76050  Biso   1.000  C
  H7       1.0000 0.40490  0.90540  0.16430  Biso   1.000  H
  H8       1.0000 0.59510  0.09460  0.83570  Biso   1.000  H
  H9       1.0000 0.50990  0.91320  0.34290  Biso   1.000  H
  H10      1.0000 0.49010  0.08680  0.65710  Biso   1.000  H
  H11      1.0000 0.39740  0.73410  0.22180  Biso   1.000  H
  H12      1.0000 0.60260  0.26590  0.77820  Biso   1.000  H
  C5       1.0000 0.29790  0.53650  0.52290  Biso   1.000  C
  C6       1.0000 0.70210  0.46350  0.47710  Biso   1.000  C
  H13      1.0000 0.28790  0.43300  0.47410  Biso   1.000  H
  H14      1.0000 0.71210  0.56700  0.52590  Biso   1.000  H
  H15      1.0000 0.34580  0.63180  0.47360  Biso   1.000  H
  H16      1.0000 0.65420  0.36820  0.52640  Biso   1.000  H
  H17      1.0000 0.17220  0.51300  0.51210  Biso   1.000  H
  H18      1.0000 0.82780  0.48700  0.48790  Biso   1.000  H
  C7       1.0000 0.43500  0.58600  0.69290  Biso   1.000  C
  C8       1.0000 0.56500  0.41400  0.30710  Biso   1.000  C
  N1       1.0000 0.92880  0.04490  0.87610  Biso   1.000  N
  N2       1.0000 0.07120  0.95510  0.12390  Biso   1.000  N
  N3       1.0000 0.87600  0.06490  0.74220  Biso   1.000  N
  N4       1.0000 0.12400  0.93510  0.25780  Biso   1.000  N
  N5       1.0000 0.82440  0.08290  0.61940  Biso   1.000  N
  N6       1.0000 0.17560  0.91710  0.38060  Biso   1.000  N
  N7       1.0000 0.24600  0.41830  0.00890  Biso   1.000  N
  N8       1.0000 0.75400  0.58170  0.99110  Biso   1.000  N
  N9       1.0000 0.12320  0.44960  0.91750  Biso   1.000  N
  N10      1.0000 0.87680  0.55040  0.08250  Biso   1.000  N
  N11      1.0000 0.00950  0.48160  0.83510  Biso   1.000  N
  N12      1.0000 0.99050  0.51840  0.16490  Biso   1.000  N
  O1       1.0000 0.60090  0.71710  0.73470  Biso   1.000  O
  O2       1.0000 0.39910  0.28290  0.26530  Biso   1.000  O
  O3       1.0000 0.37550  0.49280  0.77930  Biso   1.000  O
  O4       1.0000 0.62450  0.50720  0.22070  Biso   1.000  O
  O5       1.0000 0.61770  0.82950  0.04990  Biso   1.000  O
  O6       1.0000 0.38230  0.17050  0.95010  Biso   1.000  O
  S1       1.0000 0.68907  0.90584  0.22039  Biso   1.000  S
  S2       1.0000 0.31093  0.09416  0.77961  Biso   1.000  S
