data_image0
_cell_length_a       9.762
_cell_length_b       6.415
_cell_length_c       22.611
_cell_angle_alpha    90
_cell_angle_beta     94.353
_cell_angle_gamma    90

_symmetry_space_group_name_H-M    "P 1"
_symmetry_int_tables_number       1

loop_
  _symmetry_equiv_pos_as_xyz
  'x, y, z'

loop_
  _atom_site_label
  _atom_site_occupancy
  _atom_site_fract_x
  _atom_site_fract_y
  _atom_site_fract_z
  _atom_site_thermal_displace_type
  _atom_site_B_iso_or_equiv
  _atom_site_type_symbol
  Cu1      1.0000 0.76386  0.83895  0.18125  Biso   1.000  Cu
  Cu2      1.0000 0.73614  0.33895  0.31875  Biso   1.000  Cu
  Cu3      1.0000 0.23614  0.16105  0.81875  Biso   1.000  Cu
  Cu4      1.0000 0.26386  0.66105  0.68125  Biso   1.000  Cu
  Cl1      1.0000 0.87605  0.08051  0.24016  Biso   1.000  Cl
  Cl2      1.0000 0.62395  0.58051  0.25984  Biso   1.000  Cl
  Cl3      1.0000 0.12395  0.91949  0.75984  Biso   1.000  Cl
  Cl4      1.0000 0.37605  0.41949  0.74016  Biso   1.000  Cl
  O1       1.0000 0.17400  0.96700  0.95538  Biso   1.000  O
  O2       1.0000 0.32600  0.46700  0.54462  Biso   1.000  O
  O3       1.0000 0.82600  0.03300  0.04462  Biso   1.000  O
  O4       1.0000 0.67400  0.53300  0.45538  Biso   1.000  O
  O5       1.0000 0.10890  0.24640  0.99750  Biso   1.000  O
  O6       1.0000 0.39110  0.74640  0.50250  Biso   1.000  O
  O7       1.0000 0.89110  0.75360  0.00250  Biso   1.000  O
  O8       1.0000 0.60890  0.25360  0.49750  Biso   1.000  O
  O9       1.0000 0.60760  0.02520  0.17348  Biso   1.000  O
  O10      1.0000 0.89240  0.52520  0.32652  Biso   1.000  O
  O11      1.0000 0.39240  0.97480  0.82652  Biso   1.000  O
  O12      1.0000 0.10760  0.47480  0.67348  Biso   1.000  O
  N1       1.0000 0.18500  0.09620  0.99489  Biso   1.000  N
  N2       1.0000 0.31500  0.59620  0.50511  Biso   1.000  N
  N3       1.0000 0.81500  0.90380  0.00511  Biso   1.000  N
  N4       1.0000 0.68500  0.40380  0.49489  Biso   1.000  N
  N5       1.0000 0.67710  0.65470  0.11980  Biso   1.000  N
  N6       1.0000 0.82290  0.15470  0.38020  Biso   1.000  N
  N7       1.0000 0.32290  0.34530  0.88020  Biso   1.000  N
  N8       1.0000 0.17710  0.84530  0.61980  Biso   1.000  N
  N9       1.0000 0.91880  0.62300  0.18510  Biso   1.000  N
  N10      1.0000 0.58120  0.12300  0.31490  Biso   1.000  N
  N11      1.0000 0.08120  0.37700  0.81490  Biso   1.000  N
  N12      1.0000 0.41880  0.87700  0.68510  Biso   1.000  N
  C1       1.0000 0.48740  0.87880  0.08619  Biso   1.000  C
  C2       1.0000 0.01260  0.37880  0.41381  Biso   1.000  C
  C3       1.0000 0.51260  0.12120  0.91381  Biso   1.000  C
  C4       1.0000 0.98740  0.62120  0.58619  Biso   1.000  C
  C5       1.0000 0.51120  0.03510  0.13091  Biso   1.000  C
  C6       1.0000 0.98880  0.53510  0.36909  Biso   1.000  C
  C7       1.0000 0.48880  0.96490  0.86909  Biso   1.000  C
  C8       1.0000 0.01120  0.46490  0.63091  Biso   1.000  C
  C9       1.0000 0.42350  0.21270  0.12726  Biso   1.000  C
  C10      1.0000 0.07650  0.71270  0.37274  Biso   1.000  C
  C11      1.0000 0.57650  0.78730  0.87274  Biso   1.000  C
  C12      1.0000 0.92350  0.28730  0.62726  Biso   1.000  C
  H1       1.0000 0.43720  0.31830  0.15530  Biso   1.000  H
  H2       1.0000 0.06280  0.81830  0.34470  Biso   1.000  H
  H3       1.0000 0.56280  0.68170  0.84470  Biso   1.000  H
  H4       1.0000 0.93720  0.18170  0.65530  Biso   1.000  H
  C13      1.0000 0.31910  0.23190  0.08343  Biso   1.000  C
  C14      1.0000 0.18090  0.73190  0.41657  Biso   1.000  C
  C15      1.0000 0.68090  0.76810  0.91657  Biso   1.000  C
  C16      1.0000 0.81910  0.26810  0.58343  Biso   1.000  C
  H5       1.0000 0.26290  0.34900  0.08210  Biso   1.000  H
  H6       1.0000 0.23710  0.84900  0.41790  Biso   1.000  H
  H7       1.0000 0.73710  0.65100  0.91790  Biso   1.000  H
  H8       1.0000 0.76290  0.15100  0.58210  Biso   1.000  H
  C17      1.0000 0.29740  0.07620  0.04096  Biso   1.000  C
  C18      1.0000 0.20260  0.57620  0.45904  Biso   1.000  C
  C19      1.0000 0.70260  0.92380  0.95904  Biso   1.000  C
  C20      1.0000 0.79740  0.42380  0.54096  Biso   1.000  C
  C21      1.0000 0.37920  0.90250  0.04230  Biso   1.000  C
  C22      1.0000 0.12080  0.40250  0.45770  Biso   1.000  C
  C23      1.0000 0.62080  0.09750  0.95770  Biso   1.000  C
  C24      1.0000 0.87920  0.59750  0.54230  Biso   1.000  C
  H9       1.0000 0.36270  0.79910  0.01380  Biso   1.000  H
  H10      1.0000 0.13730  0.29910  0.48620  Biso   1.000  H
  H11      1.0000 0.63730  0.20090  0.98620  Biso   1.000  H
  H12      1.0000 0.86270  0.70090  0.51380  Biso   1.000  H
  C25      1.0000 0.56950  0.69200  0.08538  Biso   1.000  C
  C26      1.0000 0.93050  0.19200  0.41462  Biso   1.000  C
  C27      1.0000 0.43050  0.30800  0.91462  Biso   1.000  C
  C28      1.0000 0.06950  0.80800  0.58538  Biso   1.000  C
  H13      1.0000 0.54220  0.59050  0.05760  Biso   1.000  H
  H14      1.0000 0.95780  0.09050  0.44240  Biso   1.000  H
  H15      1.0000 0.45780  0.40950  0.94240  Biso   1.000  H
  H16      1.0000 0.04220  0.90950  0.55760  Biso   1.000  H
  C29      1.0000 0.74630  0.45340  0.11834  Biso   1.000  C
  C30      1.0000 0.75370  0.95340  0.38166  Biso   1.000  C
  C31      1.0000 0.25370  0.54660  0.88166  Biso   1.000  C
  C32      1.0000 0.24630  0.04660  0.61834  Biso   1.000  C
  H17      1.0000 0.72860  0.38950  0.07960  Biso   1.000  H
  H18      1.0000 0.77140  0.88950  0.42040  Biso   1.000  H
  H19      1.0000 0.27140  0.61050  0.92040  Biso   1.000  H
  H20      1.0000 0.22860  0.11050  0.57960  Biso   1.000  H
  H21      1.0000 0.71240  0.36090  0.14790  Biso   1.000  H
  H22      1.0000 0.78760  0.86090  0.35210  Biso   1.000  H
  H23      1.0000 0.28760  0.63910  0.85210  Biso   1.000  H
  H24      1.0000 0.21240  0.13910  0.64790  Biso   1.000  H
  C33      1.0000 0.89870  0.48890  0.13117  Biso   1.000  C
  C34      1.0000 0.60130  0.98890  0.36883  Biso   1.000  C
  C35      1.0000 0.10130  0.51110  0.86883  Biso   1.000  C
  C36      1.0000 0.39870  0.01110  0.63117  Biso   1.000  C
  H25      1.0000 0.94550  0.35670  0.13800  Biso   1.000  H
  H26      1.0000 0.55450  0.85670  0.36200  Biso   1.000  H
  H27      1.0000 0.05450  0.64330  0.86200  Biso   1.000  H
  H28      1.0000 0.44550  0.14330  0.63800  Biso   1.000  H
  H29      1.0000 0.93630  0.55710  0.09770  Biso   1.000  H
  H30      1.0000 0.56370  0.05710  0.40230  Biso   1.000  H
  H31      1.0000 0.06370  0.44290  0.90230  Biso   1.000  H
  H32      1.0000 0.43630  0.94290  0.59770  Biso   1.000  H
  C37      1.0000 0.06530  0.69240  0.19822  Biso   1.000  C
  C38      1.0000 0.43470  0.19240  0.30178  Biso   1.000  C
  C39      1.0000 0.93470  0.30760  0.80178  Biso   1.000  C
  C40      1.0000 0.56530  0.80760  0.69822  Biso   1.000  C
  H33      1.0000 0.06720  0.78270  0.23320  Biso   1.000  H
  H34      1.0000 0.43280  0.28270  0.26680  Biso   1.000  H
  H35      1.0000 0.93280  0.21730  0.76680  Biso   1.000  H
  H36      1.0000 0.56720  0.71730  0.73320  Biso   1.000  H
  C41      1.0000 0.11400  0.82170  0.14826  Biso   1.000  C
  C42      1.0000 0.38600  0.32170  0.35174  Biso   1.000  C
  C43      1.0000 0.88600  0.17830  0.85174  Biso   1.000  C
  C44      1.0000 0.61400  0.67830  0.64826  Biso   1.000  C
  H37      1.0000 0.12540  0.73390  0.11460  Biso   1.000  H
  H38      1.0000 0.37460  0.23390  0.38540  Biso   1.000  H
  H39      1.0000 0.87460  0.26610  0.88540  Biso   1.000  H
  H40      1.0000 0.62540  0.76610  0.61460  Biso   1.000  H
  H41      1.0000 0.20030  0.88560  0.16080  Biso   1.000  H
  H42      1.0000 0.29970  0.38560  0.33920  Biso   1.000  H
  H43      1.0000 0.79970  0.11440  0.83920  Biso   1.000  H
  H44      1.0000 0.70030  0.61440  0.66080  Biso   1.000  H
  H45      1.0000 0.04740  0.92790  0.13760  Biso   1.000  H
  H46      1.0000 0.45260  0.42790  0.36240  Biso   1.000  H
  H47      1.0000 0.95260  0.07210  0.86240  Biso   1.000  H
  H48      1.0000 0.54740  0.57210  0.63760  Biso   1.000  H
  C45      1.0000 0.15840  0.50730  0.21439  Biso   1.000  C
  C46      1.0000 0.34160  0.00730  0.28561  Biso   1.000  C
  C47      1.0000 0.84160  0.49270  0.78561  Biso   1.000  C
  C48      1.0000 0.65840  0.99270  0.71439  Biso   1.000  C
  H49      1.0000 0.16180  0.41740  0.18060  Biso   1.000  H
  H50      1.0000 0.33820  0.91740  0.31940  Biso   1.000  H
  H51      1.0000 0.83820  0.58260  0.81940  Biso   1.000  H
  H52      1.0000 0.66180  0.08260  0.68060  Biso   1.000  H
  H53      1.0000 0.12290  0.43140  0.24650  Biso   1.000  H
  H54      1.0000 0.37710  0.93140  0.25350  Biso   1.000  H
  H55      1.0000 0.87710  0.56860  0.75350  Biso   1.000  H
  H56      1.0000 0.62290  0.06860  0.74650  Biso   1.000  H
  H57      1.0000 0.24920  0.55630  0.22630  Biso   1.000  H
  H58      1.0000 0.25080  0.05630  0.27370  Biso   1.000  H
  H59      1.0000 0.75080  0.44370  0.77370  Biso   1.000  H
  H60      1.0000 0.74920  0.94370  0.72630  Biso   1.000  H
  H61      1.0000 0.89300  0.54600  0.21590  Biso   1.000  H
  H62      1.0000 0.60700  0.04600  0.28410  Biso   1.000  H
  H63      1.0000 0.10700  0.45400  0.78410  Biso   1.000  H
  H64      1.0000 0.39300  0.95400  0.71590  Biso   1.000  H
