data_image0
_cell_length_a       8.023
_cell_length_b       22.903
_cell_length_c       11.473
_cell_angle_alpha    90
_cell_angle_beta     97.128
_cell_angle_gamma    90

_symmetry_space_group_name_H-M    "P 1"
_symmetry_int_tables_number       1

loop_
  _symmetry_equiv_pos_as_xyz
  'x, y, z'

loop_
  _atom_site_label
  _atom_site_occupancy
  _atom_site_fract_x
  _atom_site_fract_y
  _atom_site_fract_z
  _atom_site_thermal_displace_type
  _atom_site_B_iso_or_equiv
  _atom_site_type_symbol
  Cu1      1.0000 0.54119  0.23374  0.83422  Biso   1.000  Cu
  Cu2      1.0000 0.95881  0.73374  0.66578  Biso   1.000  Cu
  Cu3      1.0000 0.45881  0.76626  0.16578  Biso   1.000  Cu
  Cu4      1.0000 0.04119  0.26627  0.33422  Biso   1.000  Cu
  O1       1.0000 0.66780  0.17280  0.76335  Biso   1.000  O
  O2       1.0000 0.83220  0.67280  0.73665  Biso   1.000  O
  O3       1.0000 0.33220  0.82720  0.23665  Biso   1.000  O
  O4       1.0000 0.16780  0.32720  0.26335  Biso   1.000  O
  O5       1.0000 0.03830  0.98884  0.86890  Biso   1.000  O
  O6       1.0000 0.46170  0.48884  0.63110  Biso   1.000  O
  O7       1.0000 0.96170  0.01116  0.13110  Biso   1.000  O
  O8       1.0000 0.53830  0.51116  0.36890  Biso   1.000  O
  O9       1.0000 0.92810  0.22272  0.57311  Biso   1.000  O
  O10      1.0000 0.57190  0.72272  0.92689  Biso   1.000  O
  O11      1.0000 0.07190  0.77728  0.42689  Biso   1.000  O
  O12      1.0000 0.42810  0.27728  0.07311  Biso   1.000  O
  O13      1.0000 0.89990  0.20366  0.38014  Biso   1.000  O
  O14      1.0000 0.60010  0.70366  0.11986  Biso   1.000  O
  O15      1.0000 0.10010  0.79634  0.61986  Biso   1.000  O
  O16      1.0000 0.39990  0.29634  0.88014  Biso   1.000  O
  O17      1.0000 0.71080  0.21483  0.04450  Biso   1.000  O
  O18      1.0000 0.78920  0.71483  0.45550  Biso   1.000  O
  O19      1.0000 0.28920  0.78517  0.95550  Biso   1.000  O
  O20      1.0000 0.21080  0.28517  0.54450  Biso   1.000  O
  H1       1.0000 0.62720  0.23540  0.06930  Biso   1.000  H
  H2       1.0000 0.87280  0.73540  0.43070  Biso   1.000  H
  H3       1.0000 0.37280  0.76460  0.93070  Biso   1.000  H
  H4       1.0000 0.12720  0.26460  0.56930  Biso   1.000  H
  H5       1.0000 0.80190  0.23890  0.06440  Biso   1.000  H
  H6       1.0000 0.69810  0.73890  0.43560  Biso   1.000  H
  H7       1.0000 0.19810  0.76110  0.93560  Biso   1.000  H
  H8       1.0000 0.30190  0.26110  0.56440  Biso   1.000  H
  O21      1.0000 0.52130  0.20936  0.60265  Biso   1.000  O
  O22      1.0000 0.97870  0.70936  0.89735  Biso   1.000  O
  O23      1.0000 0.47870  0.79064  0.39735  Biso   1.000  O
  O24      1.0000 0.02130  0.29064  0.10265  Biso   1.000  O
  O25      1.0000 0.97300  0.47765  0.67200  Biso   1.000  O
  O26      1.0000 0.52700  0.97765  0.82800  Biso   1.000  O
  O27      1.0000 0.02700  0.52235  0.32800  Biso   1.000  O
  O28      1.0000 0.47300  0.02235  0.17200  Biso   1.000  O
  N1       1.0000 0.83160  0.05588  0.85620  Biso   1.000  N
  N2       1.0000 0.66840  0.55588  0.64380  Biso   1.000  N
  N3       1.0000 0.16840  0.94412  0.14380  Biso   1.000  N
  N4       1.0000 0.33160  0.44412  0.35620  Biso   1.000  N
  H9       1.0000 0.75460  0.03000  0.85880  Biso   1.000  H
  H10      1.0000 0.74540  0.53000  0.64120  Biso   1.000  H
  H11      1.0000 0.24540  0.97000  0.14120  Biso   1.000  H
  H12      1.0000 0.25460  0.47000  0.35880  Biso   1.000  H
  H13      1.0000 0.80520  0.09230  0.85050  Biso   1.000  H
  H14      1.0000 0.69480  0.59230  0.64950  Biso   1.000  H
  H15      1.0000 0.19480  0.90770  0.14950  Biso   1.000  H
  H16      1.0000 0.30520  0.40770  0.35050  Biso   1.000  H
  N5       1.0000 0.70240  0.29483  0.79177  Biso   1.000  N
  N6       1.0000 0.79760  0.79483  0.70823  Biso   1.000  N
  N7       1.0000 0.29760  0.70517  0.20823  Biso   1.000  N
  N8       1.0000 0.20240  0.20517  0.29177  Biso   1.000  N
  N9       1.0000 0.17500  0.41113  0.65430  Biso   1.000  N
  N10      1.0000 0.32500  0.91113  0.84570  Biso   1.000  N
  N11      1.0000 0.82500  0.58887  0.34570  Biso   1.000  N
  N12      1.0000 0.67500  0.08887  0.15430  Biso   1.000  N
  H17      1.0000 0.24180  0.43670  0.63090  Biso   1.000  H
  H18      1.0000 0.25820  0.93670  0.86910  Biso   1.000  H
  H19      1.0000 0.75820  0.56330  0.36910  Biso   1.000  H
  H20      1.0000 0.74180  0.06330  0.13090  Biso   1.000  H
  H21      1.0000 0.20550  0.37520  0.66120  Biso   1.000  H
  H22      1.0000 0.29450  0.87520  0.83880  Biso   1.000  H
  H23      1.0000 0.79450  0.62480  0.33880  Biso   1.000  H
  H24      1.0000 0.70550  0.12480  0.16120  Biso   1.000  H
  N13      1.0000 0.36420  0.17358  0.85260  Biso   1.000  N
  N14      1.0000 0.13580  0.67358  0.64740  Biso   1.000  N
  N15      1.0000 0.63580  0.82642  0.14740  Biso   1.000  N
  N16      1.0000 0.86420  0.32642  0.35260  Biso   1.000  N
  C1       1.0000 0.62090  0.17375  0.65160  Biso   1.000  C
  C2       1.0000 0.87910  0.67375  0.84840  Biso   1.000  C
  C3       1.0000 0.37910  0.82625  0.34840  Biso   1.000  C
  C4       1.0000 0.12090  0.32625  0.15160  Biso   1.000  C
  C5       1.0000 0.69080  0.02106  0.54490  Biso   1.000  C
  C6       1.0000 0.80920  0.52106  0.95510  Biso   1.000  C
  C7       1.0000 0.30920  0.97894  0.45510  Biso   1.000  C
  C8       1.0000 0.19080  0.47894  0.04490  Biso   1.000  C
  H25      1.0000 0.65500  0.98350  0.56040  Biso   1.000  H
  H26      1.0000 0.84500  0.48350  0.93960  Biso   1.000  H
  H27      1.0000 0.34500  0.01650  0.43960  Biso   1.000  H
  H28      1.0000 0.15500  0.51650  0.06040  Biso   1.000  H
  C9       1.0000 0.74090  0.38399  0.69100  Biso   1.000  C
  C10      1.0000 0.75910  0.88399  0.80900  Biso   1.000  C
  C11      1.0000 0.25910  0.61601  0.30900  Biso   1.000  C
  C12      1.0000 0.24090  0.11601  0.19100  Biso   1.000  C
  H29      1.0000 0.69360  0.41580  0.64870  Biso   1.000  H
  H30      1.0000 0.80640  0.91580  0.85130  Biso   1.000  H
  H31      1.0000 0.30640  0.58420  0.35130  Biso   1.000  H
  H32      1.0000 0.19360  0.08420  0.14870  Biso   1.000  H
  C13      1.0000 0.02430  0.42715  0.67990  Biso   1.000  C
  C14      1.0000 0.47570  0.92715  0.82010  Biso   1.000  C
  C15      1.0000 0.97570  0.57285  0.32010  Biso   1.000  C
  C16      1.0000 0.52430  0.07285  0.17990  Biso   1.000  C
  C17      1.0000 0.86770  0.29098  0.81850  Biso   1.000  C
  C18      1.0000 0.63230  0.79098  0.68150  Biso   1.000  C
  C19      1.0000 0.13230  0.70902  0.18150  Biso   1.000  C
  C20      1.0000 0.36770  0.20902  0.31850  Biso   1.000  C
  H33      1.0000 0.91130  0.25940  0.86340  Biso   1.000  H
  H34      1.0000 0.58870  0.75940  0.63660  Biso   1.000  H
  H35      1.0000 0.08870  0.74060  0.13660  Biso   1.000  H
  H36      1.0000 0.41130  0.24060  0.36340  Biso   1.000  H
  C21      1.0000 0.91410  0.37930  0.71790  Biso   1.000  C
  C22      1.0000 0.58590  0.87930  0.78210  Biso   1.000  C
  C23      1.0000 0.08590  0.62070  0.28210  Biso   1.000  C
  C24      1.0000 0.41410  0.12070  0.21790  Biso   1.000  C
  C25      1.0000 0.07950  0.14272  0.81040  Biso   1.000  C
  C26      1.0000 0.42050  0.64272  0.68960  Biso   1.000  C
  C27      1.0000 0.92050  0.85728  0.18960  Biso   1.000  C
  C28      1.0000 0.57950  0.35728  0.31040  Biso   1.000  C
  H37      1.0000 0.96970  0.15160  0.77960  Biso   1.000  H
  H38      1.0000 0.53030  0.65160  0.72040  Biso   1.000  H
  H39      1.0000 0.03030  0.84840  0.22040  Biso   1.000  H
  H40      1.0000 0.46970  0.34840  0.27960  Biso   1.000  H
  C29      1.0000 0.68980  0.12431  0.58490  Biso   1.000  C
  C30      1.0000 0.81020  0.62431  0.91510  Biso   1.000  C
  C31      1.0000 0.31020  0.87569  0.41510  Biso   1.000  C
  C32      1.0000 0.18980  0.37569  0.08490  Biso   1.000  C
  C33      1.0000 0.85770  0.08515  0.44310  Biso   1.000  C
  C34      1.0000 0.64230  0.58515  0.05690  Biso   1.000  C
  C35      1.0000 0.14230  0.91485  0.55690  Biso   1.000  C
  C36      1.0000 0.35770  0.41485  0.94310  Biso   1.000  C
  H41      1.0000 0.93140  0.09080  0.38760  Biso   1.000  H
  H42      1.0000 0.56860  0.59080  0.11240  Biso   1.000  H
  H43      1.0000 0.06860  0.90920  0.61240  Biso   1.000  H
  H44      1.0000 0.43140  0.40920  0.88760  Biso   1.000  H
  C37      1.0000 0.11880  0.08828  0.85750  Biso   1.000  C
  C38      1.0000 0.38120  0.58828  0.64250  Biso   1.000  C
  C39      1.0000 0.88120  0.91172  0.14250  Biso   1.000  C
  C40      1.0000 0.61880  0.41172  0.35750  Biso   1.000  C
  C41      1.0000 0.63310  0.06837  0.60350  Biso   1.000  C
  C42      1.0000 0.86690  0.56837  0.89650  Biso   1.000  C
  C43      1.0000 0.36690  0.93163  0.39650  Biso   1.000  C
  C44      1.0000 0.13310  0.43163  0.10350  Biso   1.000  C
  H45      1.0000 0.55520  0.06250  0.65600  Biso   1.000  H
  H46      1.0000 0.94480  0.56250  0.84400  Biso   1.000  H
  H47      1.0000 0.44480  0.93750  0.34400  Biso   1.000  H
  H48      1.0000 0.05520  0.43750  0.15600  Biso   1.000  H
  C45      1.0000 0.99150  0.03971  0.86080  Biso   1.000  C
  C46      1.0000 0.50850  0.53971  0.63920  Biso   1.000  C
  C47      1.0000 0.00850  0.96029  0.13920  Biso   1.000  C
  C48      1.0000 0.49150  0.46029  0.36080  Biso   1.000  C
  C49      1.0000 0.80550  0.13276  0.50480  Biso   1.000  C
  C50      1.0000 0.69450  0.63276  0.99520  Biso   1.000  C
  C51      1.0000 0.19450  0.86724  0.49520  Biso   1.000  C
  C52      1.0000 0.30550  0.36724  0.00480  Biso   1.000  C
  C53      1.0000 0.97820  0.33170  0.78270  Biso   1.000  C
  C54      1.0000 0.52180  0.83170  0.71730  Biso   1.000  C
  C55      1.0000 0.02180  0.66830  0.21730  Biso   1.000  C
  C56      1.0000 0.47820  0.16830  0.28270  Biso   1.000  C
  H49      1.0000 0.09350  0.32710  0.80190  Biso   1.000  H
  H50      1.0000 0.40650  0.82710  0.69810  Biso   1.000  H
  H51      1.0000 0.90650  0.67290  0.19810  Biso   1.000  H
  H52      1.0000 0.59350  0.17290  0.30190  Biso   1.000  H
  C57      1.0000 0.28460  0.07746  0.90100  Biso   1.000  C
  C58      1.0000 0.21540  0.57746  0.59900  Biso   1.000  C
  C59      1.0000 0.71540  0.92254  0.09900  Biso   1.000  C
  C60      1.0000 0.78460  0.42254  0.40100  Biso   1.000  C
  H53      1.0000 0.31590  0.04120  0.93280  Biso   1.000  H
  H54      1.0000 0.18410  0.54120  0.56720  Biso   1.000  H
  H55      1.0000 0.68410  0.95880  0.06720  Biso   1.000  H
  H56      1.0000 0.81590  0.45880  0.43280  Biso   1.000  H
  C61      1.0000 0.40280  0.12067  0.89680  Biso   1.000  C
  C62      1.0000 0.09720  0.62067  0.60320  Biso   1.000  C
  C63      1.0000 0.59720  0.87933  0.10320  Biso   1.000  C
  C64      1.0000 0.90280  0.37933  0.39680  Biso   1.000  C
  H57      1.0000 0.51390  0.11270  0.92590  Biso   1.000  H
  H58      1.0000 0.98610  0.61270  0.57410  Biso   1.000  H
  H59      1.0000 0.48610  0.88730  0.07410  Biso   1.000  H
  H60      1.0000 0.01390  0.38730  0.42590  Biso   1.000  H
  C65      1.0000 0.88260  0.19152  0.48710  Biso   1.000  C
  C66      1.0000 0.61740  0.69152  0.01290  Biso   1.000  C
  C67      1.0000 0.11740  0.80848  0.51290  Biso   1.000  C
  C68      1.0000 0.38260  0.30848  0.98710  Biso   1.000  C
  C69      1.0000 0.20500  0.18376  0.80970  Biso   1.000  C
  C70      1.0000 0.29500  0.68376  0.69030  Biso   1.000  C
  C71      1.0000 0.79500  0.81624  0.19030  Biso   1.000  C
  C72      1.0000 0.70500  0.31624  0.30970  Biso   1.000  C
  H61      1.0000 0.17720  0.22030  0.77780  Biso   1.000  H
  H62      1.0000 0.32280  0.72030  0.72220  Biso   1.000  H
  H63      1.0000 0.82280  0.77970  0.22220  Biso   1.000  H
  H64      1.0000 0.67720  0.27970  0.27780  Biso   1.000  H
  C73      1.0000 0.64090  0.34095  0.72790  Biso   1.000  C
  C74      1.0000 0.85910  0.84095  0.77210  Biso   1.000  C
  C75      1.0000 0.35910  0.65905  0.27210  Biso   1.000  C
  C76      1.0000 0.14090  0.15905  0.22790  Biso   1.000  C
  H65      1.0000 0.52530  0.34380  0.70790  Biso   1.000  H
  H66      1.0000 0.97470  0.84380  0.79210  Biso   1.000  H
  H67      1.0000 0.47470  0.65620  0.29210  Biso   1.000  H
  H68      1.0000 0.02530  0.15620  0.20790  Biso   1.000  H
  C77      1.0000 0.80120  0.02959  0.46370  Biso   1.000  C
  C78      1.0000 0.69880  0.52959  0.03630  Biso   1.000  C
  C79      1.0000 0.19880  0.97041  0.53630  Biso   1.000  C
  C80      1.0000 0.30120  0.47041  0.96370  Biso   1.000  C
  H69      1.0000 0.83760  0.99800  0.42280  Biso   1.000  H
  H70      1.0000 0.66240  0.49800  0.07720  Biso   1.000  H
  H71      1.0000 0.16240  0.00200  0.57720  Biso   1.000  H
  H72      1.0000 0.33760  0.50200  0.92280  Biso   1.000  H
