data_image0
_cell_length_a       9.1181
_cell_length_b       9.3196
_cell_length_c       10.0531
_cell_angle_alpha    78.811
_cell_angle_beta     67.361
_cell_angle_gamma    69.402

_symmetry_space_group_name_H-M    "P 1"
_symmetry_int_tables_number       1

loop_
  _symmetry_equiv_pos_as_xyz
  'x, y, z'

loop_
  _atom_site_label
  _atom_site_occupancy
  _atom_site_fract_x
  _atom_site_fract_y
  _atom_site_fract_z
  _atom_site_thermal_displace_type
  _atom_site_B_iso_or_equiv
  _atom_site_type_symbol
  Cu1      1.0000 0.16678  0.38988  0.06421  Biso   1.000  Cu
  Cu2      1.0000 0.83322  0.61012  0.93579  Biso   1.000  Cu
  N1       1.0000 0.39430  0.30410  0.91100  Biso   1.000  N
  N2       1.0000 0.60570  0.69590  0.08900  Biso   1.000  N
  N3       1.0000 0.24440  0.57950  0.99520  Biso   1.000  N
  N4       1.0000 0.75560  0.42050  0.00480  Biso   1.000  N
  N5       1.0000 0.35100  0.83460  0.87840  Biso   1.000  N
  N6       1.0000 0.64900  0.16540  0.12160  Biso   1.000  N
  N7       1.0000 0.73950  0.66130  0.70480  Biso   1.000  N
  N8       1.0000 0.26050  0.33870  0.29520  Biso   1.000  N
  N9       1.0000 0.12570  0.19100  0.10810  Biso   1.000  N
  N10      1.0000 0.87430  0.80900  0.89190  Biso   1.000  N
  N11      1.0000 0.03270  0.14290  0.21260  Biso   1.000  N
  N12      1.0000 0.96730  0.85710  0.78740  Biso   1.000  N
  N13      1.0000 0.94780  0.08640  0.30920  Biso   1.000  N
  N14      1.0000 0.05220  0.91360  0.69080  Biso   1.000  N
  N15      1.0000 0.93940  0.51870  0.16860  Biso   1.000  N
  N16      1.0000 0.06060  0.48130  0.83140  Biso   1.000  N
  N17      1.0000 0.83550  0.47550  0.26940  Biso   1.000  N
  N18      1.0000 0.16450  0.52450  0.73060  Biso   1.000  N
  N19      1.0000 0.73070  0.44080  0.36590  Biso   1.000  N
  N20      1.0000 0.26930  0.55920  0.63410  Biso   1.000  N
  C1       1.0000 0.45680  0.15770  0.87390  Biso   1.000  C
  C2       1.0000 0.54320  0.84230  0.12610  Biso   1.000  C
  H1       1.0000 0.39970  0.08660  0.93030  Biso   1.000  H
  H2       1.0000 0.60030  0.91340  0.06970  Biso   1.000  H
  C3       1.0000 0.60060  0.10620  0.75720  Biso   1.000  C
  C4       1.0000 0.39940  0.89380  0.24280  Biso   1.000  C
  H3       1.0000 0.64210  0.00170  0.73470  Biso   1.000  H
  H4       1.0000 0.35790  0.99830  0.26530  Biso   1.000  H
  C5       1.0000 0.68220  0.21080  0.67400  Biso   1.000  C
  C6       1.0000 0.31780  0.78920  0.32600  Biso   1.000  C
  H5       1.0000 0.78000  0.17930  0.59220  Biso   1.000  H
  H6       1.0000 0.22000  0.82070  0.40780  Biso   1.000  H
  C7       1.0000 0.61970  0.36210  0.71150  Biso   1.000  C
  C8       1.0000 0.38030  0.63790  0.28850  Biso   1.000  C
  H7       1.0000 0.67500  0.43480  0.65580  Biso   1.000  H
  H8       1.0000 0.32500  0.56520  0.34420  Biso   1.000  H
  C9       1.0000 0.47510  0.40690  0.83130  Biso   1.000  C
  C10      1.0000 0.52490  0.59310  0.16870  Biso   1.000  C
  C11      1.0000 0.38970  0.56600  0.88150  Biso   1.000  C
  C12      1.0000 0.61030  0.43400  0.11850  Biso   1.000  C
  C13      1.0000 0.15490  0.71590  0.04900  Biso   1.000  C
  C14      1.0000 0.84510  0.28410  0.95100  Biso   1.000  C
  H9       1.0000 0.05250  0.72630  0.12750  Biso   1.000  H
  H10      1.0000 0.94750  0.27370  0.87250  Biso   1.000  H
  C15      1.0000 0.21040  0.84290  0.99120  Biso   1.000  C
  C16      1.0000 0.78960  0.15710  0.00880  Biso   1.000  C
  H11      1.0000 0.14660  0.93860  0.03310  Biso   1.000  H
  H12      1.0000 0.85340  0.06140  0.96690  Biso   1.000  H
  C17      1.0000 0.44100  0.69770  0.82250  Biso   1.000  C
  C18      1.0000 0.55900  0.30230  0.17750  Biso   1.000  C
  C19      1.0000 0.58920  0.70830  0.69030  Biso   1.000  C
  C20      1.0000 0.41080  0.29170  0.30970  Biso   1.000  C
  C21      1.0000 0.56100  0.77840  0.56340  Biso   1.000  C
  C22      1.0000 0.43900  0.22160  0.43660  Biso   1.000  C
  H13      1.0000 0.45260  0.80840  0.55760  Biso   1.000  H
  H14      1.0000 0.54740  0.19160  0.44240  Biso   1.000  H
  C23      1.0000 0.69340  0.80360  0.44610  Biso   1.000  C
  C24      1.0000 0.30660  0.19640  0.55390  Biso   1.000  C
  H15      1.0000 0.67770  0.85130  0.35800  Biso   1.000  H
  H16      1.0000 0.32230  0.14870  0.64200  Biso   1.000  H
  C25      1.0000 0.84880  0.75850  0.45850  Biso   1.000  C
  C26      1.0000 0.15120  0.24150  0.54150  Biso   1.000  C
  H17      1.0000 0.94160  0.77680  0.38010  Biso   1.000  H
  H18      1.0000 0.05840  0.22320  0.61990  Biso   1.000  H
  C27      1.0000 0.86660  0.68630  0.58740  Biso   1.000  C
  C28      1.0000 0.13340  0.31370  0.41260  Biso   1.000  C
  H19      1.0000 0.97500  0.65210  0.59390  Biso   1.000  H
  H20      1.0000 0.02500  0.34790  0.40610  Biso   1.000  H
