data_image0
_cell_length_a       9.2014
_cell_length_b       9.3636
_cell_length_c       10.0409
_cell_angle_alpha    77.672
_cell_angle_beta     67.122
_cell_angle_gamma    69.389

_symmetry_space_group_name_H-M    "P 1"
_symmetry_int_tables_number       1

loop_
  _symmetry_equiv_pos_as_xyz
  'x, y, z'

loop_
  _atom_site_label
  _atom_site_occupancy
  _atom_site_fract_x
  _atom_site_fract_y
  _atom_site_fract_z
  _atom_site_thermal_displace_type
  _atom_site_B_iso_or_equiv
  _atom_site_type_symbol
  Cu1      1.0000 0.16651  0.39265  0.06245  Biso   1.000  Cu
  Cu2      1.0000 0.83349  0.60735  0.93755  Biso   1.000  Cu
  O1       1.0000 0.94280  0.06660  0.29940  Biso   1.000  O
  O2       1.0000 0.05720  0.93340  0.70060  Biso   1.000  O
  O3       1.0000 0.72640  0.45550  0.37588  Biso   1.000  O
  O4       1.0000 0.27360  0.54450  0.62412  Biso   1.000  O
  N1       1.0000 0.39098  0.30731  0.91214  Biso   1.000  N
  N2       1.0000 0.60902  0.69269  0.08786  Biso   1.000  N
  N3       1.0000 0.24652  0.57968  0.99340  Biso   1.000  N
  N4       1.0000 0.75348  0.42032  0.00660  Biso   1.000  N
  N5       1.0000 0.35560  0.83340  0.87700  Biso   1.000  N
  N6       1.0000 0.64440  0.16660  0.12300  Biso   1.000  N
  N7       1.0000 0.73740  0.66250  0.70351  Biso   1.000  N
  N8       1.0000 0.26260  0.33750  0.29649  Biso   1.000  N
  N9       1.0000 0.11700  0.19880  0.12020  Biso   1.000  N
  N10      1.0000 0.88300  0.80120  0.87980  Biso   1.000  N
  N11      1.0000 0.94260  0.51590  0.17028  Biso   1.000  N
  N12      1.0000 0.05740  0.48410  0.82972  Biso   1.000  N
  C1       1.0000 0.44990  0.16240  0.87720  Biso   1.000  C
  C2       1.0000 0.55010  0.83760  0.12280  Biso   1.000  C
  H1       1.0000 0.39170  0.09190  0.93470  Biso   1.000  H
  H2       1.0000 0.60830  0.90810  0.06530  Biso   1.000  H
  C3       1.0000 0.59220  0.11130  0.76060  Biso   1.000  C
  C4       1.0000 0.40780  0.88870  0.23940  Biso   1.000  C
  H3       1.0000 0.63200  0.00740  0.73950  Biso   1.000  H
  H4       1.0000 0.36800  0.99260  0.26050  Biso   1.000  H
  C5       1.0000 0.67500  0.21510  0.67570  Biso   1.000  C
  C6       1.0000 0.32500  0.78490  0.32430  Biso   1.000  C
  H5       1.0000 0.77180  0.18370  0.59400  Biso   1.000  H
  H6       1.0000 0.22820  0.81630  0.40600  Biso   1.000  H
  C7       1.0000 0.61500  0.36610  0.71110  Biso   1.000  C
  C8       1.0000 0.38500  0.63390  0.28890  Biso   1.000  C
  H7       1.0000 0.67070  0.43860  0.65400  Biso   1.000  H
  H8       1.0000 0.32930  0.56140  0.34600  Biso   1.000  H
  C9       1.0000 0.47260  0.40960  0.83103  Biso   1.000  C
  C10      1.0000 0.52740  0.59040  0.16897  Biso   1.000  C
  C11      1.0000 0.39030  0.56650  0.88026  Biso   1.000  C
  C12      1.0000 0.60970  0.43350  0.11974  Biso   1.000  C
  C13      1.0000 0.15940  0.71440  0.04780  Biso   1.000  C
  C14      1.0000 0.84060  0.28560  0.95220  Biso   1.000  C
  H9       1.0000 0.05780  0.72400  0.12640  Biso   1.000  H
  H10      1.0000 0.94220  0.27600  0.87360  Biso   1.000  H
  C15      1.0000 0.21670  0.84060  0.99000  Biso   1.000  C
  C16      1.0000 0.78330  0.15940  0.01000  Biso   1.000  C
  H11      1.0000 0.15500  0.93490  0.03220  Biso   1.000  H
  H12      1.0000 0.84500  0.06510  0.96780  Biso   1.000  H
  C17      1.0000 0.44320  0.69780  0.82070  Biso   1.000  C
  C18      1.0000 0.55680  0.30220  0.17930  Biso   1.000  C
  C19      1.0000 0.58960  0.71020  0.68850  Biso   1.000  C
  C20      1.0000 0.41040  0.28980  0.31150  Biso   1.000  C
  C21      1.0000 0.56180  0.78450  0.56150  Biso   1.000  C
  C22      1.0000 0.43820  0.21550  0.43850  Biso   1.000  C
  H13      1.0000 0.45430  0.81580  0.55550  Biso   1.000  H
  H14      1.0000 0.54570  0.18420  0.44450  Biso   1.000  H
  C23      1.0000 0.69380  0.81210  0.44370  Biso   1.000  C
  C24      1.0000 0.30620  0.18790  0.55630  Biso   1.000  C
  H15      1.0000 0.68410  0.88230  0.35410  Biso   1.000  H
  H16      1.0000 0.31590  0.11770  0.64590  Biso   1.000  H
  C25      1.0000 0.84750  0.76380  0.45680  Biso   1.000  C
  C26      1.0000 0.15250  0.23620  0.54320  Biso   1.000  C
  H17      1.0000 0.94040  0.78170  0.37820  Biso   1.000  H
  H18      1.0000 0.05960  0.21830  0.62180  Biso   1.000  H
  C27      1.0000 0.86390  0.68890  0.58650  Biso   1.000  C
  C28      1.0000 0.13610  0.31110  0.41350  Biso   1.000  C
  H19      1.0000 0.97100  0.65380  0.59380  Biso   1.000  H
  H20      1.0000 0.02900  0.34620  0.40620  Biso   1.000  H
  C29      1.0000 0.02880  0.13690  0.21060  Biso   1.000  C
  C30      1.0000 0.97120  0.86310  0.78940  Biso   1.000  C
  C31      1.0000 0.83600  0.48450  0.27340  Biso   1.000  C
  C32      1.0000 0.16400  0.51550  0.72660  Biso   1.000  C
