data_image0
_cell_length_a       5.2594
_cell_length_b       16.342
_cell_length_c       8.1426
_cell_angle_alpha    90
_cell_angle_beta     97.939
_cell_angle_gamma    90

_symmetry_space_group_name_H-M    "P 1"
_symmetry_int_tables_number       1

loop_
  _symmetry_equiv_pos_as_xyz
  'x, y, z'

loop_
  _atom_site_label
  _atom_site_occupancy
  _atom_site_fract_x
  _atom_site_fract_y
  _atom_site_fract_z
  _atom_site_thermal_displace_type
  _atom_site_B_iso_or_equiv
  _atom_site_type_symbol
  O1       1.0000 0.12950  0.71501  0.57700  Biso   1.000  O
  O2       1.0000 0.37050  0.21501  0.92300  Biso   1.000  O
  O3       1.0000 0.87050  0.28499  0.42300  Biso   1.000  O
  O4       1.0000 0.62950  0.78499  0.07700  Biso   1.000  O
  O5       1.0000 0.42110  0.62965  0.28810  Biso   1.000  O
  O6       1.0000 0.07890  0.12965  0.21190  Biso   1.000  O
  O7       1.0000 0.57890  0.37035  0.71190  Biso   1.000  O
  O8       1.0000 0.92110  0.87035  0.78810  Biso   1.000  O
  C1       1.0000 0.35350  0.55575  0.27840  Biso   1.000  C
  C2       1.0000 0.14650  0.05575  0.22160  Biso   1.000  C
  C3       1.0000 0.64650  0.44425  0.72160  Biso   1.000  C
  C4       1.0000 0.85350  0.94425  0.77840  Biso   1.000  C
  Cu1      1.0000 0.14625  0.83280  0.62933  Biso   1.000  Cu
  Cu2      1.0000 0.35375  0.33280  0.87067  Biso   1.000  Cu
  Cu3      1.0000 0.85375  0.16720  0.37067  Biso   1.000  Cu
  Cu4      1.0000 0.64625  0.66720  0.12933  Biso   1.000  Cu
  O9       1.0000 0.92540  0.70738  0.31920  Biso   1.000  O
  O10      1.0000 0.57460  0.20738  0.18080  Biso   1.000  O
  O11      1.0000 0.07460  0.29262  0.68080  Biso   1.000  O
  O12      1.0000 0.42540  0.79262  0.81920  Biso   1.000  O
  O13      1.0000 0.43160  0.50533  0.18210  Biso   1.000  O
  O14      1.0000 0.06840  0.00533  0.31790  Biso   1.000  O
  O15      1.0000 0.56840  0.49467  0.81790  Biso   1.000  O
  O16      1.0000 0.93160  0.99467  0.68210  Biso   1.000  O
  O17      1.0000 0.83770  0.86478  0.41600  Biso   1.000  O
  O18      1.0000 0.66230  0.36478  0.08400  Biso   1.000  O
  O19      1.0000 0.16230  0.13522  0.58400  Biso   1.000  O
  O20      1.0000 0.33770  0.63522  0.91600  Biso   1.000  O
  C5       1.0000 0.02920  0.67549  0.45050  Biso   1.000  C
  C6       1.0000 0.47080  0.17549  0.04950  Biso   1.000  C
  C7       1.0000 0.97080  0.32451  0.54950  Biso   1.000  C
  C8       1.0000 0.52920  0.82451  0.95050  Biso   1.000  C
  O21      1.0000 0.38000  0.90417  0.52210  Biso   1.000  O
  O22      1.0000 0.12000  0.40417  0.97790  Biso   1.000  O
  O23      1.0000 0.62000  0.09583  0.47790  Biso   1.000  O
  O24      1.0000 0.88000  0.59583  0.02210  Biso   1.000  O
  C9       1.0000 0.86110  0.55457  0.58070  Biso   1.000  C
  C10      1.0000 0.63890  0.05457  0.91930  Biso   1.000  C
  C11      1.0000 0.13890  0.44543  0.41930  Biso   1.000  C
  C12      1.0000 0.36110  0.94543  0.08070  Biso   1.000  C
  H1       1.0000 0.76790  0.59160  0.63550  Biso   1.000  H
  H2       1.0000 0.73210  0.09160  0.86450  Biso   1.000  H
  H3       1.0000 0.23210  0.40840  0.36450  Biso   1.000  H
  H4       1.0000 0.26790  0.90840  0.13550  Biso   1.000  H
  C13      1.0000 0.02430  0.58432  0.47360  Biso   1.000  C
  C14      1.0000 0.47570  0.08432  0.02640  Biso   1.000  C
  C15      1.0000 0.97570  0.41568  0.52640  Biso   1.000  C
  C16      1.0000 0.52430  0.91568  0.97360  Biso   1.000  C
  C17      1.0000 0.16680  0.52859  0.39180  Biso   1.000  C
  C18      1.0000 0.33320  0.02859  0.10820  Biso   1.000  C
  C19      1.0000 0.83320  0.47141  0.60820  Biso   1.000  C
  C20      1.0000 0.66680  0.97141  0.89180  Biso   1.000  C
  H5       1.0000 0.88000  0.90990  0.37200  Biso   1.000  H
  H6       1.0000 0.62000  0.40990  0.12800  Biso   1.000  H
  H7       1.0000 0.12000  0.09010  0.62800  Biso   1.000  H
  H8       1.0000 0.38000  0.59010  0.87200  Biso   1.000  H
  H9       1.0000 0.29300  0.93800  0.45500  Biso   1.000  H
  H10      1.0000 0.20700  0.43800  0.04500  Biso   1.000  H
  H11      1.0000 0.70700  0.06200  0.54500  Biso   1.000  H
  H12      1.0000 0.79300  0.56200  0.95500  Biso   1.000  H
  H13      1.0000 0.51500  0.88800  0.48200  Biso   1.000  H
  H14      1.0000 0.98500  0.38800  0.01800  Biso   1.000  H
  H15      1.0000 0.48500  0.11200  0.51800  Biso   1.000  H
  H16      1.0000 0.01500  0.61200  0.98200  Biso   1.000  H
  H17      1.0000 0.82500  0.82500  0.34600  Biso   1.000  H
  H18      1.0000 0.67500  0.32500  0.15400  Biso   1.000  H
  H19      1.0000 0.17500  0.17500  0.65400  Biso   1.000  H
  H20      1.0000 0.32500  0.67500  0.84600  Biso   1.000  H
