data_image0
_cell_length_a       9.185
_cell_length_b       11.477
_cell_length_c       7.917
_cell_angle_alpha    90
_cell_angle_beta     100.88
_cell_angle_gamma    90

_symmetry_space_group_name_H-M    "P 1"
_symmetry_int_tables_number       1

loop_
  _symmetry_equiv_pos_as_xyz
  'x, y, z'

loop_
  _atom_site_label
  _atom_site_occupancy
  _atom_site_fract_x
  _atom_site_fract_y
  _atom_site_fract_z
  _atom_site_thermal_displace_type
  _atom_site_B_iso_or_equiv
  _atom_site_type_symbol
  Cu1      1.0000 0.00783  0.07507  0.31720  Biso   1.000  Cu
  Cu2      1.0000 0.49217  0.57507  0.18280  Biso   1.000  Cu
  Cu3      1.0000 0.99217  0.92493  0.68280  Biso   1.000  Cu
  Cu4      1.0000 0.50783  0.42493  0.81720  Biso   1.000  Cu
  O1       1.0000 0.87280  0.97670  0.13890  Biso   1.000  O
  O2       1.0000 0.62720  0.47670  0.36110  Biso   1.000  O
  O3       1.0000 0.12720  0.02330  0.86110  Biso   1.000  O
  O4       1.0000 0.37280  0.52330  0.63890  Biso   1.000  O
  N1       1.0000 0.12720  0.08170  0.14130  Biso   1.000  N
  N2       1.0000 0.37280  0.58170  0.35870  Biso   1.000  N
  N3       1.0000 0.87280  0.91830  0.85870  Biso   1.000  N
  N4       1.0000 0.62720  0.41830  0.64130  Biso   1.000  N
  N5       1.0000 0.14080  0.21690  0.41000  Biso   1.000  N
  N6       1.0000 0.35920  0.71690  0.09000  Biso   1.000  N
  N7       1.0000 0.85920  0.78310  0.59000  Biso   1.000  N
  N8       1.0000 0.64080  0.28310  0.91000  Biso   1.000  N
  N9       1.0000 0.87320  0.07670  0.48160  Biso   1.000  N
  N10      1.0000 0.62680  0.57670  0.01840  Biso   1.000  N
  N11      1.0000 0.12680  0.92330  0.51840  Biso   1.000  N
  N12      1.0000 0.37320  0.42330  0.98160  Biso   1.000  N
  N13      1.0000 0.74000  0.07200  0.43110  Biso   1.000  N
  N14      1.0000 0.76000  0.57200  0.06890  Biso   1.000  N
  N15      1.0000 0.26000  0.92800  0.56890  Biso   1.000  N
  N16      1.0000 0.24000  0.42800  0.93110  Biso   1.000  N
  N17      1.0000 0.61360  0.06890  0.38860  Biso   1.000  N
  N18      1.0000 0.88640  0.56890  0.11140  Biso   1.000  N
  N19      1.0000 0.38640  0.93110  0.61140  Biso   1.000  N
  N20      1.0000 0.11360  0.43110  0.88860  Biso   1.000  N
  C1       1.0000 0.92670  0.97020  0.00280  Biso   1.000  C
  C2       1.0000 0.57330  0.47020  0.49720  Biso   1.000  C
  C3       1.0000 0.07330  0.02980  0.99720  Biso   1.000  C
  C4       1.0000 0.42670  0.52980  0.50280  Biso   1.000  C
  C5       1.0000 0.25940  0.15480  0.16590  Biso   1.000  C
  C6       1.0000 0.24060  0.65480  0.33410  Biso   1.000  C
  C7       1.0000 0.74060  0.84520  0.83410  Biso   1.000  C
  C8       1.0000 0.75940  0.34520  0.66590  Biso   1.000  C
  C9       1.0000 0.28490  0.19510  0.35310  Biso   1.000  C
  C10      1.0000 0.21510  0.69510  0.14690  Biso   1.000  C
  C11      1.0000 0.71510  0.80490  0.64690  Biso   1.000  C
  C12      1.0000 0.78490  0.30490  0.85310  Biso   1.000  C
  C13      1.0000 0.16810  0.23010  0.59940  Biso   1.000  C
  C14      1.0000 0.33190  0.73010  0.90060  Biso   1.000  C
  C15      1.0000 0.83190  0.76990  0.40060  Biso   1.000  C
  C16      1.0000 0.66810  0.26990  0.09940  Biso   1.000  C
  C17      1.0000 0.07080  0.32420  0.32790  Biso   1.000  C
  C18      1.0000 0.42920  0.82420  0.17210  Biso   1.000  C
  C19      1.0000 0.92920  0.67580  0.67210  Biso   1.000  C
  C20      1.0000 0.57080  0.17580  0.82790  Biso   1.000  C
  H1       1.0000 0.35460  0.10750  0.14790  Biso   1.000  H
  H2       1.0000 0.14540  0.60750  0.35210  Biso   1.000  H
  H3       1.0000 0.64540  0.89250  0.85210  Biso   1.000  H
  H4       1.0000 0.85460  0.39250  0.64790  Biso   1.000  H
  H5       1.0000 0.22790  0.22140  0.08330  Biso   1.000  H
  H6       1.0000 0.27210  0.72140  0.41670  Biso   1.000  H
  H7       1.0000 0.77210  0.77860  0.91670  Biso   1.000  H
  H8       1.0000 0.72790  0.27860  0.58330  Biso   1.000  H
  H9       1.0000 0.33790  0.12640  0.42710  Biso   1.000  H
  H10      1.0000 0.16210  0.62640  0.07290  Biso   1.000  H
  H11      1.0000 0.66210  0.87360  0.57290  Biso   1.000  H
  H12      1.0000 0.83790  0.37360  0.92710  Biso   1.000  H
  H13      1.0000 0.33500  0.27940  0.36830  Biso   1.000  H
  H14      1.0000 0.16500  0.77940  0.13170  Biso   1.000  H
  H15      1.0000 0.66500  0.72060  0.63170  Biso   1.000  H
  H16      1.0000 0.83500  0.22060  0.86830  Biso   1.000  H
  H17      1.0000 0.22750  0.29810  0.62960  Biso   1.000  H
  H18      1.0000 0.27250  0.79810  0.87040  Biso   1.000  H
  H19      1.0000 0.77250  0.70190  0.37040  Biso   1.000  H
  H20      1.0000 0.72750  0.20190  0.12960  Biso   1.000  H
  H21      1.0000 0.07040  0.23890  0.62460  Biso   1.000  H
  H22      1.0000 0.42960  0.73890  0.87540  Biso   1.000  H
  H23      1.0000 0.92960  0.76110  0.37540  Biso   1.000  H
  H24      1.0000 0.57040  0.26110  0.12460  Biso   1.000  H
  H25      1.0000 0.23710  0.16610  0.64170  Biso   1.000  H
  H26      1.0000 0.26290  0.66610  0.85830  Biso   1.000  H
  H27      1.0000 0.76290  0.83390  0.35830  Biso   1.000  H
  H28      1.0000 0.73710  0.33390  0.14170  Biso   1.000  H
  H29      1.0000 0.97930  0.33780  0.36960  Biso   1.000  H
  H30      1.0000 0.52070  0.83780  0.13040  Biso   1.000  H
  H31      1.0000 0.02070  0.66220  0.63040  Biso   1.000  H
  H32      1.0000 0.47930  0.16220  0.86960  Biso   1.000  H
  H33      1.0000 0.05610  0.31280  0.20580  Biso   1.000  H
  H34      1.0000 0.44390  0.81280  0.29420  Biso   1.000  H
  H35      1.0000 0.94390  0.68720  0.79420  Biso   1.000  H
  H36      1.0000 0.55610  0.18720  0.70580  Biso   1.000  H
  H37      1.0000 0.12710  0.38970  0.35920  Biso   1.000  H
  H38      1.0000 0.37290  0.88970  0.14080  Biso   1.000  H
  H39      1.0000 0.87290  0.61030  0.64080  Biso   1.000  H
  H40      1.0000 0.62710  0.11030  0.85920  Biso   1.000  H
