data_image0
_cell_length_a       11.3254
_cell_length_b       7.8829
_cell_length_c       13.1264
_cell_angle_alpha    90
_cell_angle_beta     100.519
_cell_angle_gamma    90

_symmetry_space_group_name_H-M    "P 1"
_symmetry_int_tables_number       1

loop_
  _symmetry_equiv_pos_as_xyz
  'x, y, z'

loop_
  _atom_site_label
  _atom_site_occupancy
  _atom_site_fract_x
  _atom_site_fract_y
  _atom_site_fract_z
  _atom_site_thermal_displace_type
  _atom_site_B_iso_or_equiv
  _atom_site_type_symbol
  O1       1.0000 0.46050  0.00820  0.13881  Biso   1.000  O
  O2       1.0000 0.96050  0.50820  0.13881  Biso   1.000  O
  O3       1.0000 0.53950  0.00820  0.36119  Biso   1.000  O
  O4       1.0000 0.03950  0.50820  0.36119  Biso   1.000  O
  O5       1.0000 0.53950  0.99180  0.86119  Biso   1.000  O
  O6       1.0000 0.03950  0.49180  0.86119  Biso   1.000  O
  O7       1.0000 0.46050  0.99180  0.63881  Biso   1.000  O
  O8       1.0000 0.96050  0.49180  0.63881  Biso   1.000  O
  C1       1.0000 0.52280  0.87390  0.14930  Biso   1.000  C
  C2       1.0000 0.02280  0.37390  0.14930  Biso   1.000  C
  C3       1.0000 0.47720  0.87390  0.35070  Biso   1.000  C
  C4       1.0000 0.97720  0.37390  0.35070  Biso   1.000  C
  C5       1.0000 0.47720  0.12610  0.85070  Biso   1.000  C
  C6       1.0000 0.97720  0.62610  0.85070  Biso   1.000  C
  C7       1.0000 0.52280  0.12610  0.64930  Biso   1.000  C
  C8       1.0000 0.02280  0.62610  0.64930  Biso   1.000  C
  Cu1      1.0000 0.50000  0.20313  0.25000  Biso   1.000  Cu
  Cu2      1.0000 0.00000  0.70313  0.25000  Biso   1.000  Cu
  Cu3      1.0000 0.50000  0.79687  0.75000  Biso   1.000  Cu
  Cu4      1.0000 0.00000  0.29687  0.75000  Biso   1.000  Cu
  O9       1.0000 0.32500  0.19070  0.28420  Biso   1.000  O
  O10      1.0000 0.82500  0.69070  0.28420  Biso   1.000  O
  O11      1.0000 0.67500  0.19070  0.21580  Biso   1.000  O
  O12      1.0000 0.17500  0.69070  0.21580  Biso   1.000  O
  O13      1.0000 0.67500  0.80930  0.71580  Biso   1.000  O
  O14      1.0000 0.17500  0.30930  0.71580  Biso   1.000  O
  O15      1.0000 0.32500  0.80930  0.78420  Biso   1.000  O
  O16      1.0000 0.82500  0.30930  0.78420  Biso   1.000  O
  O17      1.0000 0.63480  0.86550  0.17267  Biso   1.000  O
  O18      1.0000 0.13480  0.36550  0.17267  Biso   1.000  O
  O19      1.0000 0.36520  0.86550  0.32733  Biso   1.000  O
  O20      1.0000 0.86520  0.36550  0.32733  Biso   1.000  O
  O21      1.0000 0.36520  0.13450  0.82733  Biso   1.000  O
  O22      1.0000 0.86520  0.63450  0.82733  Biso   1.000  O
  O23      1.0000 0.63480  0.13450  0.67267  Biso   1.000  O
  O24      1.0000 0.13480  0.63450  0.67267  Biso   1.000  O
  N1       1.0000 0.43460  0.41200  0.15750  Biso   1.000  N
  N2       1.0000 0.93460  0.91200  0.15750  Biso   1.000  N
  N3       1.0000 0.56540  0.41200  0.34250  Biso   1.000  N
  N4       1.0000 0.06540  0.91200  0.34250  Biso   1.000  N
  N5       1.0000 0.56540  0.58800  0.84250  Biso   1.000  N
  N6       1.0000 0.06540  0.08800  0.84250  Biso   1.000  N
  N7       1.0000 0.43460  0.58800  0.65750  Biso   1.000  N
  N8       1.0000 0.93460  0.08800  0.65750  Biso   1.000  N
  C9       1.0000 0.37280  0.39380  0.06070  Biso   1.000  C
  C10      1.0000 0.87280  0.89380  0.06070  Biso   1.000  C
  C11      1.0000 0.62720  0.39380  0.43930  Biso   1.000  C
  C12      1.0000 0.12720  0.89380  0.43930  Biso   1.000  C
  C13      1.0000 0.62720  0.60620  0.93930  Biso   1.000  C
  C14      1.0000 0.12720  0.10620  0.93930  Biso   1.000  C
  C15      1.0000 0.37280  0.60620  0.56070  Biso   1.000  C
  C16      1.0000 0.87280  0.10620  0.56070  Biso   1.000  C
  H1       1.0000 0.34880  0.28560  0.03720  Biso   1.000  H
  H2       1.0000 0.84880  0.78560  0.03720  Biso   1.000  H
  H3       1.0000 0.65120  0.28560  0.46280  Biso   1.000  H
  H4       1.0000 0.15120  0.78560  0.46280  Biso   1.000  H
  H5       1.0000 0.65120  0.71440  0.96280  Biso   1.000  H
  H6       1.0000 0.15120  0.21440  0.96280  Biso   1.000  H
  H7       1.0000 0.34880  0.71440  0.53720  Biso   1.000  H
  H8       1.0000 0.84880  0.21440  0.53720  Biso   1.000  H
  C17      1.0000 0.34330  0.53010  0.99430  Biso   1.000  C
  C18      1.0000 0.84330  0.03010  0.99430  Biso   1.000  C
  C19      1.0000 0.65670  0.53010  0.50570  Biso   1.000  C
  C20      1.0000 0.15670  0.03010  0.50570  Biso   1.000  C
  C21      1.0000 0.65670  0.46990  0.00570  Biso   1.000  C
  C22      1.0000 0.15670  0.96990  0.00570  Biso   1.000  C
  C23      1.0000 0.34330  0.46990  0.49430  Biso   1.000  C
  C24      1.0000 0.84330  0.96990  0.49430  Biso   1.000  C
  H9       1.0000 0.29440  0.51640  0.92980  Biso   1.000  H
  H10      1.0000 0.79440  0.01640  0.92980  Biso   1.000  H
  H11      1.0000 0.70560  0.51640  0.57020  Biso   1.000  H
  H12      1.0000 0.20560  0.01640  0.57020  Biso   1.000  H
  H13      1.0000 0.70560  0.48360  0.07020  Biso   1.000  H
  H14      1.0000 0.20560  0.98360  0.07020  Biso   1.000  H
  H15      1.0000 0.29440  0.48360  0.42980  Biso   1.000  H
  H16      1.0000 0.79440  0.98360  0.42980  Biso   1.000  H
  C25      1.0000 0.38930  0.68730  0.02740  Biso   1.000  C
  C26      1.0000 0.88930  0.18730  0.02740  Biso   1.000  C
  C27      1.0000 0.61070  0.68730  0.47260  Biso   1.000  C
  C28      1.0000 0.11070  0.18730  0.47260  Biso   1.000  C
  C29      1.0000 0.61070  0.31270  0.97260  Biso   1.000  C
  C30      1.0000 0.11070  0.81270  0.97260  Biso   1.000  C
  C31      1.0000 0.38930  0.31270  0.52740  Biso   1.000  C
  C32      1.0000 0.88930  0.81270  0.52740  Biso   1.000  C
  H17      1.0000 0.37510  0.78020  0.98320  Biso   1.000  H
  H18      1.0000 0.87510  0.28020  0.98320  Biso   1.000  H
  H19      1.0000 0.62490  0.78020  0.51680  Biso   1.000  H
  H20      1.0000 0.12490  0.28020  0.51680  Biso   1.000  H
  H21      1.0000 0.62490  0.21980  0.01680  Biso   1.000  H
  H22      1.0000 0.12490  0.71980  0.01680  Biso   1.000  H
  H23      1.0000 0.37510  0.21980  0.48320  Biso   1.000  H
  H24      1.0000 0.87510  0.71980  0.48320  Biso   1.000  H
  C33      1.0000 0.45710  0.70730  0.12710  Biso   1.000  C
  C34      1.0000 0.95710  0.20730  0.12710  Biso   1.000  C
  C35      1.0000 0.54290  0.70730  0.37290  Biso   1.000  C
  C36      1.0000 0.04290  0.20730  0.37290  Biso   1.000  C
  C37      1.0000 0.54290  0.29270  0.87290  Biso   1.000  C
  C38      1.0000 0.04290  0.79270  0.87290  Biso   1.000  C
  C39      1.0000 0.45710  0.29270  0.62710  Biso   1.000  C
  C40      1.0000 0.95710  0.79270  0.62710  Biso   1.000  C
  C41      1.0000 0.47080  0.56710  0.19330  Biso   1.000  C
  C42      1.0000 0.97080  0.06710  0.19330  Biso   1.000  C
  C43      1.0000 0.52920  0.56710  0.30670  Biso   1.000  C
  C44      1.0000 0.02920  0.06710  0.30670  Biso   1.000  C
  C45      1.0000 0.52920  0.43290  0.80670  Biso   1.000  C
  C46      1.0000 0.02920  0.93290  0.80670  Biso   1.000  C
  C47      1.0000 0.47080  0.43290  0.69330  Biso   1.000  C
  C48      1.0000 0.97080  0.93290  0.69330  Biso   1.000  C
  H25      1.0000 0.26500  0.23200  0.24200  Biso   1.000  H
  H26      1.0000 0.76500  0.73200  0.24200  Biso   1.000  H
  H27      1.0000 0.73500  0.23200  0.25800  Biso   1.000  H
  H28      1.0000 0.23500  0.73200  0.25800  Biso   1.000  H
  H29      1.0000 0.73500  0.76800  0.75800  Biso   1.000  H
  H30      1.0000 0.23500  0.26800  0.75800  Biso   1.000  H
  H31      1.0000 0.26500  0.76800  0.74200  Biso   1.000  H
  H32      1.0000 0.76500  0.26800  0.74200  Biso   1.000  H
  H33      1.0000 0.31100  0.08800  0.30100  Biso   1.000  H
  H34      1.0000 0.81100  0.58800  0.30100  Biso   1.000  H
  H35      1.0000 0.68900  0.08800  0.19900  Biso   1.000  H
  H36      1.0000 0.18900  0.58800  0.19900  Biso   1.000  H
  H37      1.0000 0.68900  0.91200  0.69900  Biso   1.000  H
  H38      1.0000 0.18900  0.41200  0.69900  Biso   1.000  H
  H39      1.0000 0.31100  0.91200  0.80100  Biso   1.000  H
  H40      1.0000 0.81100  0.41200  0.80100  Biso   1.000  H
