data_image0
_cell_length_a       6.349
_cell_length_b       10.258
_cell_length_c       15.737
_cell_angle_alpha    73.21
_cell_angle_beta     93.66
_cell_angle_gamma    76.44

_symmetry_space_group_name_H-M    "P 1"
_symmetry_int_tables_number       1

loop_
  _symmetry_equiv_pos_as_xyz
  'x, y, z'

loop_
  _atom_site_label
  _atom_site_occupancy
  _atom_site_fract_x
  _atom_site_fract_y
  _atom_site_fract_z
  _atom_site_thermal_displace_type
  _atom_site_B_iso_or_equiv
  _atom_site_type_symbol
  Sr1      1.0000 0.01346  0.07780  0.35040  Biso   1.000  Sr
  Sr2      1.0000 0.98654  0.92220  0.64960  Biso   1.000  Sr
  Sr3      1.0000 0.30596  0.73254  0.26373  Biso   1.000  Sr
  Sr4      1.0000 0.69404  0.26746  0.73627  Biso   1.000  Sr
  Cu1      1.0000 0.00000  0.50000  0.00000  Biso   1.000  Cu
  Cu2      1.0000 0.50000  0.50000  0.50000  Biso   1.000  Cu
  O1       1.0000 0.88340  0.33612  0.04473  Biso   1.000  O
  O2       1.0000 0.11660  0.66388  0.95527  Biso   1.000  O
  O3       1.0000 0.14640  0.44692  0.12171  Biso   1.000  O
  O4       1.0000 0.85360  0.55308  0.87829  Biso   1.000  O
  C1       1.0000 0.94690  0.27622  0.12821  Biso   1.000  C
  C2       1.0000 0.05310  0.72378  0.87179  Biso   1.000  C
  C3       1.0000 0.09870  0.34039  0.17252  Biso   1.000  C
  C4       1.0000 0.90130  0.65961  0.82748  Biso   1.000  C
  O5       1.0000 0.89110  0.17357  0.17498  Biso   1.000  O
  O6       1.0000 0.10890  0.82643  0.82502  Biso   1.000  O
  O7       1.0000 0.15759  0.29265  0.25357  Biso   1.000  O
  O8       1.0000 0.84241  0.70735  0.74643  Biso   1.000  O
  O9       1.0000 0.30792  0.68844  0.44963  Biso   1.000  O
  O10      1.0000 0.69208  0.31156  0.55037  Biso   1.000  O
  O11      1.0000 0.56542  0.48536  0.38450  Biso   1.000  O
  O12      1.0000 0.43458  0.51464  0.61550  Biso   1.000  O
  C5       1.0000 0.24343  0.73863  0.51074  Biso   1.000  C
  C6       1.0000 0.75657  0.26137  0.48926  Biso   1.000  C
  C7       1.0000 0.31515  0.63713  0.60764  Biso   1.000  C
  C8       1.0000 0.68485  0.36287  0.39236  Biso   1.000  C
  O13      1.0000 0.13103  0.86100  0.50034  Biso   1.000  O
  O14      1.0000 0.86897  0.13900  0.49966  Biso   1.000  O
  O15      1.0000 0.25362  0.67605  0.67143  Biso   1.000  O
  O16      1.0000 0.74638  0.32395  0.32857  Biso   1.000  O
  O17      1.0000 0.70027  0.75170  0.27323  Biso   1.000  O
  O18      1.0000 0.29973  0.24830  0.72677  Biso   1.000  O
  O19      1.0000 0.37775  0.94424  0.31016  Biso   1.000  O
  O20      1.0000 0.62225  0.05576  0.68984  Biso   1.000  O
  C9       1.0000 0.56922  0.95431  0.32124  Biso   1.000  C
  C10      1.0000 0.43078  0.04569  0.67876  Biso   1.000  C
  C11      1.0000 0.75128  0.84944  0.29345  Biso   1.000  C
  C12      1.0000 0.24872  0.15056  0.70655  Biso   1.000  C
  O21      1.0000 0.63120  0.03904  0.35383  Biso   1.000  O
  O22      1.0000 0.36880  0.96096  0.64617  Biso   1.000  O
  O23      1.0000 0.93769  0.87119  0.29398  Biso   1.000  O
  O24      1.0000 0.06231  0.12881  0.70602  Biso   1.000  O
  O25      1.0000 0.31615  0.13862  0.44479  Biso   1.000  O
  O26      1.0000 0.68385  0.86138  0.55521  Biso   1.000  O
  O27      1.0000 0.07695  0.54686  0.30697  Biso   1.000  O
  O28      1.0000 0.92305  0.45314  0.69303  Biso   1.000  O
  O29      1.0000 0.47878  0.54364  0.18303  Biso   1.000  O
  O30      1.0000 0.52122  0.45636  0.81697  Biso   1.000  O
  O31      1.0000 0.33510  0.92401  0.11547  Biso   1.000  O
  O32      1.0000 0.66490  0.07599  0.88453  Biso   1.000  O
  O33      1.0000 0.01980  0.77717  0.11144  Biso   1.000  O
  O34      1.0000 0.98020  0.22283  0.88856  Biso   1.000  O
  O35      1.0000 0.18350  0.39577  0.48637  Biso   1.000  O
  O36      1.0000 0.81650  0.60423  0.51363  Biso   1.000  O
  O37      1.0000 0.30020  0.34350  0.95299  Biso   1.000  O
  O38      1.0000 0.69980  0.65650  0.04701  Biso   1.000  O
