data_image0
_cell_length_a       14.812
_cell_length_b       20.5146
_cell_length_c       38.791
_cell_angle_alpha    90
_cell_angle_beta     99.284
_cell_angle_gamma    90

_symmetry_space_group_name_H-M    "P 1"
_symmetry_int_tables_number       1

loop_
  _symmetry_equiv_pos_as_xyz
  'x, y, z'

loop_
  _atom_site_label
  _atom_site_occupancy
  _atom_site_fract_x
  _atom_site_fract_y
  _atom_site_fract_z
  _atom_site_thermal_displace_type
  _atom_site_B_iso_or_equiv
  _atom_site_type_symbol
  K1       1.0000 0.33640  0.62127  0.31722  Biso   1.000  K
  K2       1.0000 0.83640  0.12127  0.31722  Biso   1.000  K
  K3       1.0000 0.66360  0.62127  0.18278  Biso   1.000  K
  K4       1.0000 0.16360  0.12127  0.18278  Biso   1.000  K
  K5       1.0000 0.66360  0.37873  0.68278  Biso   1.000  K
  K6       1.0000 0.16360  0.87873  0.68278  Biso   1.000  K
  K7       1.0000 0.33640  0.37873  0.81722  Biso   1.000  K
  K8       1.0000 0.83640  0.87873  0.81722  Biso   1.000  K
  P1       1.0000 0.30896  0.53195  0.14647  Biso   1.000  P
  P2       1.0000 0.80896  0.03195  0.14647  Biso   1.000  P
  P3       1.0000 0.69104  0.53195  0.35353  Biso   1.000  P
  P4       1.0000 0.19104  0.03195  0.35353  Biso   1.000  P
  P5       1.0000 0.69104  0.46805  0.85353  Biso   1.000  P
  P6       1.0000 0.19104  0.96805  0.85353  Biso   1.000  P
  P7       1.0000 0.30896  0.46805  0.64647  Biso   1.000  P
  P8       1.0000 0.80896  0.96805  0.64647  Biso   1.000  P
  W1       1.0000 0.52901  0.45777  0.16007  Biso   1.000  W
  W2       1.0000 0.02901  0.95777  0.16007  Biso   1.000  W
  W3       1.0000 0.47099  0.45777  0.33993  Biso   1.000  W
  W4       1.0000 0.97099  0.95777  0.33993  Biso   1.000  W
  W5       1.0000 0.47099  0.54223  0.83993  Biso   1.000  W
  W6       1.0000 0.97099  0.04223  0.83993  Biso   1.000  W
  W7       1.0000 0.52901  0.54223  0.66007  Biso   1.000  W
  W8       1.0000 0.02901  0.04223  0.66007  Biso   1.000  W
  W9       1.0000 0.09024  0.60566  0.12865  Biso   1.000  W
  W10      1.0000 0.59024  0.10566  0.12865  Biso   1.000  W
  W11      1.0000 0.90976  0.60566  0.37135  Biso   1.000  W
  W12      1.0000 0.40976  0.10566  0.37135  Biso   1.000  W
  W13      1.0000 0.90976  0.39434  0.87135  Biso   1.000  W
  W14      1.0000 0.40976  0.89434  0.87135  Biso   1.000  W
  W15      1.0000 0.09024  0.39434  0.62865  Biso   1.000  W
  W16      1.0000 0.59024  0.89434  0.62865  Biso   1.000  W
  W17      1.0000 0.38556  0.43100  0.08029  Biso   1.000  W
  W18      1.0000 0.88556  0.93100  0.08029  Biso   1.000  W
  W19      1.0000 0.61444  0.43100  0.41971  Biso   1.000  W
  W20      1.0000 0.11444  0.93100  0.41971  Biso   1.000  W
  W21      1.0000 0.61444  0.56900  0.91971  Biso   1.000  W
  W22      1.0000 0.11444  0.06900  0.91971  Biso   1.000  W
  W23      1.0000 0.38556  0.56900  0.58029  Biso   1.000  W
  W24      1.0000 0.88556  0.06900  0.58029  Biso   1.000  W
  W25      1.0000 0.35162  0.40038  0.20748  Biso   1.000  W
  W26      1.0000 0.85162  0.90038  0.20748  Biso   1.000  W
  W27      1.0000 0.64838  0.40038  0.29252  Biso   1.000  W
  W28      1.0000 0.14838  0.90038  0.29252  Biso   1.000  W
  W29      1.0000 0.64838  0.59962  0.79252  Biso   1.000  W
  W30      1.0000 0.14838  0.09962  0.79252  Biso   1.000  W
  W31      1.0000 0.35162  0.59962  0.70748  Biso   1.000  W
  W32      1.0000 0.85162  0.09962  0.70748  Biso   1.000  W
  W33      1.0000 0.48206  0.58017  0.09863  Biso   1.000  W
  W34      1.0000 0.98206  0.08017  0.09863  Biso   1.000  W
  W35      1.0000 0.51794  0.58017  0.40137  Biso   1.000  W
  W36      1.0000 0.01794  0.08017  0.40137  Biso   1.000  W
  W37      1.0000 0.51794  0.41983  0.90137  Biso   1.000  W
  W38      1.0000 0.01794  0.91983  0.90137  Biso   1.000  W
  W39      1.0000 0.48206  0.41983  0.59863  Biso   1.000  W
  W40      1.0000 0.98206  0.91983  0.59863  Biso   1.000  W
  W41      1.0000 0.41532  0.68261  0.17003  Biso   1.000  W
  W42      1.0000 0.91532  0.18261  0.17003  Biso   1.000  W
  W43      1.0000 0.58468  0.68261  0.32997  Biso   1.000  W
  W44      1.0000 0.08468  0.18261  0.32997  Biso   1.000  W
  W45      1.0000 0.58468  0.31739  0.82997  Biso   1.000  W
  W46      1.0000 0.08468  0.81739  0.82997  Biso   1.000  W
  W47      1.0000 0.41532  0.31739  0.67003  Biso   1.000  W
  W48      1.0000 0.91532  0.81739  0.67003  Biso   1.000  W
  W49      1.0000 0.25697  0.65939  0.08439  Biso   1.000  W
  W50      1.0000 0.75697  0.15939  0.08439  Biso   1.000  W
  W51      1.0000 0.74303  0.65939  0.41561  Biso   1.000  W
  W52      1.0000 0.24303  0.15939  0.41561  Biso   1.000  W
  W53      1.0000 0.74303  0.34061  0.91561  Biso   1.000  W
  W54      1.0000 0.24303  0.84061  0.91561  Biso   1.000  W
  W55      1.0000 0.25697  0.34061  0.58439  Biso   1.000  W
  W56      1.0000 0.75697  0.84061  0.58439  Biso   1.000  W
  W57      1.0000 0.20378  0.37297  0.12815  Biso   1.000  W
  W58      1.0000 0.70378  0.87297  0.12815  Biso   1.000  W
  W59      1.0000 0.79622  0.37297  0.37185  Biso   1.000  W
  W60      1.0000 0.29622  0.87297  0.37185  Biso   1.000  W
  W61      1.0000 0.79622  0.62703  0.87185  Biso   1.000  W
  W62      1.0000 0.29622  0.12703  0.87185  Biso   1.000  W
  W63      1.0000 0.20378  0.62703  0.62815  Biso   1.000  W
  W64      1.0000 0.70378  0.12703  0.62815  Biso   1.000  W
  W65      1.0000 0.24980  0.63020  0.21389  Biso   1.000  W
  W66      1.0000 0.74980  0.13020  0.21389  Biso   1.000  W
  W67      1.0000 0.75020  0.63020  0.28611  Biso   1.000  W
  W68      1.0000 0.25020  0.13020  0.28611  Biso   1.000  W
  W69      1.0000 0.75020  0.36980  0.78611  Biso   1.000  W
  W70      1.0000 0.25020  0.86980  0.78611  Biso   1.000  W
  W71      1.0000 0.24980  0.36980  0.71389  Biso   1.000  W
  W72      1.0000 0.74980  0.86980  0.71389  Biso   1.000  W
  W73      1.0000 0.15733  0.50999  0.06496  Biso   1.000  W
  W74      1.0000 0.65733  0.00999  0.06496  Biso   1.000  W
  W75      1.0000 0.84267  0.50999  0.43504  Biso   1.000  W
  W76      1.0000 0.34267  0.00999  0.43504  Biso   1.000  W
  W77      1.0000 0.84267  0.49001  0.93504  Biso   1.000  W
  W78      1.0000 0.34267  0.99001  0.93504  Biso   1.000  W
  W79      1.0000 0.15733  0.49001  0.56496  Biso   1.000  W
  W80      1.0000 0.65733  0.99001  0.56496  Biso   1.000  W
  W81      1.0000 0.13698  0.46953  0.19104  Biso   1.000  W
  W82      1.0000 0.63698  0.96953  0.19104  Biso   1.000  W
  W83      1.0000 0.86302  0.46953  0.30896  Biso   1.000  W
  W84      1.0000 0.36302  0.96953  0.30896  Biso   1.000  W
  W85      1.0000 0.86302  0.53047  0.80896  Biso   1.000  W
  W86      1.0000 0.36302  0.03047  0.80896  Biso   1.000  W
  W87      1.0000 0.13698  0.53047  0.69104  Biso   1.000  W
  W88      1.0000 0.63698  0.03047  0.69104  Biso   1.000  W
  Cu1      1.0000 0.42378  0.38680  0.98789  Biso   1.000  Cu
  Cu2      1.0000 0.92378  0.88680  0.98789  Biso   1.000  Cu
  Cu3      1.0000 0.57622  0.38680  0.51211  Biso   1.000  Cu
  Cu4      1.0000 0.07622  0.88680  0.51211  Biso   1.000  Cu
  Cu5      1.0000 0.57622  0.61320  0.01211  Biso   1.000  Cu
  Cu6      1.0000 0.07622  0.11320  0.01211  Biso   1.000  Cu
  Cu7      1.0000 0.42378  0.61320  0.48789  Biso   1.000  Cu
  Cu8      1.0000 0.92378  0.11320  0.48789  Biso   1.000  Cu
  La1      1.0000 0.50000  0.56075  0.25000  Biso   1.000  La
  La2      1.0000 0.00000  0.06075  0.25000  Biso   1.000  La
  La3      1.0000 0.50000  0.43925  0.75000  Biso   1.000  La
  La4      1.0000 0.00000  0.93925  0.75000  Biso   1.000  La
  C1       1.0000 0.45350  0.51590  0.99370  Biso   1.000  C
  C2       1.0000 0.95350  0.01590  0.99370  Biso   1.000  C
  C3       1.0000 0.54650  0.51590  0.50630  Biso   1.000  C
  C4       1.0000 0.04650  0.01590  0.50630  Biso   1.000  C
  C5       1.0000 0.54650  0.48410  0.00630  Biso   1.000  C
  C6       1.0000 0.04650  0.98410  0.00630  Biso   1.000  C
  C7       1.0000 0.45350  0.48410  0.49370  Biso   1.000  C
  C8       1.0000 0.95350  0.98410  0.49370  Biso   1.000  C
  C9       1.0000 0.22630  0.38460  0.96290  Biso   1.000  C
  C10      1.0000 0.72630  0.88460  0.96290  Biso   1.000  C
  C11      1.0000 0.77370  0.38460  0.53710  Biso   1.000  C
  C12      1.0000 0.27370  0.88460  0.53710  Biso   1.000  C
  C13      1.0000 0.77370  0.61540  0.03710  Biso   1.000  C
  C14      1.0000 0.27370  0.11540  0.03710  Biso   1.000  C
  C15      1.0000 0.22630  0.61540  0.46290  Biso   1.000  C
  C16      1.0000 0.72630  0.11540  0.46290  Biso   1.000  C
  H1       1.0000 0.22780  0.42900  0.96770  Biso   1.000  H
  H2       1.0000 0.72780  0.92900  0.96770  Biso   1.000  H
  H3       1.0000 0.77220  0.42900  0.53230  Biso   1.000  H
  H4       1.0000 0.27220  0.92900  0.53230  Biso   1.000  H
  H5       1.0000 0.77220  0.57100  0.03230  Biso   1.000  H
  H6       1.0000 0.27220  0.07100  0.03230  Biso   1.000  H
  H7       1.0000 0.22780  0.57100  0.46770  Biso   1.000  H
  H8       1.0000 0.72780  0.07100  0.46770  Biso   1.000  H
  C17      1.0000 0.14230  0.35640  0.94890  Biso   1.000  C
  C18      1.0000 0.64230  0.85640  0.94890  Biso   1.000  C
  C19      1.0000 0.85770  0.35640  0.55110  Biso   1.000  C
  C20      1.0000 0.35770  0.85640  0.55110  Biso   1.000  C
  C21      1.0000 0.85770  0.64360  0.05110  Biso   1.000  C
  C22      1.0000 0.35770  0.14360  0.05110  Biso   1.000  C
  C23      1.0000 0.14230  0.64360  0.44890  Biso   1.000  C
  C24      1.0000 0.64230  0.14360  0.44890  Biso   1.000  C
  H9       1.0000 0.08870  0.38070  0.94410  Biso   1.000  H
  H10      1.0000 0.58870  0.88070  0.94410  Biso   1.000  H
  H11      1.0000 0.91130  0.38070  0.55590  Biso   1.000  H
  H12      1.0000 0.41130  0.88070  0.55590  Biso   1.000  H
  H13      1.0000 0.91130  0.61930  0.05590  Biso   1.000  H
  H14      1.0000 0.41130  0.11930  0.05590  Biso   1.000  H
  H15      1.0000 0.08870  0.61930  0.44410  Biso   1.000  H
  H16      1.0000 0.58870  0.11930  0.44410  Biso   1.000  H
  C25      1.0000 0.14380  0.29070  0.94250  Biso   1.000  C
  C26      1.0000 0.64380  0.79070  0.94250  Biso   1.000  C
  C27      1.0000 0.85620  0.29070  0.55750  Biso   1.000  C
  C28      1.0000 0.35620  0.79070  0.55750  Biso   1.000  C
  C29      1.0000 0.85620  0.70930  0.05750  Biso   1.000  C
  C30      1.0000 0.35620  0.20930  0.05750  Biso   1.000  C
  C31      1.0000 0.14380  0.70930  0.44250  Biso   1.000  C
  C32      1.0000 0.64380  0.20930  0.44250  Biso   1.000  C
  H17      1.0000 0.09010  0.26980  0.93270  Biso   1.000  H
  H18      1.0000 0.59010  0.76980  0.93270  Biso   1.000  H
  H19      1.0000 0.90990  0.26980  0.56730  Biso   1.000  H
  H20      1.0000 0.40990  0.76980  0.56730  Biso   1.000  H
  H21      1.0000 0.90990  0.73020  0.06730  Biso   1.000  H
  H22      1.0000 0.40990  0.23020  0.06730  Biso   1.000  H
  H23      1.0000 0.09010  0.73020  0.43270  Biso   1.000  H
  H24      1.0000 0.59010  0.23020  0.43270  Biso   1.000  H
  C33      1.0000 0.22230  0.25540  0.95030  Biso   1.000  C
  C34      1.0000 0.72230  0.75540  0.95030  Biso   1.000  C
  C35      1.0000 0.77770  0.25540  0.54970  Biso   1.000  C
  C36      1.0000 0.27770  0.75540  0.54970  Biso   1.000  C
  C37      1.0000 0.77770  0.74460  0.04970  Biso   1.000  C
  C38      1.0000 0.27770  0.24460  0.04970  Biso   1.000  C
  C39      1.0000 0.22230  0.74460  0.45030  Biso   1.000  C
  C40      1.0000 0.72230  0.24460  0.45030  Biso   1.000  C
  H25      1.0000 0.22190  0.21070  0.94650  Biso   1.000  H
  H26      1.0000 0.72190  0.71070  0.94650  Biso   1.000  H
  H27      1.0000 0.77810  0.21070  0.55350  Biso   1.000  H
  H28      1.0000 0.27810  0.71070  0.55350  Biso   1.000  H
  H29      1.0000 0.77810  0.78930  0.05350  Biso   1.000  H
  H30      1.0000 0.27810  0.28930  0.05350  Biso   1.000  H
  H31      1.0000 0.22190  0.78930  0.44650  Biso   1.000  H
  H32      1.0000 0.72190  0.28930  0.44650  Biso   1.000  H
  C41      1.0000 0.30130  0.28650  0.96380  Biso   1.000  C
  C42      1.0000 0.80130  0.78650  0.96380  Biso   1.000  C
  C43      1.0000 0.69870  0.28650  0.53620  Biso   1.000  C
  C44      1.0000 0.19870  0.78650  0.53620  Biso   1.000  C
  C45      1.0000 0.69870  0.71350  0.03620  Biso   1.000  C
  C46      1.0000 0.19870  0.21350  0.03620  Biso   1.000  C
  C47      1.0000 0.30130  0.71350  0.46380  Biso   1.000  C
  C48      1.0000 0.80130  0.21350  0.46380  Biso   1.000  C
  C49      1.0000 0.38920  0.25510  0.97420  Biso   1.000  C
  C50      1.0000 0.88920  0.75510  0.97420  Biso   1.000  C
  C51      1.0000 0.61080  0.25510  0.52580  Biso   1.000  C
  C52      1.0000 0.11080  0.75510  0.52580  Biso   1.000  C
  C53      1.0000 0.61080  0.74490  0.02580  Biso   1.000  C
  C54      1.0000 0.11080  0.24490  0.02580  Biso   1.000  C
  C55      1.0000 0.38920  0.74490  0.47420  Biso   1.000  C
  C56      1.0000 0.88920  0.24490  0.47420  Biso   1.000  C
  C57      1.0000 0.54070  0.27110  0.99740  Biso   1.000  C
  C58      1.0000 0.04070  0.77110  0.99740  Biso   1.000  C
  C59      1.0000 0.45930  0.27110  0.50260  Biso   1.000  C
  C60      1.0000 0.95930  0.77110  0.50260  Biso   1.000  C
  C61      1.0000 0.45930  0.72890  0.00260  Biso   1.000  C
  C62      1.0000 0.95930  0.22890  0.00260  Biso   1.000  C
  C63      1.0000 0.54070  0.72890  0.49740  Biso   1.000  C
  C64      1.0000 0.04070  0.22890  0.49740  Biso   1.000  C
  H33      1.0000 0.58780  0.29970  0.00590  Biso   1.000  H
  H34      1.0000 0.08780  0.79970  0.00590  Biso   1.000  H
  H35      1.0000 0.41220  0.29970  0.49410  Biso   1.000  H
  H36      1.0000 0.91220  0.79970  0.49410  Biso   1.000  H
  H37      1.0000 0.41220  0.70030  0.99410  Biso   1.000  H
  H38      1.0000 0.91220  0.20030  0.99410  Biso   1.000  H
  H39      1.0000 0.58780  0.70030  0.50590  Biso   1.000  H
  H40      1.0000 0.08780  0.20030  0.50590  Biso   1.000  H
  C65      1.0000 0.55970  0.20320  0.99610  Biso   1.000  C
  C66      1.0000 0.05970  0.70320  0.99610  Biso   1.000  C
  C67      1.0000 0.44030  0.20320  0.50390  Biso   1.000  C
  C68      1.0000 0.94030  0.70320  0.50390  Biso   1.000  C
  C69      1.0000 0.44030  0.79680  0.00390  Biso   1.000  C
  C70      1.0000 0.94030  0.29680  0.00390  Biso   1.000  C
  C71      1.0000 0.55970  0.79680  0.49610  Biso   1.000  C
  C72      1.0000 0.05970  0.29680  0.49610  Biso   1.000  C
  H41      1.0000 0.61760  0.18650  0.00410  Biso   1.000  H
  H42      1.0000 0.11760  0.68650  0.00410  Biso   1.000  H
  H43      1.0000 0.38240  0.18650  0.49590  Biso   1.000  H
  H44      1.0000 0.88240  0.68650  0.49590  Biso   1.000  H
  H45      1.0000 0.38240  0.81350  0.99590  Biso   1.000  H
  H46      1.0000 0.88240  0.31350  0.99590  Biso   1.000  H
  H47      1.0000 0.61760  0.81350  0.50410  Biso   1.000  H
  H48      1.0000 0.11760  0.31350  0.50410  Biso   1.000  H
  C73      1.0000 0.48920  0.16430  0.98260  Biso   1.000  C
  C74      1.0000 0.98920  0.66430  0.98260  Biso   1.000  C
  C75      1.0000 0.51080  0.16430  0.51740  Biso   1.000  C
  C76      1.0000 0.01080  0.66430  0.51740  Biso   1.000  C
  C77      1.0000 0.51080  0.83570  0.01740  Biso   1.000  C
  C78      1.0000 0.01080  0.33570  0.01740  Biso   1.000  C
  C79      1.0000 0.48920  0.83570  0.48260  Biso   1.000  C
  C80      1.0000 0.98920  0.33570  0.48260  Biso   1.000  C
  H49      1.0000 0.49870  0.11970  0.98050  Biso   1.000  H
  H50      1.0000 0.99870  0.61970  0.98050  Biso   1.000  H
  H51      1.0000 0.50130  0.11970  0.51950  Biso   1.000  H
  H52      1.0000 0.00130  0.61970  0.51950  Biso   1.000  H
  H53      1.0000 0.50130  0.88030  0.01950  Biso   1.000  H
  H54      1.0000 0.00130  0.38030  0.01950  Biso   1.000  H
  H55      1.0000 0.49870  0.88030  0.48050  Biso   1.000  H
  H56      1.0000 0.99870  0.38030  0.48050  Biso   1.000  H
  C81      1.0000 0.40510  0.18960  0.97220  Biso   1.000  C
  C82      1.0000 0.90510  0.68960  0.97220  Biso   1.000  C
  C83      1.0000 0.59490  0.18960  0.52780  Biso   1.000  C
  C84      1.0000 0.09490  0.68960  0.52780  Biso   1.000  C
  C85      1.0000 0.59490  0.81040  0.02780  Biso   1.000  C
  C86      1.0000 0.09490  0.31040  0.02780  Biso   1.000  C
  C87      1.0000 0.40510  0.81040  0.47220  Biso   1.000  C
  C88      1.0000 0.90510  0.31040  0.47220  Biso   1.000  C
  H57      1.0000 0.35700  0.16190  0.96360  Biso   1.000  H
  H58      1.0000 0.85700  0.66190  0.96360  Biso   1.000  H
  H59      1.0000 0.64300  0.16190  0.53640  Biso   1.000  H
  H60      1.0000 0.14300  0.66190  0.53640  Biso   1.000  H
  H61      1.0000 0.64300  0.83810  0.03640  Biso   1.000  H
  H62      1.0000 0.14300  0.33810  0.03640  Biso   1.000  H
  H63      1.0000 0.35700  0.83810  0.46360  Biso   1.000  H
  H64      1.0000 0.85700  0.33810  0.46360  Biso   1.000  H
  N1       1.0000 0.45790  0.29450  0.98680  Biso   1.000  N
  N2       1.0000 0.95790  0.79450  0.98680  Biso   1.000  N
  N3       1.0000 0.54210  0.29450  0.51320  Biso   1.000  N
  N4       1.0000 0.04210  0.79450  0.51320  Biso   1.000  N
  N5       1.0000 0.54210  0.70550  0.01320  Biso   1.000  N
  N6       1.0000 0.04210  0.20550  0.01320  Biso   1.000  N
  N7       1.0000 0.45790  0.70550  0.48680  Biso   1.000  N
  N8       1.0000 0.95790  0.20550  0.48680  Biso   1.000  N
  N9       1.0000 0.30370  0.35140  0.96987  Biso   1.000  N
  N10      1.0000 0.80370  0.85140  0.96987  Biso   1.000  N
  N11      1.0000 0.69630  0.35140  0.53013  Biso   1.000  N
  N12      1.0000 0.19630  0.85140  0.53013  Biso   1.000  N
  N13      1.0000 0.69630  0.64860  0.03013  Biso   1.000  N
  N14      1.0000 0.19630  0.14860  0.03013  Biso   1.000  N
  N15      1.0000 0.30370  0.64860  0.46987  Biso   1.000  N
  N16      1.0000 0.80370  0.14860  0.46987  Biso   1.000  N
  O1       1.0000 0.31680  0.68920  0.12622  Biso   1.000  O
  O2       1.0000 0.81680  0.18920  0.12622  Biso   1.000  O
  O3       1.0000 0.68320  0.68920  0.37378  Biso   1.000  O
  O4       1.0000 0.18320  0.18920  0.37378  Biso   1.000  O
  O5       1.0000 0.68320  0.31080  0.87378  Biso   1.000  O
  O6       1.0000 0.18320  0.81080  0.87378  Biso   1.000  O
  O7       1.0000 0.31680  0.31080  0.62622  Biso   1.000  O
  O8       1.0000 0.81680  0.81080  0.62622  Biso   1.000  O
  O9       1.0000 0.33890  0.58240  0.17488  Biso   1.000  O
  O10      1.0000 0.83890  0.08240  0.17488  Biso   1.000  O
  O11      1.0000 0.66110  0.58240  0.32512  Biso   1.000  O
  O12      1.0000 0.16110  0.08240  0.32512  Biso   1.000  O
  O13      1.0000 0.66110  0.41760  0.82512  Biso   1.000  O
  O14      1.0000 0.16110  0.91760  0.82512  Biso   1.000  O
  O15      1.0000 0.33890  0.41760  0.67488  Biso   1.000  O
  O16      1.0000 0.83890  0.91760  0.67488  Biso   1.000  O
  O17      1.0000 0.39080  0.51110  0.12943  Biso   1.000  O
  O18      1.0000 0.89080  0.01110  0.12943  Biso   1.000  O
  O19      1.0000 0.60920  0.51110  0.37057  Biso   1.000  O
  O20      1.0000 0.10920  0.01110  0.37057  Biso   1.000  O
  O21      1.0000 0.60920  0.48890  0.87057  Biso   1.000  O
  O22      1.0000 0.10920  0.98890  0.87057  Biso   1.000  O
  O23      1.0000 0.39080  0.48890  0.62943  Biso   1.000  O
  O24      1.0000 0.89080  0.98890  0.62943  Biso   1.000  O
  O25      1.0000 0.44350  0.40290  0.17798  Biso   1.000  O
  O26      1.0000 0.94350  0.90290  0.17798  Biso   1.000  O
  O27      1.0000 0.55650  0.40290  0.32202  Biso   1.000  O
  O28      1.0000 0.05650  0.90290  0.32202  Biso   1.000  O
  O29      1.0000 0.55650  0.59710  0.82202  Biso   1.000  O
  O30      1.0000 0.05650  0.09710  0.82202  Biso   1.000  O
  O31      1.0000 0.44350  0.59710  0.67798  Biso   1.000  O
  O32      1.0000 0.94350  0.09710  0.67798  Biso   1.000  O
  O33      1.0000 0.48790  0.65390  0.20746  Biso   1.000  O
  O34      1.0000 0.98790  0.15390  0.20746  Biso   1.000  O
  O35      1.0000 0.51210  0.65390  0.29254  Biso   1.000  O
  O36      1.0000 0.01210  0.15390  0.29254  Biso   1.000  O
  O37      1.0000 0.51210  0.34610  0.79254  Biso   1.000  O
  O38      1.0000 0.01210  0.84610  0.79254  Biso   1.000  O
  O39      1.0000 0.48790  0.34610  0.70746  Biso   1.000  O
  O40      1.0000 0.98790  0.84610  0.70746  Biso   1.000  O
  O41      1.0000 0.23550  0.56100  0.11780  Biso   1.000  O
  O42      1.0000 0.73550  0.06100  0.11780  Biso   1.000  O
  O43      1.0000 0.76450  0.56100  0.38220  Biso   1.000  O
  O44      1.0000 0.26450  0.06100  0.38220  Biso   1.000  O
  O45      1.0000 0.76450  0.43900  0.88220  Biso   1.000  O
  O46      1.0000 0.26450  0.93900  0.88220  Biso   1.000  O
  O47      1.0000 0.23550  0.43900  0.61780  Biso   1.000  O
  O48      1.0000 0.73550  0.93900  0.61780  Biso   1.000  O
  O49      1.0000 0.45140  0.50660  0.06844  Biso   1.000  O
  O50      1.0000 0.95140  0.00660  0.06844  Biso   1.000  O
  O51      1.0000 0.54860  0.50660  0.43156  Biso   1.000  O
  O52      1.0000 0.04860  0.00660  0.43156  Biso   1.000  O
  O53      1.0000 0.54860  0.49340  0.93156  Biso   1.000  O
  O54      1.0000 0.04860  0.99340  0.93156  Biso   1.000  O
  O55      1.0000 0.45140  0.49340  0.56844  Biso   1.000  O
  O56      1.0000 0.95140  0.99340  0.56844  Biso   1.000  O
  O57      1.0000 0.39810  0.37890  0.04669  Biso   1.000  O
  O58      1.0000 0.89810  0.87890  0.04669  Biso   1.000  O
  O59      1.0000 0.60190  0.37890  0.45331  Biso   1.000  O
  O60      1.0000 0.10190  0.87890  0.45331  Biso   1.000  O
  O61      1.0000 0.60190  0.62110  0.95331  Biso   1.000  O
  O62      1.0000 0.10190  0.12110  0.95331  Biso   1.000  O
  O63      1.0000 0.39810  0.62110  0.54669  Biso   1.000  O
  O64      1.0000 0.89810  0.12110  0.54669  Biso   1.000  O
  O65      1.0000 0.47880  0.63640  0.13698  Biso   1.000  O
  O66      1.0000 0.97880  0.13640  0.13698  Biso   1.000  O
  O67      1.0000 0.52120  0.63640  0.36302  Biso   1.000  O
  O68      1.0000 0.02120  0.13640  0.36302  Biso   1.000  O
  O69      1.0000 0.52120  0.36360  0.86302  Biso   1.000  O
  O70      1.0000 0.02120  0.86360  0.86302  Biso   1.000  O
  O71      1.0000 0.47880  0.36360  0.63698  Biso   1.000  O
  O72      1.0000 0.97880  0.86360  0.63698  Biso   1.000  O
  O73      1.0000 0.56500  0.52340  0.12809  Biso   1.000  O
  O74      1.0000 0.06500  0.02340  0.12809  Biso   1.000  O
  O75      1.0000 0.43500  0.52340  0.37191  Biso   1.000  O
  O76      1.0000 0.93500  0.02340  0.37191  Biso   1.000  O
  O77      1.0000 0.43500  0.47660  0.87191  Biso   1.000  O
  O78      1.0000 0.93500  0.97660  0.87191  Biso   1.000  O
  O79      1.0000 0.56500  0.47660  0.62809  Biso   1.000  O
  O80      1.0000 0.06500  0.97660  0.62809  Biso   1.000  O
  O81      1.0000 0.26910  0.47120  0.16174  Biso   1.000  O
  O82      1.0000 0.76910  0.97120  0.16174  Biso   1.000  O
  O83      1.0000 0.73090  0.47120  0.33826  Biso   1.000  O
  O84      1.0000 0.23090  0.97120  0.33826  Biso   1.000  O
  O85      1.0000 0.73090  0.52880  0.83826  Biso   1.000  O
  O86      1.0000 0.23090  0.02880  0.83826  Biso   1.000  O
  O87      1.0000 0.26910  0.52880  0.66174  Biso   1.000  O
  O88      1.0000 0.76910  0.02880  0.66174  Biso   1.000  O
  O89      1.0000 0.19660  0.59360  0.05199  Biso   1.000  O
  O90      1.0000 0.69660  0.09360  0.05199  Biso   1.000  O
  O91      1.0000 0.80340  0.59360  0.44801  Biso   1.000  O
  O92      1.0000 0.30340  0.09360  0.44801  Biso   1.000  O
  O93      1.0000 0.80340  0.40640  0.94801  Biso   1.000  O
  O94      1.0000 0.30340  0.90640  0.94801  Biso   1.000  O
  O95      1.0000 0.19660  0.40640  0.55199  Biso   1.000  O
  O96      1.0000 0.69660  0.90640  0.55199  Biso   1.000  O
  O97      1.0000 0.27560  0.47900  0.06255  Biso   1.000  O
  O98      1.0000 0.77560  0.97900  0.06255  Biso   1.000  O
  O99      1.0000 0.72440  0.47900  0.43745  Biso   1.000  O
  O100     1.0000 0.22440  0.97900  0.43745  Biso   1.000  O
  O101     1.0000 0.72440  0.52100  0.93745  Biso   1.000  O
  O102     1.0000 0.22440  0.02100  0.93745  Biso   1.000  O
  O103     1.0000 0.27560  0.52100  0.56255  Biso   1.000  O
  O104     1.0000 0.77560  0.02100  0.56255  Biso   1.000  O
  O105     1.0000 0.30740  0.38110  0.10456  Biso   1.000  O
  O106     1.0000 0.80740  0.88110  0.10456  Biso   1.000  O
  O107     1.0000 0.69260  0.38110  0.39544  Biso   1.000  O
  O108     1.0000 0.19260  0.88110  0.39544  Biso   1.000  O
  O109     1.0000 0.69260  0.61890  0.89544  Biso   1.000  O
  O110     1.0000 0.19260  0.11890  0.89544  Biso   1.000  O
  O111     1.0000 0.30740  0.61890  0.60456  Biso   1.000  O
  O112     1.0000 0.80740  0.11890  0.60456  Biso   1.000  O
  O113     1.0000 0.53150  0.51570  0.19396  Biso   1.000  O
  O114     1.0000 0.03150  0.01570  0.19396  Biso   1.000  O
  O115     1.0000 0.46850  0.51570  0.30604  Biso   1.000  O
  O116     1.0000 0.96850  0.01570  0.30604  Biso   1.000  O
  O117     1.0000 0.46850  0.48430  0.80604  Biso   1.000  O
  O118     1.0000 0.96850  0.98430  0.80604  Biso   1.000  O
  O119     1.0000 0.53150  0.48430  0.69396  Biso   1.000  O
  O120     1.0000 0.03150  0.98430  0.69396  Biso   1.000  O
  O121     1.0000 0.28030  0.34450  0.16761  Biso   1.000  O
  O122     1.0000 0.78030  0.84450  0.16761  Biso   1.000  O
  O123     1.0000 0.71970  0.34450  0.33239  Biso   1.000  O
  O124     1.0000 0.21970  0.84450  0.33239  Biso   1.000  O
  O125     1.0000 0.71970  0.65550  0.83239  Biso   1.000  O
  O126     1.0000 0.21970  0.15550  0.83239  Biso   1.000  O
  O127     1.0000 0.28030  0.65550  0.66761  Biso   1.000  O
  O128     1.0000 0.78030  0.15550  0.66761  Biso   1.000  O
  O129     1.0000 0.55740  0.61790  0.07634  Biso   1.000  O
  O130     1.0000 0.05740  0.11790  0.07634  Biso   1.000  O
  O131     1.0000 0.44260  0.61790  0.42366  Biso   1.000  O
  O132     1.0000 0.94260  0.11790  0.42366  Biso   1.000  O
  O133     1.0000 0.44260  0.38210  0.92366  Biso   1.000  O
  O134     1.0000 0.94260  0.88210  0.92366  Biso   1.000  O
  O135     1.0000 0.55740  0.38210  0.57634  Biso   1.000  O
  O136     1.0000 0.05740  0.88210  0.57634  Biso   1.000  O
  O137     1.0000 0.48420  0.41010  0.11397  Biso   1.000  O
  O138     1.0000 0.98420  0.91010  0.11397  Biso   1.000  O
  O139     1.0000 0.51580  0.41010  0.38603  Biso   1.000  O
  O140     1.0000 0.01580  0.91010  0.38603  Biso   1.000  O
  O141     1.0000 0.51580  0.58990  0.88603  Biso   1.000  O
  O142     1.0000 0.01580  0.08990  0.88603  Biso   1.000  O
  O143     1.0000 0.48420  0.58990  0.61397  Biso   1.000  O
  O144     1.0000 0.98420  0.08990  0.61397  Biso   1.000  O
  O145     1.0000 0.16030  0.63880  0.16772  Biso   1.000  O
  O146     1.0000 0.66030  0.13880  0.16772  Biso   1.000  O
  O147     1.0000 0.83970  0.63880  0.33228  Biso   1.000  O
  O148     1.0000 0.33970  0.13880  0.33228  Biso   1.000  O
  O149     1.0000 0.83970  0.36120  0.83228  Biso   1.000  O
  O150     1.0000 0.33970  0.86120  0.83228  Biso   1.000  O
  O151     1.0000 0.16030  0.36120  0.66772  Biso   1.000  O
  O152     1.0000 0.66030  0.86120  0.66772  Biso   1.000  O
  O153     1.0000 0.19200  0.54670  0.21268  Biso   1.000  O
  O154     1.0000 0.69200  0.04670  0.21268  Biso   1.000  O
  O155     1.0000 0.80800  0.54670  0.28732  Biso   1.000  O
  O156     1.0000 0.30800  0.04670  0.28732  Biso   1.000  O
  O157     1.0000 0.80800  0.45330  0.78732  Biso   1.000  O
  O158     1.0000 0.30800  0.95330  0.78732  Biso   1.000  O
  O159     1.0000 0.19200  0.45330  0.71268  Biso   1.000  O
  O160     1.0000 0.69200  0.95330  0.71268  Biso   1.000  O
  O161     1.0000 0.36970  0.61720  0.07892  Biso   1.000  O
  O162     1.0000 0.86970  0.11720  0.07892  Biso   1.000  O
  O163     1.0000 0.63030  0.61720  0.42108  Biso   1.000  O
  O164     1.0000 0.13030  0.11720  0.42108  Biso   1.000  O
  O165     1.0000 0.63030  0.38280  0.92108  Biso   1.000  O
  O166     1.0000 0.13030  0.88280  0.92108  Biso   1.000  O
  O167     1.0000 0.36970  0.38280  0.57892  Biso   1.000  O
  O168     1.0000 0.86970  0.88280  0.57892  Biso   1.000  O
  O169     1.0000 0.14830  0.43690  0.09477  Biso   1.000  O
  O170     1.0000 0.64830  0.93690  0.09477  Biso   1.000  O
  O171     1.0000 0.85170  0.43690  0.40523  Biso   1.000  O
  O172     1.0000 0.35170  0.93690  0.40523  Biso   1.000  O
  O173     1.0000 0.85170  0.56310  0.90523  Biso   1.000  O
  O174     1.0000 0.35170  0.06310  0.90523  Biso   1.000  O
  O175     1.0000 0.14830  0.56310  0.59477  Biso   1.000  O
  O176     1.0000 0.64830  0.06310  0.59477  Biso   1.000  O
  O177     1.0000 0.25580  0.72460  0.05742  Biso   1.000  O
  O178     1.0000 0.75580  0.22460  0.05742  Biso   1.000  O
  O179     1.0000 0.74420  0.72460  0.44258  Biso   1.000  O
  O180     1.0000 0.24420  0.22460  0.44258  Biso   1.000  O
  O181     1.0000 0.74420  0.27540  0.94258  Biso   1.000  O
  O182     1.0000 0.24420  0.77540  0.94258  Biso   1.000  O
  O183     1.0000 0.25580  0.27540  0.55742  Biso   1.000  O
  O184     1.0000 0.75580  0.77540  0.55742  Biso   1.000  O
  O185     1.0000 0.34160  0.60550  0.24582  Biso   1.000  O
  O186     1.0000 0.84160  0.10550  0.24582  Biso   1.000  O
  O187     1.0000 0.65840  0.60550  0.25418  Biso   1.000  O
  O188     1.0000 0.15840  0.10550  0.25418  Biso   1.000  O
  O189     1.0000 0.65840  0.39450  0.75418  Biso   1.000  O
  O190     1.0000 0.15840  0.89450  0.75418  Biso   1.000  O
  O191     1.0000 0.34160  0.39450  0.74582  Biso   1.000  O
  O192     1.0000 0.84160  0.89450  0.74582  Biso   1.000  O
  O193     1.0000 0.08250  0.52580  0.15402  Biso   1.000  O
  O194     1.0000 0.58250  0.02580  0.15402  Biso   1.000  O
  O195     1.0000 0.91750  0.52580  0.34598  Biso   1.000  O
  O196     1.0000 0.41750  0.02580  0.34598  Biso   1.000  O
  O197     1.0000 0.91750  0.47420  0.84598  Biso   1.000  O
  O198     1.0000 0.41750  0.97420  0.84598  Biso   1.000  O
  O199     1.0000 0.08250  0.47420  0.65402  Biso   1.000  O
  O200     1.0000 0.58250  0.97420  0.65402  Biso   1.000  O
  O201     1.0000 0.15540  0.30200  0.11186  Biso   1.000  O
  O202     1.0000 0.65540  0.80200  0.11186  Biso   1.000  O
  O203     1.0000 0.84460  0.30200  0.38814  Biso   1.000  O
  O204     1.0000 0.34460  0.80200  0.38814  Biso   1.000  O
  O205     1.0000 0.84460  0.69800  0.88814  Biso   1.000  O
  O206     1.0000 0.34460  0.19800  0.88814  Biso   1.000  O
  O207     1.0000 0.15540  0.69800  0.61186  Biso   1.000  O
  O208     1.0000 0.65540  0.19800  0.61186  Biso   1.000  O
  O209     1.0000 0.06820  0.55170  0.08619  Biso   1.000  O
  O210     1.0000 0.56820  0.05170  0.08619  Biso   1.000  O
  O211     1.0000 0.93180  0.55170  0.41381  Biso   1.000  O
  O212     1.0000 0.43180  0.05170  0.41381  Biso   1.000  O
  O213     1.0000 0.93180  0.44830  0.91381  Biso   1.000  O
  O214     1.0000 0.43180  0.94830  0.91381  Biso   1.000  O
  O215     1.0000 0.06820  0.44830  0.58619  Biso   1.000  O
  O216     1.0000 0.56820  0.94830  0.58619  Biso   1.000  O
  O217     1.0000 0.63150  0.41720  0.17058  Biso   1.000  O
  O218     1.0000 0.13150  0.91720  0.17058  Biso   1.000  O
  O219     1.0000 0.36850  0.41720  0.32942  Biso   1.000  O
  O220     1.0000 0.86850  0.91720  0.32942  Biso   1.000  O
  O221     1.0000 0.36850  0.58280  0.82942  Biso   1.000  O
  O222     1.0000 0.86850  0.08280  0.82942  Biso   1.000  O
  O223     1.0000 0.63150  0.58280  0.67058  Biso   1.000  O
  O224     1.0000 0.13150  0.08280  0.67058  Biso   1.000  O
  O225     1.0000 0.45640  0.76080  0.16666  Biso   1.000  O
  O226     1.0000 0.95640  0.26080  0.16666  Biso   1.000  O
  O227     1.0000 0.54360  0.76080  0.33334  Biso   1.000  O
  O228     1.0000 0.04360  0.26080  0.33334  Biso   1.000  O
  O229     1.0000 0.54360  0.23920  0.83334  Biso   1.000  O
  O230     1.0000 0.04360  0.73920  0.83334  Biso   1.000  O
  O231     1.0000 0.45640  0.23920  0.66666  Biso   1.000  O
  O232     1.0000 0.95640  0.73920  0.66666  Biso   1.000  O
  O233     1.0000 0.39360  0.47110  0.23090  Biso   1.000  O
  O234     1.0000 0.89360  0.97110  0.23090  Biso   1.000  O
  O235     1.0000 0.60640  0.47110  0.26910  Biso   1.000  O
  O236     1.0000 0.10640  0.97110  0.26910  Biso   1.000  O
  O237     1.0000 0.60640  0.52890  0.76910  Biso   1.000  O
  O238     1.0000 0.10640  0.02890  0.76910  Biso   1.000  O
  O239     1.0000 0.39360  0.52890  0.73090  Biso   1.000  O
  O240     1.0000 0.89360  0.02890  0.73090  Biso   1.000  O
  O241     1.0000 0.31420  0.69920  0.19487  Biso   1.000  O
  O242     1.0000 0.81420  0.19920  0.19487  Biso   1.000  O
  O243     1.0000 0.68580  0.69920  0.30513  Biso   1.000  O
  O244     1.0000 0.18580  0.19920  0.30513  Biso   1.000  O
  O245     1.0000 0.68580  0.30080  0.80513  Biso   1.000  O
  O246     1.0000 0.18580  0.80080  0.80513  Biso   1.000  O
  O247     1.0000 0.31420  0.30080  0.69487  Biso   1.000  O
  O248     1.0000 0.81420  0.80080  0.69487  Biso   1.000  O
  O249     1.0000 0.09480  0.48550  0.02601  Biso   1.000  O
  O250     1.0000 0.59480  0.98550  0.02601  Biso   1.000  O
  O251     1.0000 0.90520  0.48550  0.47399  Biso   1.000  O
  O252     1.0000 0.40520  0.98550  0.47399  Biso   1.000  O
  O253     1.0000 0.90520  0.51450  0.97399  Biso   1.000  O
  O254     1.0000 0.40520  0.01450  0.97399  Biso   1.000  O
  O255     1.0000 0.09480  0.51450  0.52601  Biso   1.000  O
  O256     1.0000 0.59480  0.01450  0.52601  Biso   1.000  O
  O257     1.0000 0.04570  0.45750  0.21235  Biso   1.000  O
  O258     1.0000 0.54570  0.95750  0.21235  Biso   1.000  O
  O259     1.0000 0.95430  0.45750  0.28765  Biso   1.000  O
  O260     1.0000 0.45430  0.95750  0.28765  Biso   1.000  O
  O261     1.0000 0.95430  0.54250  0.78765  Biso   1.000  O
  O262     1.0000 0.45430  0.04250  0.78765  Biso   1.000  O
  O263     1.0000 0.04570  0.54250  0.71235  Biso   1.000  O
  O264     1.0000 0.54570  0.04250  0.71235  Biso   1.000  O
  O265     1.0000 0.18360  0.67480  0.23794  Biso   1.000  O
  O266     1.0000 0.68360  0.17480  0.23794  Biso   1.000  O
  O267     1.0000 0.81640  0.67480  0.26206  Biso   1.000  O
  O268     1.0000 0.31640  0.17480  0.26206  Biso   1.000  O
  O269     1.0000 0.81640  0.32520  0.76206  Biso   1.000  O
  O270     1.0000 0.31640  0.82520  0.76206  Biso   1.000  O
  O271     1.0000 0.18360  0.32520  0.73794  Biso   1.000  O
  O272     1.0000 0.68360  0.82520  0.73794  Biso   1.000  O
  O273     1.0000 0.98490  0.63770  0.12950  Biso   1.000  O
  O274     1.0000 0.48490  0.13770  0.12950  Biso   1.000  O
  O275     1.0000 0.01510  0.63770  0.37050  Biso   1.000  O
  O276     1.0000 0.51510  0.13770  0.37050  Biso   1.000  O
  O277     1.0000 0.01510  0.36230  0.87050  Biso   1.000  O
  O278     1.0000 0.51510  0.86230  0.87050  Biso   1.000  O
  O279     1.0000 0.98490  0.36230  0.62950  Biso   1.000  O
  O280     1.0000 0.48490  0.86230  0.62950  Biso   1.000  O
  O281     1.0000 0.14020  0.66820  0.09949  Biso   1.000  O
  O282     1.0000 0.64020  0.16820  0.09949  Biso   1.000  O
  O283     1.0000 0.85980  0.66820  0.40051  Biso   1.000  O
  O284     1.0000 0.35980  0.16820  0.40051  Biso   1.000  O
  O285     1.0000 0.85980  0.33180  0.90051  Biso   1.000  O
  O286     1.0000 0.35980  0.83180  0.90051  Biso   1.000  O
  O287     1.0000 0.14020  0.33180  0.59949  Biso   1.000  O
  O288     1.0000 0.64020  0.83180  0.59949  Biso   1.000  O
  O289     1.0000 0.11800  0.39930  0.15723  Biso   1.000  O
  O290     1.0000 0.61800  0.89930  0.15723  Biso   1.000  O
  O291     1.0000 0.88200  0.39930  0.34277  Biso   1.000  O
  O292     1.0000 0.38200  0.89930  0.34277  Biso   1.000  O
  O293     1.0000 0.88200  0.60070  0.84277  Biso   1.000  O
  O294     1.0000 0.38200  0.10070  0.84277  Biso   1.000  O
  O295     1.0000 0.11800  0.60070  0.65723  Biso   1.000  O
  O296     1.0000 0.61800  0.10070  0.65723  Biso   1.000  O
  O297     1.0000 0.38590  0.33590  0.23525  Biso   1.000  O
  O298     1.0000 0.88590  0.83590  0.23525  Biso   1.000  O
  O299     1.0000 0.61410  0.33590  0.26475  Biso   1.000  O
  O300     1.0000 0.11410  0.83590  0.26475  Biso   1.000  O
  O301     1.0000 0.61410  0.66410  0.76475  Biso   1.000  O
  O302     1.0000 0.11410  0.16410  0.76475  Biso   1.000  O
  O303     1.0000 0.38590  0.66410  0.73525  Biso   1.000  O
  O304     1.0000 0.88590  0.16410  0.73525  Biso   1.000  O
  O305     1.0000 0.22790  0.41500  0.21699  Biso   1.000  O
  O306     1.0000 0.72790  0.91500  0.21699  Biso   1.000  O
  O307     1.0000 0.77210  0.41500  0.28301  Biso   1.000  O
  O308     1.0000 0.27210  0.91500  0.28301  Biso   1.000  O
  O309     1.0000 0.77210  0.58500  0.78301  Biso   1.000  O
  O310     1.0000 0.27210  0.08500  0.78301  Biso   1.000  O
  O311     1.0000 0.22790  0.58500  0.71699  Biso   1.000  O
  O312     1.0000 0.72790  0.08500  0.71699  Biso   1.000  O
  O313     1.0000 0.38660  0.48000  0.98322  Biso   1.000  O
  O314     1.0000 0.88660  0.98000  0.98322  Biso   1.000  O
  O315     1.0000 0.61340  0.48000  0.51678  Biso   1.000  O
  O316     1.0000 0.11340  0.98000  0.51678  Biso   1.000  O
  O317     1.0000 0.61340  0.52000  0.01678  Biso   1.000  O
  O318     1.0000 0.11340  0.02000  0.01678  Biso   1.000  O
  O319     1.0000 0.38660  0.52000  0.48322  Biso   1.000  O
  O320     1.0000 0.88660  0.02000  0.48322  Biso   1.000  O
  O321     1.0000 0.45190  0.57790  0.99435  Biso   1.000  O
  O322     1.0000 0.95190  0.07790  0.99435  Biso   1.000  O
  O323     1.0000 0.54810  0.57790  0.50565  Biso   1.000  O
  O324     1.0000 0.04810  0.07790  0.50565  Biso   1.000  O
  O325     1.0000 0.54810  0.42210  0.00565  Biso   1.000  O
  O326     1.0000 0.04810  0.92210  0.00565  Biso   1.000  O
  O327     1.0000 0.45190  0.42210  0.49435  Biso   1.000  O
  O328     1.0000 0.95190  0.92210  0.49435  Biso   1.000  O
