data_image0
_cell_length_a       14.697
_cell_length_b       20.431
_cell_length_c       38.639
_cell_angle_alpha    90
_cell_angle_beta     99.53
_cell_angle_gamma    90

_symmetry_space_group_name_H-M    "P 1"
_symmetry_int_tables_number       1

loop_
  _symmetry_equiv_pos_as_xyz
  'x, y, z'

loop_
  _atom_site_label
  _atom_site_occupancy
  _atom_site_fract_x
  _atom_site_fract_y
  _atom_site_fract_z
  _atom_site_thermal_displace_type
  _atom_site_B_iso_or_equiv
  _atom_site_type_symbol
  K1       1.0000 0.83530  0.87660  0.31645  Biso   1.000  K
  K2       1.0000 0.33530  0.37660  0.31645  Biso   1.000  K
  K3       1.0000 0.16470  0.87660  0.18355  Biso   1.000  K
  K4       1.0000 0.66470  0.37660  0.18355  Biso   1.000  K
  K5       1.0000 0.16470  0.12340  0.68355  Biso   1.000  K
  K6       1.0000 0.66470  0.62340  0.68355  Biso   1.000  K
  K7       1.0000 0.83530  0.12340  0.81645  Biso   1.000  K
  K8       1.0000 0.33530  0.62340  0.81645  Biso   1.000  K
  W1       1.0000 0.03211  0.04125  0.16151  Biso   1.000  W
  W2       1.0000 0.53211  0.54125  0.16151  Biso   1.000  W
  W3       1.0000 0.96789  0.04125  0.33849  Biso   1.000  W
  W4       1.0000 0.46789  0.54125  0.33849  Biso   1.000  W
  W5       1.0000 0.96789  0.95875  0.83849  Biso   1.000  W
  W6       1.0000 0.46789  0.45875  0.83849  Biso   1.000  W
  W7       1.0000 0.03211  0.95875  0.66151  Biso   1.000  W
  W8       1.0000 0.53211  0.45875  0.66151  Biso   1.000  W
  W9       1.0000 0.91611  0.81732  0.17011  Biso   1.000  W
  W10      1.0000 0.41611  0.31732  0.17011  Biso   1.000  W
  W11      1.0000 0.08389  0.81732  0.32989  Biso   1.000  W
  W12      1.0000 0.58389  0.31732  0.32989  Biso   1.000  W
  W13      1.0000 0.08389  0.18268  0.82989  Biso   1.000  W
  W14      1.0000 0.58389  0.68268  0.82989  Biso   1.000  W
  W15      1.0000 0.91611  0.18268  0.67011  Biso   1.000  W
  W16      1.0000 0.41611  0.68268  0.67011  Biso   1.000  W
  W17      1.0000 0.98518  0.92014  0.09916  Biso   1.000  W
  W18      1.0000 0.48518  0.42014  0.09916  Biso   1.000  W
  W19      1.0000 0.01482  0.92014  0.40084  Biso   1.000  W
  W20      1.0000 0.51482  0.42014  0.40084  Biso   1.000  W
  W21      1.0000 0.01482  0.07986  0.90084  Biso   1.000  W
  W22      1.0000 0.51482  0.57986  0.90084  Biso   1.000  W
  W23      1.0000 0.98518  0.07986  0.59916  Biso   1.000  W
  W24      1.0000 0.48518  0.57986  0.59916  Biso   1.000  W
  W25      1.0000 0.85345  0.09831  0.20864  Biso   1.000  W
  W26      1.0000 0.35345  0.59831  0.20864  Biso   1.000  W
  W27      1.0000 0.14655  0.09831  0.29136  Biso   1.000  W
  W28      1.0000 0.64655  0.59831  0.29136  Biso   1.000  W
  W29      1.0000 0.14655  0.90169  0.79136  Biso   1.000  W
  W30      1.0000 0.64655  0.40169  0.79136  Biso   1.000  W
  W31      1.0000 0.85345  0.90169  0.70864  Biso   1.000  W
  W32      1.0000 0.35345  0.40169  0.70864  Biso   1.000  W
  W33      1.0000 0.88951  0.06979  0.08113  Biso   1.000  W
  W34      1.0000 0.38951  0.56979  0.08113  Biso   1.000  W
  W35      1.0000 0.11049  0.06979  0.41887  Biso   1.000  W
  W36      1.0000 0.61049  0.56979  0.41887  Biso   1.000  W
  W37      1.0000 0.11049  0.93021  0.91887  Biso   1.000  W
  W38      1.0000 0.61049  0.43021  0.91887  Biso   1.000  W
  W39      1.0000 0.88951  0.93021  0.58113  Biso   1.000  W
  W40      1.0000 0.38951  0.43021  0.58113  Biso   1.000  W
  W41      1.0000 0.74994  0.86951  0.21370  Biso   1.000  W
  W42      1.0000 0.24994  0.36951  0.21370  Biso   1.000  W
  W43      1.0000 0.25006  0.86951  0.28630  Biso   1.000  W
  W44      1.0000 0.75006  0.36951  0.28630  Biso   1.000  W
  W45      1.0000 0.25006  0.13049  0.78630  Biso   1.000  W
  W46      1.0000 0.75006  0.63049  0.78630  Biso   1.000  W
  W47      1.0000 0.74994  0.13049  0.71370  Biso   1.000  W
  W48      1.0000 0.24994  0.63049  0.71370  Biso   1.000  W
  W49      1.0000 0.75853  0.84158  0.08385  Biso   1.000  W
  W50      1.0000 0.25853  0.34158  0.08385  Biso   1.000  W
  W51      1.0000 0.24147  0.84158  0.41615  Biso   1.000  W
  W52      1.0000 0.74147  0.34158  0.41615  Biso   1.000  W
  W53      1.0000 0.24147  0.15842  0.91615  Biso   1.000  W
  W54      1.0000 0.74147  0.65842  0.91615  Biso   1.000  W
  W55      1.0000 0.75853  0.15842  0.58385  Biso   1.000  W
  W56      1.0000 0.25853  0.65842  0.58385  Biso   1.000  W
  W57      1.0000 0.70634  0.12764  0.12874  Biso   1.000  W
  W58      1.0000 0.20634  0.62764  0.12874  Biso   1.000  W
  W59      1.0000 0.29366  0.12764  0.37126  Biso   1.000  W
  W60      1.0000 0.79366  0.62764  0.37126  Biso   1.000  W
  W61      1.0000 0.29366  0.87236  0.87126  Biso   1.000  W
  W62      1.0000 0.79366  0.37236  0.87126  Biso   1.000  W
  W63      1.0000 0.70634  0.87236  0.62874  Biso   1.000  W
  W64      1.0000 0.20634  0.37236  0.62874  Biso   1.000  W
  W65      1.0000 0.65948  0.99147  0.06467  Biso   1.000  W
  W66      1.0000 0.15948  0.49147  0.06467  Biso   1.000  W
  W67      1.0000 0.34052  0.99147  0.43533  Biso   1.000  W
  W68      1.0000 0.84052  0.49147  0.43533  Biso   1.000  W
  W69      1.0000 0.34052  0.00853  0.93533  Biso   1.000  W
  W70      1.0000 0.84052  0.50853  0.93533  Biso   1.000  W
  W71      1.0000 0.65948  0.00853  0.56467  Biso   1.000  W
  W72      1.0000 0.15948  0.50853  0.56467  Biso   1.000  W
  W73      1.0000 0.63707  0.03045  0.19101  Biso   1.000  W
  W74      1.0000 0.13707  0.53045  0.19101  Biso   1.000  W
  W75      1.0000 0.36293  0.03045  0.30899  Biso   1.000  W
  W76      1.0000 0.86293  0.53045  0.30899  Biso   1.000  W
  W77      1.0000 0.36293  0.96955  0.80899  Biso   1.000  W
  W78      1.0000 0.86293  0.46955  0.80899  Biso   1.000  W
  W79      1.0000 0.63707  0.96955  0.69101  Biso   1.000  W
  W80      1.0000 0.13707  0.46955  0.69101  Biso   1.000  W
  W81      1.0000 0.59037  0.89497  0.12782  Biso   1.000  W
  W82      1.0000 0.09037  0.39497  0.12782  Biso   1.000  W
  W83      1.0000 0.40963  0.89497  0.37218  Biso   1.000  W
  W84      1.0000 0.90963  0.39497  0.37218  Biso   1.000  W
  W85      1.0000 0.40963  0.10503  0.87218  Biso   1.000  W
  W86      1.0000 0.90963  0.60503  0.87218  Biso   1.000  W
  W87      1.0000 0.59037  0.10503  0.62782  Biso   1.000  W
  W88      1.0000 0.09037  0.60503  0.62782  Biso   1.000  W
  Cu1      1.0000 0.92463  0.11355  0.98817  Biso   1.000  Cu
  Cu2      1.0000 0.42463  0.61355  0.98817  Biso   1.000  Cu
  Cu3      1.0000 0.07537  0.11355  0.51183  Biso   1.000  Cu
  Cu4      1.0000 0.57537  0.61355  0.51183  Biso   1.000  Cu
  Cu5      1.0000 0.07537  0.88645  0.01183  Biso   1.000  Cu
  Cu6      1.0000 0.57537  0.38645  0.01183  Biso   1.000  Cu
  Cu7      1.0000 0.92463  0.88645  0.48817  Biso   1.000  Cu
  Cu8      1.0000 0.42463  0.38645  0.48817  Biso   1.000  Cu
  P1       1.0000 0.81020  0.96756  0.14666  Biso   1.000  P
  P2       1.0000 0.31020  0.46756  0.14666  Biso   1.000  P
  P3       1.0000 0.18980  0.96756  0.35334  Biso   1.000  P
  P4       1.0000 0.68980  0.46756  0.35334  Biso   1.000  P
  P5       1.0000 0.18980  0.03244  0.85334  Biso   1.000  P
  P6       1.0000 0.68980  0.53244  0.85334  Biso   1.000  P
  P7       1.0000 0.81020  0.03244  0.64666  Biso   1.000  P
  P8       1.0000 0.31020  0.53244  0.64666  Biso   1.000  P
  Pr1      1.0000 0.00000  0.93795  0.25000  Biso   1.000  Pr
  Pr2      1.0000 0.50000  0.43795  0.25000  Biso   1.000  Pr
  Pr3      1.0000 0.00000  0.06205  0.75000  Biso   1.000  Pr
  Pr4      1.0000 0.50000  0.56205  0.75000  Biso   1.000  Pr
  C1       1.0000 0.80150  0.21450  0.96390  Biso   1.000  C
  C2       1.0000 0.30150  0.71450  0.96390  Biso   1.000  C
  C3       1.0000 0.19850  0.21450  0.53610  Biso   1.000  C
  C4       1.0000 0.69850  0.71450  0.53610  Biso   1.000  C
  C5       1.0000 0.19850  0.78550  0.03610  Biso   1.000  C
  C6       1.0000 0.69850  0.28550  0.03610  Biso   1.000  C
  C7       1.0000 0.80150  0.78550  0.46390  Biso   1.000  C
  C8       1.0000 0.30150  0.28550  0.46390  Biso   1.000  C
  C9       1.0000 0.89110  0.24480  0.97350  Biso   1.000  C
  C10      1.0000 0.39110  0.74480  0.97350  Biso   1.000  C
  C11      1.0000 0.10890  0.24480  0.52650  Biso   1.000  C
  C12      1.0000 0.60890  0.74480  0.52650  Biso   1.000  C
  C13      1.0000 0.10890  0.75520  0.02650  Biso   1.000  C
  C14      1.0000 0.60890  0.25520  0.02650  Biso   1.000  C
  C15      1.0000 0.89110  0.75520  0.47350  Biso   1.000  C
  C16      1.0000 0.39110  0.25520  0.47350  Biso   1.000  C
  C17      1.0000 0.04350  0.22980  0.99610  Biso   1.000  C
  C18      1.0000 0.54350  0.72980  0.99610  Biso   1.000  C
  C19      1.0000 0.95650  0.22980  0.50390  Biso   1.000  C
  C20      1.0000 0.45650  0.72980  0.50390  Biso   1.000  C
  C21      1.0000 0.95650  0.77020  0.00390  Biso   1.000  C
  C22      1.0000 0.45650  0.27020  0.00390  Biso   1.000  C
  C23      1.0000 0.04350  0.77020  0.49610  Biso   1.000  C
  C24      1.0000 0.54350  0.27020  0.49610  Biso   1.000  C
  H1       1.0000 0.09110  0.20110  0.00460  Biso   1.000  H
  H2       1.0000 0.59110  0.70110  0.00460  Biso   1.000  H
  H3       1.0000 0.90890  0.20110  0.49540  Biso   1.000  H
  H4       1.0000 0.40890  0.70110  0.49540  Biso   1.000  H
  H5       1.0000 0.90890  0.79890  0.99540  Biso   1.000  H
  H6       1.0000 0.40890  0.29890  0.99540  Biso   1.000  H
  H7       1.0000 0.09110  0.79890  0.50460  Biso   1.000  H
  H8       1.0000 0.59110  0.29890  0.50460  Biso   1.000  H
  C25      1.0000 0.06520  0.29560  0.99430  Biso   1.000  C
  C26      1.0000 0.56520  0.79560  0.99430  Biso   1.000  C
  C27      1.0000 0.93480  0.29560  0.50570  Biso   1.000  C
  C28      1.0000 0.43480  0.79560  0.50570  Biso   1.000  C
  C29      1.0000 0.93480  0.70440  0.00570  Biso   1.000  C
  C30      1.0000 0.43480  0.20440  0.00570  Biso   1.000  C
  C31      1.0000 0.06520  0.70440  0.49430  Biso   1.000  C
  C32      1.0000 0.56520  0.20440  0.49430  Biso   1.000  C
  H9       1.0000 0.12450  0.31160  0.00180  Biso   1.000  H
  H10      1.0000 0.62450  0.81160  0.00180  Biso   1.000  H
  H11      1.0000 0.87550  0.31160  0.49820  Biso   1.000  H
  H12      1.0000 0.37550  0.81160  0.49820  Biso   1.000  H
  H13      1.0000 0.87550  0.68840  0.99820  Biso   1.000  H
  H14      1.0000 0.37550  0.18840  0.99820  Biso   1.000  H
  H15      1.0000 0.12450  0.68840  0.50180  Biso   1.000  H
  H16      1.0000 0.62450  0.18840  0.50180  Biso   1.000  H
  C33      1.0000 0.99430  0.33450  0.98110  Biso   1.000  C
  C34      1.0000 0.49430  0.83450  0.98110  Biso   1.000  C
  C35      1.0000 0.00570  0.33450  0.51890  Biso   1.000  C
  C36      1.0000 0.50570  0.83450  0.51890  Biso   1.000  C
  C37      1.0000 0.00570  0.66550  0.01890  Biso   1.000  C
  C38      1.0000 0.50570  0.16550  0.01890  Biso   1.000  C
  C39      1.0000 0.99430  0.66550  0.48110  Biso   1.000  C
  C40      1.0000 0.49430  0.16550  0.48110  Biso   1.000  C
  H17      1.0000 0.00540  0.37880  0.97840  Biso   1.000  H
  H18      1.0000 0.50540  0.87880  0.97840  Biso   1.000  H
  H19      1.0000 0.99460  0.37880  0.52160  Biso   1.000  H
  H20      1.0000 0.49460  0.87880  0.52160  Biso   1.000  H
  H21      1.0000 0.99460  0.62120  0.02160  Biso   1.000  H
  H22      1.0000 0.49460  0.12120  0.02160  Biso   1.000  H
  H23      1.0000 0.00540  0.62120  0.47840  Biso   1.000  H
  H24      1.0000 0.50540  0.12120  0.47840  Biso   1.000  H
  C41      1.0000 0.90720  0.31180  0.97140  Biso   1.000  C
  C42      1.0000 0.40720  0.81180  0.97140  Biso   1.000  C
  C43      1.0000 0.09280  0.31180  0.52860  Biso   1.000  C
  C44      1.0000 0.59280  0.81180  0.52860  Biso   1.000  C
  C45      1.0000 0.09280  0.68820  0.02860  Biso   1.000  C
  C46      1.0000 0.59280  0.18820  0.02860  Biso   1.000  C
  C47      1.0000 0.90720  0.68820  0.47140  Biso   1.000  C
  C48      1.0000 0.40720  0.18820  0.47140  Biso   1.000  C
  H25      1.0000 0.85900  0.34040  0.96360  Biso   1.000  H
  H26      1.0000 0.35900  0.84040  0.96360  Biso   1.000  H
  H27      1.0000 0.14100  0.34040  0.53640  Biso   1.000  H
  H28      1.0000 0.64100  0.84040  0.53640  Biso   1.000  H
  H29      1.0000 0.14100  0.65960  0.03640  Biso   1.000  H
  H30      1.0000 0.64100  0.15960  0.03640  Biso   1.000  H
  H31      1.0000 0.85900  0.65960  0.46360  Biso   1.000  H
  H32      1.0000 0.35900  0.15960  0.46360  Biso   1.000  H
  C49      1.0000 0.71900  0.24460  0.94980  Biso   1.000  C
  C50      1.0000 0.21900  0.74460  0.94980  Biso   1.000  C
  C51      1.0000 0.28100  0.24460  0.55020  Biso   1.000  C
  C52      1.0000 0.78100  0.74460  0.55020  Biso   1.000  C
  C53      1.0000 0.28100  0.75540  0.05020  Biso   1.000  C
  C54      1.0000 0.78100  0.25540  0.05020  Biso   1.000  C
  C55      1.0000 0.71900  0.75540  0.44980  Biso   1.000  C
  C56      1.0000 0.21900  0.25540  0.44980  Biso   1.000  C
  H33      1.0000 0.71840  0.28930  0.94500  Biso   1.000  H
  H34      1.0000 0.21840  0.78930  0.94500  Biso   1.000  H
  H35      1.0000 0.28160  0.28930  0.55500  Biso   1.000  H
  H36      1.0000 0.78160  0.78930  0.55500  Biso   1.000  H
  H37      1.0000 0.28160  0.71070  0.05500  Biso   1.000  H
  H38      1.0000 0.78160  0.21070  0.05500  Biso   1.000  H
  H39      1.0000 0.71840  0.71070  0.44500  Biso   1.000  H
  H40      1.0000 0.21840  0.21070  0.44500  Biso   1.000  H
  C57      1.0000 0.63820  0.20980  0.94270  Biso   1.000  C
  C58      1.0000 0.13820  0.70980  0.94270  Biso   1.000  C
  C59      1.0000 0.36180  0.20980  0.55730  Biso   1.000  C
  C60      1.0000 0.86180  0.70980  0.55730  Biso   1.000  C
  C61      1.0000 0.36180  0.79020  0.05730  Biso   1.000  C
  C62      1.0000 0.86180  0.29020  0.05730  Biso   1.000  C
  C63      1.0000 0.63820  0.79020  0.44270  Biso   1.000  C
  C64      1.0000 0.13820  0.29020  0.44270  Biso   1.000  C
  H41      1.0000 0.58270  0.23020  0.93370  Biso   1.000  H
  H42      1.0000 0.08270  0.73020  0.93370  Biso   1.000  H
  H43      1.0000 0.41730  0.23020  0.56630  Biso   1.000  H
  H44      1.0000 0.91730  0.73020  0.56630  Biso   1.000  H
  H45      1.0000 0.41730  0.76980  0.06630  Biso   1.000  H
  H46      1.0000 0.91730  0.26980  0.06630  Biso   1.000  H
  H47      1.0000 0.58270  0.76980  0.43370  Biso   1.000  H
  H48      1.0000 0.08270  0.26980  0.43370  Biso   1.000  H
  C65      1.0000 0.64170  0.14570  0.94910  Biso   1.000  C
  C66      1.0000 0.14170  0.64570  0.94910  Biso   1.000  C
  C67      1.0000 0.35830  0.14570  0.55090  Biso   1.000  C
  C68      1.0000 0.85830  0.64570  0.55090  Biso   1.000  C
  C69      1.0000 0.35830  0.85430  0.05090  Biso   1.000  C
  C70      1.0000 0.85830  0.35430  0.05090  Biso   1.000  C
  C71      1.0000 0.64170  0.85430  0.44910  Biso   1.000  C
  C72      1.0000 0.14170  0.35430  0.44910  Biso   1.000  C
  H49      1.0000 0.58860  0.12050  0.94340  Biso   1.000  H
  H50      1.0000 0.08860  0.62050  0.94340  Biso   1.000  H
  H51      1.0000 0.41140  0.12050  0.55660  Biso   1.000  H
  H52      1.0000 0.91140  0.62050  0.55660  Biso   1.000  H
  H53      1.0000 0.41140  0.87950  0.05660  Biso   1.000  H
  H54      1.0000 0.91140  0.37950  0.05660  Biso   1.000  H
  H55      1.0000 0.58860  0.87950  0.44340  Biso   1.000  H
  H56      1.0000 0.08860  0.37950  0.44340  Biso   1.000  H
  C73      1.0000 0.72450  0.11580  0.96430  Biso   1.000  C
  C74      1.0000 0.22450  0.61580  0.96430  Biso   1.000  C
  C75      1.0000 0.27550  0.11580  0.53570  Biso   1.000  C
  C76      1.0000 0.77550  0.61580  0.53570  Biso   1.000  C
  C77      1.0000 0.27550  0.88420  0.03570  Biso   1.000  C
  C78      1.0000 0.77550  0.38420  0.03570  Biso   1.000  C
  C79      1.0000 0.72450  0.88420  0.46430  Biso   1.000  C
  C80      1.0000 0.22450  0.38420  0.46430  Biso   1.000  C
  H57      1.0000 0.72490  0.07150  0.96980  Biso   1.000  H
  H58      1.0000 0.22490  0.57150  0.96980  Biso   1.000  H
  H59      1.0000 0.27510  0.07150  0.53020  Biso   1.000  H
  H60      1.0000 0.77510  0.57150  0.53020  Biso   1.000  H
  H61      1.0000 0.27510  0.92850  0.03020  Biso   1.000  H
  H62      1.0000 0.77510  0.42850  0.03020  Biso   1.000  H
  H63      1.0000 0.72490  0.92850  0.46980  Biso   1.000  H
  H64      1.0000 0.22490  0.42850  0.46980  Biso   1.000  H
  C81      1.0000 0.04580  0.01630  0.00640  Biso   1.000  C
  C82      1.0000 0.54580  0.51630  0.00640  Biso   1.000  C
  C83      1.0000 0.95420  0.01630  0.49360  Biso   1.000  C
  C84      1.0000 0.45420  0.51630  0.49360  Biso   1.000  C
  C85      1.0000 0.95420  0.98370  0.99360  Biso   1.000  C
  C86      1.0000 0.45420  0.48370  0.99360  Biso   1.000  C
  C87      1.0000 0.04580  0.98370  0.50640  Biso   1.000  C
  C88      1.0000 0.54580  0.48370  0.50640  Biso   1.000  C
  N1       1.0000 0.96040  0.20510  0.98680  Biso   1.000  N
  N2       1.0000 0.46040  0.70510  0.98680  Biso   1.000  N
  N3       1.0000 0.03960  0.20510  0.51320  Biso   1.000  N
  N4       1.0000 0.53960  0.70510  0.51320  Biso   1.000  N
  N5       1.0000 0.03960  0.79490  0.01320  Biso   1.000  N
  N6       1.0000 0.53960  0.29490  0.01320  Biso   1.000  N
  N7       1.0000 0.96040  0.79490  0.48680  Biso   1.000  N
  N8       1.0000 0.46040  0.29490  0.48680  Biso   1.000  N
  N9       1.0000 0.80170  0.14940  0.97090  Biso   1.000  N
  N10      1.0000 0.30170  0.64940  0.97090  Biso   1.000  N
  N11      1.0000 0.19830  0.14940  0.52910  Biso   1.000  N
  N12      1.0000 0.69830  0.64940  0.52910  Biso   1.000  N
  N13      1.0000 0.19830  0.85060  0.02910  Biso   1.000  N
  N14      1.0000 0.69830  0.35060  0.02910  Biso   1.000  N
  N15      1.0000 0.80170  0.85060  0.47090  Biso   1.000  N
  N16      1.0000 0.30170  0.35060  0.47090  Biso   1.000  N
  O1       1.0000 0.68300  0.82610  0.23750  Biso   1.000  O
  O2       1.0000 0.18300  0.32610  0.23750  Biso   1.000  O
  O3       1.0000 0.31700  0.82610  0.26250  Biso   1.000  O
  O4       1.0000 0.81700  0.32610  0.26250  Biso   1.000  O
  O5       1.0000 0.31700  0.17390  0.76250  Biso   1.000  O
  O6       1.0000 0.81700  0.67390  0.76250  Biso   1.000  O
  O7       1.0000 0.68300  0.17390  0.73750  Biso   1.000  O
  O8       1.0000 0.18300  0.67390  0.73750  Biso   1.000  O
  O9       1.0000 0.54680  0.04400  0.21250  Biso   1.000  O
  O10      1.0000 0.04680  0.54400  0.21250  Biso   1.000  O
  O11      1.0000 0.45320  0.04400  0.28750  Biso   1.000  O
  O12      1.0000 0.95320  0.54400  0.28750  Biso   1.000  O
  O13      1.0000 0.45320  0.95600  0.78750  Biso   1.000  O
  O14      1.0000 0.95320  0.45600  0.78750  Biso   1.000  O
  O15      1.0000 0.54680  0.95600  0.71250  Biso   1.000  O
  O16      1.0000 0.04680  0.45600  0.71250  Biso   1.000  O
  O17      1.0000 0.72940  0.08290  0.21797  Biso   1.000  O
  O18      1.0000 0.22940  0.58290  0.21797  Biso   1.000  O
  O19      1.0000 0.27060  0.08290  0.28203  Biso   1.000  O
  O20      1.0000 0.77060  0.58290  0.28203  Biso   1.000  O
  O21      1.0000 0.27060  0.91710  0.78203  Biso   1.000  O
  O22      1.0000 0.77060  0.41710  0.78203  Biso   1.000  O
  O23      1.0000 0.72940  0.91710  0.71797  Biso   1.000  O
  O24      1.0000 0.22940  0.41710  0.71797  Biso   1.000  O
  O25      1.0000 0.88570  0.16130  0.23670  Biso   1.000  O
  O26      1.0000 0.38570  0.66130  0.23670  Biso   1.000  O
  O27      1.0000 0.11430  0.16130  0.26330  Biso   1.000  O
  O28      1.0000 0.61430  0.66130  0.26330  Biso   1.000  O
  O29      1.0000 0.11430  0.83870  0.76330  Biso   1.000  O
  O30      1.0000 0.61430  0.33870  0.76330  Biso   1.000  O
  O31      1.0000 0.88570  0.83870  0.73670  Biso   1.000  O
  O32      1.0000 0.38570  0.33870  0.73670  Biso   1.000  O
  O33      1.0000 0.94640  0.09680  0.17968  Biso   1.000  O
  O34      1.0000 0.44640  0.59680  0.17968  Biso   1.000  O
  O35      1.0000 0.05360  0.09680  0.32032  Biso   1.000  O
  O36      1.0000 0.55360  0.59680  0.32032  Biso   1.000  O
  O37      1.0000 0.05360  0.90320  0.82032  Biso   1.000  O
  O38      1.0000 0.55360  0.40320  0.82032  Biso   1.000  O
  O39      1.0000 0.94640  0.90320  0.67968  Biso   1.000  O
  O40      1.0000 0.44640  0.40320  0.67968  Biso   1.000  O
  O41      1.0000 0.13410  0.08140  0.17300  Biso   1.000  O
  O42      1.0000 0.63410  0.58140  0.17300  Biso   1.000  O
  O43      1.0000 0.86590  0.08140  0.32700  Biso   1.000  O
  O44      1.0000 0.36590  0.58140  0.32700  Biso   1.000  O
  O45      1.0000 0.86590  0.91860  0.82700  Biso   1.000  O
  O46      1.0000 0.36590  0.41860  0.82700  Biso   1.000  O
  O47      1.0000 0.13410  0.91860  0.67300  Biso   1.000  O
  O48      1.0000 0.63410  0.41860  0.67300  Biso   1.000  O
  O49      1.0000 0.98850  0.09050  0.11533  Biso   1.000  O
  O50      1.0000 0.48850  0.59050  0.11533  Biso   1.000  O
  O51      1.0000 0.01150  0.09050  0.38467  Biso   1.000  O
  O52      1.0000 0.51150  0.59050  0.38467  Biso   1.000  O
  O53      1.0000 0.01150  0.90950  0.88467  Biso   1.000  O
  O54      1.0000 0.51150  0.40950  0.88467  Biso   1.000  O
  O55      1.0000 0.98850  0.90950  0.61533  Biso   1.000  O
  O56      1.0000 0.48850  0.40950  0.61533  Biso   1.000  O
  O57      1.0000 0.90290  0.12130  0.04770  Biso   1.000  O
  O58      1.0000 0.40290  0.62130  0.04770  Biso   1.000  O
  O59      1.0000 0.09710  0.12130  0.45230  Biso   1.000  O
  O60      1.0000 0.59710  0.62130  0.45230  Biso   1.000  O
  O61      1.0000 0.09710  0.87870  0.95230  Biso   1.000  O
  O62      1.0000 0.59710  0.37870  0.95230  Biso   1.000  O
  O63      1.0000 0.90290  0.87870  0.54770  Biso   1.000  O
  O64      1.0000 0.40290  0.37870  0.54770  Biso   1.000  O
  O65      1.0000 0.06920  0.97580  0.12933  Biso   1.000  O
  O66      1.0000 0.56920  0.47580  0.12933  Biso   1.000  O
  O67      1.0000 0.93080  0.97580  0.37067  Biso   1.000  O
  O68      1.0000 0.43080  0.47580  0.37067  Biso   1.000  O
  O69      1.0000 0.93080  0.02420  0.87067  Biso   1.000  O
  O70      1.0000 0.43080  0.52420  0.87067  Biso   1.000  O
  O71      1.0000 0.06920  0.02420  0.62933  Biso   1.000  O
  O72      1.0000 0.56920  0.52420  0.62933  Biso   1.000  O
  O73      1.0000 0.95570  0.99500  0.06950  Biso   1.000  O
  O74      1.0000 0.45570  0.49500  0.06950  Biso   1.000  O
  O75      1.0000 0.04430  0.99500  0.43050  Biso   1.000  O
  O76      1.0000 0.54430  0.49500  0.43050  Biso   1.000  O
  O77      1.0000 0.04430  0.00500  0.93050  Biso   1.000  O
  O78      1.0000 0.54430  0.50500  0.93050  Biso   1.000  O
  O79      1.0000 0.95570  0.00500  0.56950  Biso   1.000  O
  O80      1.0000 0.45570  0.50500  0.56950  Biso   1.000  O
  O81      1.0000 0.06000  0.88130  0.07692  Biso   1.000  O
  O82      1.0000 0.56000  0.38130  0.07692  Biso   1.000  O
  O83      1.0000 0.94000  0.88130  0.42308  Biso   1.000  O
  O84      1.0000 0.44000  0.38130  0.42308  Biso   1.000  O
  O85      1.0000 0.94000  0.11870  0.92308  Biso   1.000  O
  O86      1.0000 0.44000  0.61870  0.92308  Biso   1.000  O
  O87      1.0000 0.06000  0.11870  0.57692  Biso   1.000  O
  O88      1.0000 0.56000  0.61870  0.57692  Biso   1.000  O
  O89      1.0000 0.87240  0.88410  0.07830  Biso   1.000  O
  O90      1.0000 0.37240  0.38410  0.07830  Biso   1.000  O
  O91      1.0000 0.12760  0.88410  0.42170  Biso   1.000  O
  O92      1.0000 0.62760  0.38410  0.42170  Biso   1.000  O
  O93      1.0000 0.12760  0.11590  0.92170  Biso   1.000  O
  O94      1.0000 0.62760  0.61590  0.92170  Biso   1.000  O
  O95      1.0000 0.87240  0.11590  0.57830  Biso   1.000  O
  O96      1.0000 0.37240  0.61590  0.57830  Biso   1.000  O
  O97      1.0000 0.95510  0.73980  0.16680  Biso   1.000  O
  O98      1.0000 0.45510  0.23980  0.16680  Biso   1.000  O
  O99      1.0000 0.04490  0.73980  0.33320  Biso   1.000  O
  O100     1.0000 0.54490  0.23980  0.33320  Biso   1.000  O
  O101     1.0000 0.04490  0.26020  0.83320  Biso   1.000  O
  O102     1.0000 0.54490  0.76020  0.83320  Biso   1.000  O
  O103     1.0000 0.95510  0.26020  0.66680  Biso   1.000  O
  O104     1.0000 0.45510  0.76020  0.66680  Biso   1.000  O
  O105     1.0000 0.64190  0.83200  0.09900  Biso   1.000  O
  O106     1.0000 0.14190  0.33200  0.09900  Biso   1.000  O
  O107     1.0000 0.35810  0.83200  0.40100  Biso   1.000  O
  O108     1.0000 0.85810  0.33200  0.40100  Biso   1.000  O
  O109     1.0000 0.35810  0.16800  0.90100  Biso   1.000  O
  O110     1.0000 0.85810  0.66800  0.90100  Biso   1.000  O
  O111     1.0000 0.64190  0.16800  0.59900  Biso   1.000  O
  O112     1.0000 0.14190  0.66800  0.59900  Biso   1.000  O
  O113     1.0000 0.81550  0.79970  0.19432  Biso   1.000  O
  O114     1.0000 0.31550  0.29970  0.19432  Biso   1.000  O
  O115     1.0000 0.18450  0.79970  0.30568  Biso   1.000  O
  O116     1.0000 0.68450  0.29970  0.30568  Biso   1.000  O
  O117     1.0000 0.18450  0.20030  0.80568  Biso   1.000  O
  O118     1.0000 0.68450  0.70030  0.80568  Biso   1.000  O
  O119     1.0000 0.81550  0.20030  0.69432  Biso   1.000  O
  O120     1.0000 0.31550  0.70030  0.69432  Biso   1.000  O
  O121     1.0000 0.66200  0.86140  0.16700  Biso   1.000  O
  O122     1.0000 0.16200  0.36140  0.16700  Biso   1.000  O
  O123     1.0000 0.33800  0.86140  0.33300  Biso   1.000  O
  O124     1.0000 0.83800  0.36140  0.33300  Biso   1.000  O
  O125     1.0000 0.33800  0.13860  0.83300  Biso   1.000  O
  O126     1.0000 0.83800  0.63860  0.83300  Biso   1.000  O
  O127     1.0000 0.66200  0.13860  0.66700  Biso   1.000  O
  O128     1.0000 0.16200  0.63860  0.66700  Biso   1.000  O
  O129     1.0000 0.48310  0.86290  0.12900  Biso   1.000  O
  O130     1.0000 0.98310  0.36290  0.12900  Biso   1.000  O
  O131     1.0000 0.51690  0.86290  0.37100  Biso   1.000  O
  O132     1.0000 0.01690  0.36290  0.37100  Biso   1.000  O
  O133     1.0000 0.51690  0.13710  0.87100  Biso   1.000  O
  O134     1.0000 0.01690  0.63710  0.87100  Biso   1.000  O
  O135     1.0000 0.48310  0.13710  0.62900  Biso   1.000  O
  O136     1.0000 0.98310  0.63710  0.62900  Biso   1.000  O
  O137     1.0000 0.84190  0.89350  0.24637  Biso   1.000  O
  O138     1.0000 0.34190  0.39350  0.24637  Biso   1.000  O
  O139     1.0000 0.15810  0.89350  0.25363  Biso   1.000  O
  O140     1.0000 0.65810  0.39350  0.25363  Biso   1.000  O
  O141     1.0000 0.15810  0.10650  0.75363  Biso   1.000  O
  O142     1.0000 0.65810  0.60650  0.75363  Biso   1.000  O
  O143     1.0000 0.84190  0.10650  0.74637  Biso   1.000  O
  O144     1.0000 0.34190  0.60650  0.74637  Biso   1.000  O
  O145     1.0000 0.83920  0.91750  0.17504  Biso   1.000  O
  O146     1.0000 0.33920  0.41750  0.17504  Biso   1.000  O
  O147     1.0000 0.16080  0.91750  0.32496  Biso   1.000  O
  O148     1.0000 0.66080  0.41750  0.32496  Biso   1.000  O
  O149     1.0000 0.16080  0.08250  0.82496  Biso   1.000  O
  O150     1.0000 0.66080  0.58250  0.82496  Biso   1.000  O
  O151     1.0000 0.83920  0.08250  0.67504  Biso   1.000  O
  O152     1.0000 0.33920  0.58250  0.67504  Biso   1.000  O
  O153     1.0000 0.98930  0.84590  0.20793  Biso   1.000  O
  O154     1.0000 0.48930  0.34590  0.20793  Biso   1.000  O
  O155     1.0000 0.01070  0.84590  0.29207  Biso   1.000  O
  O156     1.0000 0.51070  0.34590  0.29207  Biso   1.000  O
  O157     1.0000 0.01070  0.15410  0.79207  Biso   1.000  O
  O158     1.0000 0.51070  0.65410  0.79207  Biso   1.000  O
  O159     1.0000 0.98930  0.15410  0.70793  Biso   1.000  O
  O160     1.0000 0.48930  0.65410  0.70793  Biso   1.000  O
  O161     1.0000 0.98030  0.86430  0.13780  Biso   1.000  O
  O162     1.0000 0.48030  0.36430  0.13780  Biso   1.000  O
  O163     1.0000 0.01970  0.86430  0.36220  Biso   1.000  O
  O164     1.0000 0.51970  0.36430  0.36220  Biso   1.000  O
  O165     1.0000 0.01970  0.13570  0.86220  Biso   1.000  O
  O166     1.0000 0.51970  0.63570  0.86220  Biso   1.000  O
  O167     1.0000 0.98030  0.13570  0.63780  Biso   1.000  O
  O168     1.0000 0.48030  0.63570  0.63780  Biso   1.000  O
  O169     1.0000 0.03310  0.98330  0.19506  Biso   1.000  O
  O170     1.0000 0.53310  0.48330  0.19506  Biso   1.000  O
  O171     1.0000 0.96690  0.98330  0.30494  Biso   1.000  O
  O172     1.0000 0.46690  0.48330  0.30494  Biso   1.000  O
  O173     1.0000 0.96690  0.01670  0.80494  Biso   1.000  O
  O174     1.0000 0.46690  0.51670  0.80494  Biso   1.000  O
  O175     1.0000 0.03310  0.01670  0.69506  Biso   1.000  O
  O176     1.0000 0.53310  0.51670  0.69506  Biso   1.000  O
  O177     1.0000 0.89220  0.98900  0.13009  Biso   1.000  O
  O178     1.0000 0.39220  0.48900  0.13009  Biso   1.000  O
  O179     1.0000 0.10780  0.98900  0.36991  Biso   1.000  O
  O180     1.0000 0.60780  0.48900  0.36991  Biso   1.000  O
  O181     1.0000 0.10780  0.01100  0.86991  Biso   1.000  O
  O182     1.0000 0.60780  0.51100  0.86991  Biso   1.000  O
  O183     1.0000 0.89220  0.01100  0.63009  Biso   1.000  O
  O184     1.0000 0.39220  0.51100  0.63009  Biso   1.000  O
  O185     1.0000 0.81080  0.11950  0.10557  Biso   1.000  O
  O186     1.0000 0.31080  0.61950  0.10557  Biso   1.000  O
  O187     1.0000 0.18920  0.11950  0.39443  Biso   1.000  O
  O188     1.0000 0.68920  0.61950  0.39443  Biso   1.000  O
  O189     1.0000 0.18920  0.88050  0.89443  Biso   1.000  O
  O190     1.0000 0.68920  0.38050  0.89443  Biso   1.000  O
  O191     1.0000 0.81080  0.88050  0.60557  Biso   1.000  O
  O192     1.0000 0.31080  0.38050  0.60557  Biso   1.000  O
  O193     1.0000 0.65900  0.19920  0.11260  Biso   1.000  O
  O194     1.0000 0.15900  0.69920  0.11260  Biso   1.000  O
  O195     1.0000 0.34100  0.19920  0.38740  Biso   1.000  O
  O196     1.0000 0.84100  0.69920  0.38740  Biso   1.000  O
  O197     1.0000 0.34100  0.80080  0.88740  Biso   1.000  O
  O198     1.0000 0.84100  0.30080  0.88740  Biso   1.000  O
  O199     1.0000 0.65900  0.80080  0.61260  Biso   1.000  O
  O200     1.0000 0.15900  0.30080  0.61260  Biso   1.000  O
  O201     1.0000 0.61770  0.09980  0.15760  Biso   1.000  O
  O202     1.0000 0.11770  0.59980  0.15760  Biso   1.000  O
  O203     1.0000 0.38230  0.09980  0.34240  Biso   1.000  O
  O204     1.0000 0.88230  0.59980  0.34240  Biso   1.000  O
  O205     1.0000 0.38230  0.90020  0.84240  Biso   1.000  O
  O206     1.0000 0.88230  0.40020  0.84240  Biso   1.000  O
  O207     1.0000 0.61770  0.90020  0.65760  Biso   1.000  O
  O208     1.0000 0.11770  0.40020  0.65760  Biso   1.000  O
  O209     1.0000 0.69280  0.95400  0.21240  Biso   1.000  O
  O210     1.0000 0.19280  0.45400  0.21240  Biso   1.000  O
  O211     1.0000 0.30720  0.95400  0.28760  Biso   1.000  O
  O212     1.0000 0.80720  0.45400  0.28760  Biso   1.000  O
  O213     1.0000 0.30720  0.04600  0.78760  Biso   1.000  O
  O214     1.0000 0.80720  0.54600  0.78760  Biso   1.000  O
  O215     1.0000 0.69280  0.04600  0.71240  Biso   1.000  O
  O216     1.0000 0.19280  0.54600  0.71240  Biso   1.000  O
  O217     1.0000 0.81750  0.81120  0.12620  Biso   1.000  O
  O218     1.0000 0.31750  0.31120  0.12620  Biso   1.000  O
  O219     1.0000 0.18250  0.81120  0.37380  Biso   1.000  O
  O220     1.0000 0.68250  0.31120  0.37380  Biso   1.000  O
  O221     1.0000 0.18250  0.18880  0.87380  Biso   1.000  O
  O222     1.0000 0.68250  0.68880  0.87380  Biso   1.000  O
  O223     1.0000 0.81750  0.18880  0.62620  Biso   1.000  O
  O224     1.0000 0.31750  0.68880  0.62620  Biso   1.000  O
  O225     1.0000 0.75640  0.77580  0.05640  Biso   1.000  O
  O226     1.0000 0.25640  0.27580  0.05640  Biso   1.000  O
  O227     1.0000 0.24360  0.77580  0.44360  Biso   1.000  O
  O228     1.0000 0.74360  0.27580  0.44360  Biso   1.000  O
  O229     1.0000 0.24360  0.22420  0.94360  Biso   1.000  O
  O230     1.0000 0.74360  0.72420  0.94360  Biso   1.000  O
  O231     1.0000 0.75640  0.22420  0.55640  Biso   1.000  O
  O232     1.0000 0.25640  0.72420  0.55640  Biso   1.000  O
  O233     1.0000 0.77100  0.02920  0.16211  Biso   1.000  O
  O234     1.0000 0.27100  0.52920  0.16211  Biso   1.000  O
  O235     1.0000 0.22900  0.02920  0.33789  Biso   1.000  O
  O236     1.0000 0.72900  0.52920  0.33789  Biso   1.000  O
  O237     1.0000 0.22900  0.97080  0.83789  Biso   1.000  O
  O238     1.0000 0.72900  0.47080  0.83789  Biso   1.000  O
  O239     1.0000 0.77100  0.97080  0.66211  Biso   1.000  O
  O240     1.0000 0.27100  0.47080  0.66211  Biso   1.000  O
  O241     1.0000 0.58180  0.97590  0.15310  Biso   1.000  O
  O242     1.0000 0.08180  0.47590  0.15310  Biso   1.000  O
  O243     1.0000 0.41820  0.97590  0.34690  Biso   1.000  O
  O244     1.0000 0.91820  0.47590  0.34690  Biso   1.000  O
  O245     1.0000 0.41820  0.02410  0.84690  Biso   1.000  O
  O246     1.0000 0.91820  0.52410  0.84690  Biso   1.000  O
  O247     1.0000 0.58180  0.02410  0.65310  Biso   1.000  O
  O248     1.0000 0.08180  0.52410  0.65310  Biso   1.000  O
  O249     1.0000 0.78520  0.15530  0.16810  Biso   1.000  O
  O250     1.0000 0.28520  0.65530  0.16810  Biso   1.000  O
  O251     1.0000 0.21480  0.15530  0.33190  Biso   1.000  O
  O252     1.0000 0.71480  0.65530  0.33190  Biso   1.000  O
  O253     1.0000 0.21480  0.84470  0.83190  Biso   1.000  O
  O254     1.0000 0.71480  0.34470  0.83190  Biso   1.000  O
  O255     1.0000 0.78520  0.84470  0.66810  Biso   1.000  O
  O256     1.0000 0.28520  0.34470  0.66810  Biso   1.000  O
  O257     1.0000 0.73810  0.94050  0.11744  Biso   1.000  O
  O258     1.0000 0.23810  0.44050  0.11744  Biso   1.000  O
  O259     1.0000 0.26190  0.94050  0.38256  Biso   1.000  O
  O260     1.0000 0.76190  0.44050  0.38256  Biso   1.000  O
  O261     1.0000 0.26190  0.05950  0.88256  Biso   1.000  O
  O262     1.0000 0.76190  0.55950  0.88256  Biso   1.000  O
  O263     1.0000 0.73810  0.05950  0.61744  Biso   1.000  O
  O264     1.0000 0.23810  0.55950  0.61744  Biso   1.000  O
  O265     1.0000 0.56800  0.94910  0.08560  Biso   1.000  O
  O266     1.0000 0.06800  0.44910  0.08560  Biso   1.000  O
  O267     1.0000 0.43200  0.94910  0.41440  Biso   1.000  O
  O268     1.0000 0.93200  0.44910  0.41440  Biso   1.000  O
  O269     1.0000 0.43200  0.05090  0.91440  Biso   1.000  O
  O270     1.0000 0.93200  0.55090  0.91440  Biso   1.000  O
  O271     1.0000 0.56800  0.05090  0.58560  Biso   1.000  O
  O272     1.0000 0.06800  0.55090  0.58560  Biso   1.000  O
  O273     1.0000 0.59700  0.01670  0.02560  Biso   1.000  O
  O274     1.0000 0.09700  0.51670  0.02560  Biso   1.000  O
  O275     1.0000 0.40300  0.01670  0.47440  Biso   1.000  O
  O276     1.0000 0.90300  0.51670  0.47440  Biso   1.000  O
  O277     1.0000 0.40300  0.98330  0.97440  Biso   1.000  O
  O278     1.0000 0.90300  0.48330  0.97440  Biso   1.000  O
  O279     1.0000 0.59700  0.98330  0.52560  Biso   1.000  O
  O280     1.0000 0.09700  0.48330  0.52560  Biso   1.000  O
  O281     1.0000 0.69940  0.90860  0.05130  Biso   1.000  O
  O282     1.0000 0.19940  0.40860  0.05130  Biso   1.000  O
  O283     1.0000 0.30060  0.90860  0.44870  Biso   1.000  O
  O284     1.0000 0.80060  0.40860  0.44870  Biso   1.000  O
  O285     1.0000 0.30060  0.09140  0.94870  Biso   1.000  O
  O286     1.0000 0.80060  0.59140  0.94870  Biso   1.000  O
  O287     1.0000 0.69940  0.09140  0.55130  Biso   1.000  O
  O288     1.0000 0.19940  0.59140  0.55130  Biso   1.000  O
  O289     1.0000 0.65000  0.06390  0.09500  Biso   1.000  O
  O290     1.0000 0.15000  0.56390  0.09500  Biso   1.000  O
  O291     1.0000 0.35000  0.06390  0.40500  Biso   1.000  O
  O292     1.0000 0.85000  0.56390  0.40500  Biso   1.000  O
  O293     1.0000 0.35000  0.93610  0.90500  Biso   1.000  O
  O294     1.0000 0.85000  0.43610  0.90500  Biso   1.000  O
  O295     1.0000 0.65000  0.93610  0.59500  Biso   1.000  O
  O296     1.0000 0.15000  0.43610  0.59500  Biso   1.000  O
  O297     1.0000 0.77900  0.02360  0.06282  Biso   1.000  O
  O298     1.0000 0.27900  0.52360  0.06282  Biso   1.000  O
  O299     1.0000 0.22100  0.02360  0.43718  Biso   1.000  O
  O300     1.0000 0.72100  0.52360  0.43718  Biso   1.000  O
  O301     1.0000 0.22100  0.97640  0.93718  Biso   1.000  O
  O302     1.0000 0.72100  0.47640  0.93718  Biso   1.000  O
  O303     1.0000 0.77900  0.97640  0.56282  Biso   1.000  O
  O304     1.0000 0.27900  0.47640  0.56282  Biso   1.000  O
  O305     1.0000 0.04900  0.07720  0.00491  Biso   1.000  O
  O306     1.0000 0.54900  0.57720  0.00491  Biso   1.000  O
  O307     1.0000 0.95100  0.07720  0.49509  Biso   1.000  O
  O308     1.0000 0.45100  0.57720  0.49509  Biso   1.000  O
  O309     1.0000 0.95100  0.92280  0.99509  Biso   1.000  O
  O310     1.0000 0.45100  0.42280  0.99509  Biso   1.000  O
  O311     1.0000 0.04900  0.92280  0.50491  Biso   1.000  O
  O312     1.0000 0.54900  0.42280  0.50491  Biso   1.000  O
  O313     1.0000 0.11280  0.97880  0.01570  Biso   1.000  O
  O314     1.0000 0.61280  0.47880  0.01570  Biso   1.000  O
  O315     1.0000 0.88720  0.97880  0.48430  Biso   1.000  O
  O316     1.0000 0.38720  0.47880  0.48430  Biso   1.000  O
  O317     1.0000 0.88720  0.02120  0.98430  Biso   1.000  O
  O318     1.0000 0.38720  0.52120  0.98430  Biso   1.000  O
  O319     1.0000 0.11280  0.02120  0.51570  Biso   1.000  O
  O320     1.0000 0.61280  0.52120  0.51570  Biso   1.000  O
  O321     1.0000 0.89420  0.02750  0.23160  Biso   1.000  O
  O322     1.0000 0.39420  0.52750  0.23160  Biso   1.000  O
  O323     1.0000 0.10580  0.02750  0.26840  Biso   1.000  O
  O324     1.0000 0.60580  0.52750  0.26840  Biso   1.000  O
  O325     1.0000 0.10580  0.97250  0.76840  Biso   1.000  O
  O326     1.0000 0.60580  0.47250  0.76840  Biso   1.000  O
  O327     1.0000 0.89420  0.97250  0.73160  Biso   1.000  O
  O328     1.0000 0.39420  0.47250  0.73160  Biso   1.000  O
