data_image0
_cell_length_a       8.892
_cell_length_b       15.096
_cell_length_c       11.178
_cell_angle_alpha    90
_cell_angle_beta     103.646
_cell_angle_gamma    90

_symmetry_space_group_name_H-M    "P 1"
_symmetry_int_tables_number       1

loop_
  _symmetry_equiv_pos_as_xyz
  'x, y, z'

loop_
  _atom_site_label
  _atom_site_occupancy
  _atom_site_fract_x
  _atom_site_fract_y
  _atom_site_fract_z
  _atom_site_thermal_displace_type
  _atom_site_B_iso_or_equiv
  _atom_site_type_symbol
  Cu1      1.0000 0.50000  0.00000  0.50000  Biso   1.000  Cu
  Cu2      1.0000 0.00000  0.50000  0.00000  Biso   1.000  Cu
  Cu3      1.0000 0.06973  0.45757  0.33541  Biso   1.000  Cu
  Cu4      1.0000 0.43027  0.95757  0.16459  Biso   1.000  Cu
  Cu5      1.0000 0.93027  0.54243  0.66459  Biso   1.000  Cu
  Cu6      1.0000 0.56973  0.04243  0.83541  Biso   1.000  Cu
  O1       1.0000 0.41649  0.11864  0.45665  Biso   1.000  O
  O2       1.0000 0.08351  0.61864  0.04335  Biso   1.000  O
  O3       1.0000 0.58351  0.88136  0.54335  Biso   1.000  O
  O4       1.0000 0.91649  0.38136  0.95665  Biso   1.000  O
  N1       1.0000 0.52026  0.18263  0.46147  Biso   1.000  N
  N2       1.0000 0.97974  0.68263  0.03853  Biso   1.000  N
  N3       1.0000 0.47974  0.81737  0.53853  Biso   1.000  N
  N4       1.0000 0.02026  0.31737  0.96147  Biso   1.000  N
  C1       1.0000 0.57690  0.22493  0.56876  Biso   1.000  C
  C2       1.0000 0.92310  0.72493  0.93124  Biso   1.000  C
  C3       1.0000 0.42310  0.77507  0.43124  Biso   1.000  C
  C4       1.0000 0.07690  0.27507  0.06876  Biso   1.000  C
  H1       1.0000 0.53980  0.21050  0.63940  Biso   1.000  H
  H2       1.0000 0.96020  0.71050  0.86060  Biso   1.000  H
  H3       1.0000 0.46020  0.78950  0.36060  Biso   1.000  H
  H4       1.0000 0.03980  0.28950  0.13940  Biso   1.000  H
  C5       1.0000 0.68890  0.28931  0.57580  Biso   1.000  C
  C6       1.0000 0.81110  0.78931  0.92420  Biso   1.000  C
  C7       1.0000 0.31110  0.71069  0.42420  Biso   1.000  C
  C8       1.0000 0.18890  0.21069  0.07580  Biso   1.000  C
  H5       1.0000 0.72860  0.31970  0.65110  Biso   1.000  H
  H6       1.0000 0.77140  0.81970  0.84890  Biso   1.000  H
  H7       1.0000 0.27140  0.68030  0.34890  Biso   1.000  H
  H8       1.0000 0.22860  0.18030  0.15110  Biso   1.000  H
  C9       1.0000 0.67990  0.26535  0.36267  Biso   1.000  C
  C10      1.0000 0.82010  0.76535  0.13733  Biso   1.000  C
  C11      1.0000 0.32010  0.73465  0.63733  Biso   1.000  C
  C12      1.0000 0.17990  0.23465  0.86267  Biso   1.000  C
  H9       1.0000 0.71440  0.27900  0.29060  Biso   1.000  H
  H10      1.0000 0.78560  0.77900  0.20940  Biso   1.000  H
  H11      1.0000 0.28560  0.72100  0.70940  Biso   1.000  H
  H12      1.0000 0.21440  0.22100  0.79060  Biso   1.000  H
  C13      1.0000 0.74330  0.30945  0.47220  Biso   1.000  C
  C14      1.0000 0.75670  0.80945  0.02780  Biso   1.000  C
  C15      1.0000 0.25670  0.69055  0.52780  Biso   1.000  C
  C16      1.0000 0.24330  0.19055  0.97220  Biso   1.000  C
  C17      1.0000 0.56740  0.20202  0.35844  Biso   1.000  C
  C18      1.0000 0.93260  0.70202  0.14156  Biso   1.000  C
  C19      1.0000 0.43260  0.79798  0.64156  Biso   1.000  C
  C20      1.0000 0.06740  0.29798  0.85844  Biso   1.000  C
  H13      1.0000 0.52330  0.17220  0.28350  Biso   1.000  H
  H14      1.0000 0.97670  0.67220  0.21650  Biso   1.000  H
  H15      1.0000 0.47670  0.82780  0.71650  Biso   1.000  H
  H16      1.0000 0.02330  0.32780  0.78350  Biso   1.000  H
  C21      1.0000 0.87069  0.37706  0.47990  Biso   1.000  C
  C22      1.0000 0.62931  0.87706  0.02010  Biso   1.000  C
  C23      1.0000 0.12931  0.62294  0.52010  Biso   1.000  C
  C24      1.0000 0.37069  0.12294  0.97990  Biso   1.000  C
  O5       1.0000 0.93333  0.40885  0.58099  Biso   1.000  O
  O6       1.0000 0.56667  0.90885  0.91901  Biso   1.000  O
  O7       1.0000 0.06667  0.59115  0.41901  Biso   1.000  O
  O8       1.0000 0.43333  0.09115  0.08099  Biso   1.000  O
  O9       1.0000 0.90054  0.39398  0.37694  Biso   1.000  O
  O10      1.0000 0.59946  0.89398  0.12306  Biso   1.000  O
  O11      1.0000 0.09946  0.60602  0.62306  Biso   1.000  O
  O12      1.0000 0.40054  0.10602  0.87694  Biso   1.000  O
  O13      1.0000 0.92002  0.49610  0.18518  Biso   1.000  O
  O14      1.0000 0.57998  0.99610  0.31482  Biso   1.000  O
  O15      1.0000 0.07998  0.50390  0.81482  Biso   1.000  O
  O16      1.0000 0.42002  0.00390  0.68518  Biso   1.000  O
  N5       1.0000 0.76805  0.49033  0.18496  Biso   1.000  N
  N6       1.0000 0.73195  0.99033  0.31504  Biso   1.000  N
  N7       1.0000 0.23195  0.50967  0.81504  Biso   1.000  N
  N8       1.0000 0.26805  0.00967  0.68496  Biso   1.000  N
  C25      1.0000 0.68013  0.42961  0.11260  Biso   1.000  C
  C26      1.0000 0.81987  0.92961  0.38740  Biso   1.000  C
  C27      1.0000 0.31987  0.57039  0.88740  Biso   1.000  C
  C28      1.0000 0.18013  0.07039  0.61260  Biso   1.000  C
  H17      1.0000 0.72480  0.39030  0.06420  Biso   1.000  H
  H18      1.0000 0.77520  0.89030  0.43580  Biso   1.000  H
  H19      1.0000 0.27520  0.60970  0.93580  Biso   1.000  H
  H20      1.0000 0.22480  0.10970  0.56420  Biso   1.000  H
  C29      1.0000 0.52423  0.42502  0.10945  Biso   1.000  C
  C30      1.0000 0.97577  0.92502  0.39055  Biso   1.000  C
  C31      1.0000 0.47577  0.57498  0.89055  Biso   1.000  C
  C32      1.0000 0.02423  0.07498  0.60945  Biso   1.000  C
  H21      1.0000 0.46010  0.38390  0.05650  Biso   1.000  H
  H22      1.0000 0.03990  0.88390  0.44350  Biso   1.000  H
  H23      1.0000 0.53990  0.61610  0.94350  Biso   1.000  H
  H24      1.0000 0.96010  0.11610  0.55650  Biso   1.000  H
  C33      1.0000 0.46111  0.48080  0.18403  Biso   1.000  C
  C34      1.0000 0.03889  0.98080  0.31597  Biso   1.000  C
  C35      1.0000 0.53889  0.51920  0.81597  Biso   1.000  C
  C36      1.0000 0.96111  0.01920  0.68403  Biso   1.000  C
  C37      1.0000 0.55690  0.54014  0.26049  Biso   1.000  C
  C38      1.0000 0.94310  0.04014  0.23951  Biso   1.000  C
  C39      1.0000 0.44310  0.45986  0.73951  Biso   1.000  C
  C40      1.0000 0.05690  0.95986  0.76049  Biso   1.000  C
  H25      1.0000 0.51670  0.57730  0.31400  Biso   1.000  H
  H26      1.0000 0.98330  0.07730  0.18600  Biso   1.000  H
  H27      1.0000 0.48330  0.42270  0.68600  Biso   1.000  H
  H28      1.0000 0.01670  0.92270  0.81400  Biso   1.000  H
  C41      1.0000 0.71170  0.54506  0.25855  Biso   1.000  C
  C42      1.0000 0.78830  0.04506  0.24145  Biso   1.000  C
  C43      1.0000 0.28830  0.45494  0.74145  Biso   1.000  C
  C44      1.0000 0.21170  0.95494  0.75855  Biso   1.000  C
  H29      1.0000 0.77760  0.58680  0.30890  Biso   1.000  H
  H30      1.0000 0.72240  0.08680  0.19110  Biso   1.000  H
  H31      1.0000 0.22240  0.41320  0.69110  Biso   1.000  H
  H32      1.0000 0.27760  0.91320  0.80890  Biso   1.000  H
  C45      1.0000 0.28977  0.47725  0.17847  Biso   1.000  C
  C46      1.0000 0.21023  0.97725  0.32153  Biso   1.000  C
  C47      1.0000 0.71023  0.52275  0.82153  Biso   1.000  C
  C48      1.0000 0.78977  0.02275  0.67847  Biso   1.000  C
  O17      1.0000 0.20640  0.45340  0.07700  Biso   1.000  O
  O18      1.0000 0.29360  0.95340  0.42300  Biso   1.000  O
  O19      1.0000 0.79360  0.54660  0.92300  Biso   1.000  O
  O20      1.0000 0.70640  0.04660  0.57700  Biso   1.000  O
  O21      1.0000 0.24852  0.49842  0.27394  Biso   1.000  O
  O22      1.0000 0.25148  0.99842  0.22606  Biso   1.000  O
  O23      1.0000 0.75148  0.50158  0.72606  Biso   1.000  O
  O24      1.0000 0.74852  0.00158  0.77394  Biso   1.000  O
  O25      1.0000 0.21973  0.40090  0.47050  Biso   1.000  O
  O26      1.0000 0.28027  0.90090  0.02950  Biso   1.000  O
  O27      1.0000 0.78027  0.59910  0.52950  Biso   1.000  O
  O28      1.0000 0.71973  0.09910  0.97050  Biso   1.000  O
  N9       1.0000 0.21110  0.31568  0.46840  Biso   1.000  N
  N10      1.0000 0.28890  0.81568  0.03160  Biso   1.000  N
  N11      1.0000 0.78890  0.68432  0.53160  Biso   1.000  N
  N12      1.0000 0.71110  0.18432  0.96840  Biso   1.000  N
  O29      1.0000 0.18100  0.28230  0.36540  Biso   1.000  O
  O30      1.0000 0.31900  0.78230  0.13460  Biso   1.000  O
  O31      1.0000 0.81900  0.71770  0.63460  Biso   1.000  O
  O32      1.0000 0.68100  0.21770  0.86540  Biso   1.000  O
  O33      1.0000 0.25140  0.27694  0.56758  Biso   1.000  O
  O34      1.0000 0.24860  0.77694  0.93242  Biso   1.000  O
  O35      1.0000 0.74860  0.72306  0.43242  Biso   1.000  O
  O36      1.0000 0.75140  0.22306  0.06758  Biso   1.000  O
  O37      1.0000 0.13700  0.27100  0.37900  Biso   1.000  O
  O38      1.0000 0.36300  0.77100  0.12100  Biso   1.000  O
  O39      1.0000 0.86300  0.72900  0.62100  Biso   1.000  O
  O40      1.0000 0.63700  0.22900  0.87900  Biso   1.000  O
