data_image0
_cell_length_a       14.747
_cell_length_b       20.484
_cell_length_c       38.466
_cell_angle_alpha    90
_cell_angle_beta     99.707
_cell_angle_gamma    90

_symmetry_space_group_name_H-M    "P 1"
_symmetry_int_tables_number       1

loop_
  _symmetry_equiv_pos_as_xyz
  'x, y, z'

loop_
  _atom_site_label
  _atom_site_occupancy
  _atom_site_fract_x
  _atom_site_fract_y
  _atom_site_fract_z
  _atom_site_thermal_displace_type
  _atom_site_B_iso_or_equiv
  _atom_site_type_symbol
  K1       1.0000 0.33450  0.87350  0.81525  Biso   1.000  K
  K2       1.0000 0.83450  0.37350  0.81525  Biso   1.000  K
  K3       1.0000 0.66550  0.87350  0.68475  Biso   1.000  K
  K4       1.0000 0.16550  0.37350  0.68475  Biso   1.000  K
  K5       1.0000 0.66550  0.12650  0.18475  Biso   1.000  K
  K6       1.0000 0.16550  0.62650  0.18475  Biso   1.000  K
  K7       1.0000 0.33450  0.12650  0.31525  Biso   1.000  K
  K8       1.0000 0.83450  0.62650  0.31525  Biso   1.000  K
  P1       1.0000 0.68820  0.96784  0.85327  Biso   1.000  P
  P2       1.0000 0.18820  0.46784  0.85327  Biso   1.000  P
  P3       1.0000 0.31180  0.96784  0.64673  Biso   1.000  P
  P4       1.0000 0.81180  0.46784  0.64673  Biso   1.000  P
  P5       1.0000 0.31180  0.03216  0.14673  Biso   1.000  P
  P6       1.0000 0.81180  0.53216  0.14673  Biso   1.000  P
  P7       1.0000 0.68820  0.03216  0.35327  Biso   1.000  P
  P8       1.0000 0.18820  0.53216  0.35327  Biso   1.000  P
  W1       1.0000 0.46486  0.03990  0.83675  Biso   1.000  W
  W2       1.0000 0.96486  0.53990  0.83675  Biso   1.000  W
  W3       1.0000 0.53514  0.03990  0.66325  Biso   1.000  W
  W4       1.0000 0.03514  0.53990  0.66325  Biso   1.000  W
  W5       1.0000 0.53514  0.96010  0.16325  Biso   1.000  W
  W6       1.0000 0.03514  0.46010  0.16325  Biso   1.000  W
  W7       1.0000 0.46486  0.96010  0.33675  Biso   1.000  W
  W8       1.0000 0.96486  0.46010  0.33675  Biso   1.000  W
  W9       1.0000 0.58274  0.81674  0.82944  Biso   1.000  W
  W10      1.0000 0.08274  0.31674  0.82944  Biso   1.000  W
  W11      1.0000 0.41726  0.81674  0.67056  Biso   1.000  W
  W12      1.0000 0.91726  0.31674  0.67056  Biso   1.000  W
  W13      1.0000 0.41726  0.18326  0.17056  Biso   1.000  W
  W14      1.0000 0.91726  0.68326  0.17056  Biso   1.000  W
  W15      1.0000 0.58274  0.18326  0.32944  Biso   1.000  W
  W16      1.0000 0.08274  0.68326  0.32944  Biso   1.000  W
  W17      1.0000 0.64394  0.09661  0.79002  Biso   1.000  W
  W18      1.0000 0.14394  0.59661  0.79002  Biso   1.000  W
  W19      1.0000 0.35606  0.09661  0.70998  Biso   1.000  W
  W20      1.0000 0.85606  0.59661  0.70998  Biso   1.000  W
  W21      1.0000 0.35606  0.90339  0.20998  Biso   1.000  W
  W22      1.0000 0.85606  0.40339  0.20998  Biso   1.000  W
  W23      1.0000 0.64394  0.90339  0.29002  Biso   1.000  W
  W24      1.0000 0.14394  0.40339  0.29002  Biso   1.000  W
  W25      1.0000 0.60633  0.07034  0.91789  Biso   1.000  W
  W26      1.0000 0.10633  0.57034  0.91789  Biso   1.000  W
  W27      1.0000 0.39367  0.07034  0.58211  Biso   1.000  W
  W28      1.0000 0.89367  0.57034  0.58211  Biso   1.000  W
  W29      1.0000 0.39367  0.92966  0.08211  Biso   1.000  W
  W30      1.0000 0.89367  0.42966  0.08211  Biso   1.000  W
  W31      1.0000 0.60633  0.92966  0.41789  Biso   1.000  W
  W32      1.0000 0.10633  0.42966  0.41789  Biso   1.000  W
  W33      1.0000 0.51163  0.91981  0.90019  Biso   1.000  W
  W34      1.0000 0.01163  0.41981  0.90019  Biso   1.000  W
  W35      1.0000 0.48837  0.91981  0.59981  Biso   1.000  W
  W36      1.0000 0.98837  0.41981  0.59981  Biso   1.000  W
  W37      1.0000 0.48837  0.08019  0.09981  Biso   1.000  W
  W38      1.0000 0.98837  0.58019  0.09981  Biso   1.000  W
  W39      1.0000 0.51163  0.08019  0.40020  Biso   1.000  W
  W40      1.0000 0.01163  0.58019  0.40020  Biso   1.000  W
  W41      1.0000 0.73992  0.84199  0.91662  Biso   1.000  W
  W42      1.0000 0.23992  0.34199  0.91662  Biso   1.000  W
  W43      1.0000 0.26008  0.84199  0.58338  Biso   1.000  W
  W44      1.0000 0.76008  0.34199  0.58338  Biso   1.000  W
  W45      1.0000 0.26008  0.15801  0.08338  Biso   1.000  W
  W46      1.0000 0.76008  0.65801  0.08338  Biso   1.000  W
  W47      1.0000 0.73992  0.15801  0.41662  Biso   1.000  W
  W48      1.0000 0.23992  0.65801  0.41662  Biso   1.000  W
  W49      1.0000 0.74867  0.86921  0.78615  Biso   1.000  W
  W50      1.0000 0.24867  0.36921  0.78615  Biso   1.000  W
  W51      1.0000 0.25133  0.86921  0.71385  Biso   1.000  W
  W52      1.0000 0.75133  0.36921  0.71385  Biso   1.000  W
  W53      1.0000 0.25133  0.13079  0.21385  Biso   1.000  W
  W54      1.0000 0.75133  0.63079  0.21385  Biso   1.000  W
  W55      1.0000 0.74867  0.13079  0.28615  Biso   1.000  W
  W56      1.0000 0.24867  0.63079  0.28615  Biso   1.000  W
  W57      1.0000 0.78998  0.12830  0.87059  Biso   1.000  W
  W58      1.0000 0.28998  0.62830  0.87059  Biso   1.000  W
  W59      1.0000 0.21002  0.12830  0.62941  Biso   1.000  W
  W60      1.0000 0.71002  0.62830  0.62941  Biso   1.000  W
  W61      1.0000 0.21002  0.87170  0.12941  Biso   1.000  W
  W62      1.0000 0.71002  0.37170  0.12941  Biso   1.000  W
  W63      1.0000 0.78998  0.87170  0.37059  Biso   1.000  W
  W64      1.0000 0.28998  0.37170  0.37059  Biso   1.000  W
  W65      1.0000 0.86182  0.03047  0.80889  Biso   1.000  W
  W66      1.0000 0.36182  0.53047  0.80889  Biso   1.000  W
  W67      1.0000 0.13818  0.03047  0.69111  Biso   1.000  W
  W68      1.0000 0.63818  0.53047  0.69111  Biso   1.000  W
  W69      1.0000 0.13818  0.96953  0.19111  Biso   1.000  W
  W70      1.0000 0.63818  0.46953  0.19111  Biso   1.000  W
  W71      1.0000 0.86182  0.96953  0.30889  Biso   1.000  W
  W72      1.0000 0.36182  0.46953  0.30889  Biso   1.000  W
  W73      1.0000 0.83777  0.99280  0.93560  Biso   1.000  W
  W74      1.0000 0.33777  0.49280  0.93560  Biso   1.000  W
  W75      1.0000 0.16223  0.99280  0.56440  Biso   1.000  W
  W76      1.0000 0.66223  0.49280  0.56440  Biso   1.000  W
  W77      1.0000 0.16223  0.00720  0.06440  Biso   1.000  W
  W78      1.0000 0.66223  0.50720  0.06440  Biso   1.000  W
  W79      1.0000 0.83777  0.00720  0.43560  Biso   1.000  W
  W80      1.0000 0.33777  0.50720  0.43560  Biso   1.000  W
  W81      1.0000 0.90839  0.89556  0.87284  Biso   1.000  W
  W82      1.0000 0.40839  0.39556  0.87284  Biso   1.000  W
  W83      1.0000 0.09161  0.89556  0.62716  Biso   1.000  W
  W84      1.0000 0.59161  0.39556  0.62716  Biso   1.000  W
  W85      1.0000 0.09161  0.10444  0.12716  Biso   1.000  W
  W86      1.0000 0.59161  0.60444  0.12716  Biso   1.000  W
  W87      1.0000 0.90839  0.10444  0.37284  Biso   1.000  W
  W88      1.0000 0.40839  0.60444  0.37284  Biso   1.000  W
  C1       1.0000 0.54770  0.98430  0.00560  Biso   1.000  C
  C2       1.0000 0.04770  0.48430  0.00560  Biso   1.000  C
  C3       1.0000 0.45230  0.98430  0.49440  Biso   1.000  C
  C4       1.0000 0.95230  0.48430  0.49440  Biso   1.000  C
  C5       1.0000 0.45230  0.01570  0.99440  Biso   1.000  C
  C6       1.0000 0.95230  0.51570  0.99440  Biso   1.000  C
  C7       1.0000 0.54770  0.01570  0.50560  Biso   1.000  C
  C8       1.0000 0.04770  0.51570  0.50560  Biso   1.000  C
  C9       1.0000 0.45540  0.22900  0.00470  Biso   1.000  C
  C10      1.0000 0.95540  0.72900  0.00470  Biso   1.000  C
  C11      1.0000 0.54460  0.22900  0.49530  Biso   1.000  C
  C12      1.0000 0.04460  0.72900  0.49530  Biso   1.000  C
  C13      1.0000 0.54460  0.77100  0.99530  Biso   1.000  C
  C14      1.0000 0.04460  0.27100  0.99530  Biso   1.000  C
  C15      1.0000 0.45540  0.77100  0.50470  Biso   1.000  C
  C16      1.0000 0.95540  0.27100  0.50470  Biso   1.000  C
  H1       1.0000 0.40680  0.20020  0.99800  Biso   1.000  H
  H2       1.0000 0.90680  0.70020  0.99800  Biso   1.000  H
  H3       1.0000 0.59320  0.20020  0.50200  Biso   1.000  H
  H4       1.0000 0.09320  0.70020  0.50200  Biso   1.000  H
  H5       1.0000 0.59320  0.79980  0.00200  Biso   1.000  H
  H6       1.0000 0.09320  0.29980  0.00200  Biso   1.000  H
  H7       1.0000 0.40680  0.79980  0.49800  Biso   1.000  H
  H8       1.0000 0.90680  0.29980  0.49800  Biso   1.000  H
  C17      1.0000 0.61020  0.24670  0.02660  Biso   1.000  C
  C18      1.0000 0.11020  0.74670  0.02660  Biso   1.000  C
  C19      1.0000 0.38980  0.24670  0.47340  Biso   1.000  C
  C20      1.0000 0.88980  0.74670  0.47340  Biso   1.000  C
  C21      1.0000 0.38980  0.75330  0.97340  Biso   1.000  C
  C22      1.0000 0.88980  0.25330  0.97340  Biso   1.000  C
  C23      1.0000 0.61020  0.75330  0.52660  Biso   1.000  C
  C24      1.0000 0.11020  0.25330  0.52660  Biso   1.000  C
  C25      1.0000 0.69880  0.21430  0.03560  Biso   1.000  C
  C26      1.0000 0.19880  0.71430  0.03560  Biso   1.000  C
  C27      1.0000 0.30120  0.21430  0.46440  Biso   1.000  C
  C28      1.0000 0.80120  0.71430  0.46440  Biso   1.000  C
  C29      1.0000 0.30120  0.78570  0.96440  Biso   1.000  C
  C30      1.0000 0.80120  0.28570  0.96440  Biso   1.000  C
  C31      1.0000 0.69880  0.78570  0.53560  Biso   1.000  C
  C32      1.0000 0.19880  0.28570  0.53560  Biso   1.000  C
  C33      1.0000 0.77560  0.11840  0.03570  Biso   1.000  C
  C34      1.0000 0.27560  0.61840  0.03570  Biso   1.000  C
  C35      1.0000 0.22440  0.11840  0.46430  Biso   1.000  C
  C36      1.0000 0.72440  0.61840  0.46430  Biso   1.000  C
  C37      1.0000 0.22440  0.88160  0.96430  Biso   1.000  C
  C38      1.0000 0.72440  0.38160  0.96430  Biso   1.000  C
  C39      1.0000 0.77560  0.88160  0.53570  Biso   1.000  C
  C40      1.0000 0.27560  0.38160  0.53570  Biso   1.000  C
  H9       1.0000 0.77530  0.07440  0.02970  Biso   1.000  H
  H10      1.0000 0.27530  0.57440  0.02970  Biso   1.000  H
  H11      1.0000 0.22470  0.07440  0.47030  Biso   1.000  H
  H12      1.0000 0.72470  0.57440  0.47030  Biso   1.000  H
  H13      1.0000 0.22470  0.92560  0.97030  Biso   1.000  H
  H14      1.0000 0.72470  0.42560  0.97030  Biso   1.000  H
  H15      1.0000 0.77530  0.92560  0.52970  Biso   1.000  H
  H16      1.0000 0.27530  0.42560  0.52970  Biso   1.000  H
  C41      1.0000 0.50710  0.33670  0.01980  Biso   1.000  C
  C42      1.0000 0.00710  0.83670  0.01980  Biso   1.000  C
  C43      1.0000 0.49290  0.33670  0.48020  Biso   1.000  C
  C44      1.0000 0.99290  0.83670  0.48020  Biso   1.000  C
  C45      1.0000 0.49290  0.66330  0.98020  Biso   1.000  C
  C46      1.0000 0.99290  0.16330  0.98020  Biso   1.000  C
  C47      1.0000 0.50710  0.66330  0.51980  Biso   1.000  C
  C48      1.0000 0.00710  0.16330  0.51980  Biso   1.000  C
  H17      1.0000 0.49590  0.38060  0.02350  Biso   1.000  H
  H18      1.0000 0.99590  0.88060  0.02350  Biso   1.000  H
  H19      1.0000 0.50410  0.38060  0.47650  Biso   1.000  H
  H20      1.0000 0.00410  0.88060  0.47650  Biso   1.000  H
  H21      1.0000 0.50410  0.61940  0.97650  Biso   1.000  H
  H22      1.0000 0.00410  0.11940  0.97650  Biso   1.000  H
  H23      1.0000 0.49590  0.61940  0.52350  Biso   1.000  H
  H24      1.0000 0.99590  0.11940  0.52350  Biso   1.000  H
  C49      1.0000 0.43710  0.29580  0.00460  Biso   1.000  C
  C50      1.0000 0.93710  0.79580  0.00460  Biso   1.000  C
  C51      1.0000 0.56290  0.29580  0.49540  Biso   1.000  C
  C52      1.0000 0.06290  0.79580  0.49540  Biso   1.000  C
  C53      1.0000 0.56290  0.70420  0.99540  Biso   1.000  C
  C54      1.0000 0.06290  0.20420  0.99540  Biso   1.000  C
  C55      1.0000 0.43710  0.70420  0.50460  Biso   1.000  C
  C56      1.0000 0.93710  0.20420  0.50460  Biso   1.000  C
  H25      1.0000 0.37980  0.31220  0.99470  Biso   1.000  H
  H26      1.0000 0.87980  0.81220  0.99470  Biso   1.000  H
  H27      1.0000 0.62020  0.31220  0.50530  Biso   1.000  H
  H28      1.0000 0.12020  0.81220  0.50530  Biso   1.000  H
  H29      1.0000 0.62020  0.68780  0.00530  Biso   1.000  H
  H30      1.0000 0.12020  0.18780  0.00530  Biso   1.000  H
  H31      1.0000 0.37980  0.68780  0.49470  Biso   1.000  H
  H32      1.0000 0.87980  0.18780  0.49470  Biso   1.000  H
  C57      1.0000 0.59180  0.31150  0.02900  Biso   1.000  C
  C58      1.0000 0.09180  0.81150  0.02900  Biso   1.000  C
  C59      1.0000 0.40820  0.31150  0.47100  Biso   1.000  C
  C60      1.0000 0.90820  0.81150  0.47100  Biso   1.000  C
  C61      1.0000 0.40820  0.68850  0.97100  Biso   1.000  C
  C62      1.0000 0.90820  0.18850  0.97100  Biso   1.000  C
  C63      1.0000 0.59180  0.68850  0.52900  Biso   1.000  C
  C64      1.0000 0.09180  0.18850  0.52900  Biso   1.000  C
  H33      1.0000 0.64010  0.33960  0.03750  Biso   1.000  H
  H34      1.0000 0.14010  0.83960  0.03750  Biso   1.000  H
  H35      1.0000 0.35990  0.33960  0.46250  Biso   1.000  H
  H36      1.0000 0.85990  0.83960  0.46250  Biso   1.000  H
  H37      1.0000 0.35990  0.66040  0.96250  Biso   1.000  H
  H38      1.0000 0.85990  0.16040  0.96250  Biso   1.000  H
  H39      1.0000 0.64010  0.66040  0.53750  Biso   1.000  H
  H40      1.0000 0.14010  0.16040  0.53750  Biso   1.000  H
  C65      1.0000 0.77830  0.24760  0.04980  Biso   1.000  C
  C66      1.0000 0.27830  0.74760  0.04980  Biso   1.000  C
  C67      1.0000 0.22170  0.24760  0.45020  Biso   1.000  C
  C68      1.0000 0.72170  0.74760  0.45020  Biso   1.000  C
  C69      1.0000 0.22170  0.75240  0.95020  Biso   1.000  C
  C70      1.0000 0.72170  0.25240  0.95020  Biso   1.000  C
  C71      1.0000 0.77830  0.75240  0.54980  Biso   1.000  C
  C72      1.0000 0.27830  0.25240  0.54980  Biso   1.000  C
  H41      1.0000 0.77840  0.29200  0.05480  Biso   1.000  H
  H42      1.0000 0.27840  0.79200  0.05480  Biso   1.000  H
  H43      1.0000 0.22160  0.29200  0.44520  Biso   1.000  H
  H44      1.0000 0.72160  0.79200  0.44520  Biso   1.000  H
  H45      1.0000 0.22160  0.70800  0.94520  Biso   1.000  H
  H46      1.0000 0.72160  0.20800  0.94520  Biso   1.000  H
  H47      1.0000 0.77840  0.70800  0.55480  Biso   1.000  H
  H48      1.0000 0.27840  0.20800  0.55480  Biso   1.000  H
  C73      1.0000 0.85790  0.20980  0.05630  Biso   1.000  C
  C74      1.0000 0.35790  0.70980  0.05630  Biso   1.000  C
  C75      1.0000 0.14210  0.20980  0.44370  Biso   1.000  C
  C76      1.0000 0.64210  0.70980  0.44370  Biso   1.000  C
  C77      1.0000 0.14210  0.79020  0.94370  Biso   1.000  C
  C78      1.0000 0.64210  0.29020  0.94370  Biso   1.000  C
  C79      1.0000 0.85790  0.79020  0.55630  Biso   1.000  C
  C80      1.0000 0.35790  0.29020  0.55630  Biso   1.000  C
  H49      1.0000 0.91270  0.23140  0.06460  Biso   1.000  H
  H50      1.0000 0.41270  0.73140  0.06460  Biso   1.000  H
  H51      1.0000 0.08730  0.23140  0.43540  Biso   1.000  H
  H52      1.0000 0.58730  0.73140  0.43540  Biso   1.000  H
  H53      1.0000 0.08730  0.76860  0.93540  Biso   1.000  H
  H54      1.0000 0.58730  0.26860  0.93540  Biso   1.000  H
  H55      1.0000 0.91270  0.76860  0.56460  Biso   1.000  H
  H56      1.0000 0.41270  0.26860  0.56460  Biso   1.000  H
  C81      1.0000 0.86250  0.14760  0.05160  Biso   1.000  C
  C82      1.0000 0.36250  0.64760  0.05160  Biso   1.000  C
  C83      1.0000 0.13750  0.14760  0.44840  Biso   1.000  C
  C84      1.0000 0.63750  0.64760  0.44840  Biso   1.000  C
  C85      1.0000 0.13750  0.85240  0.94840  Biso   1.000  C
  C86      1.0000 0.63750  0.35240  0.94840  Biso   1.000  C
  C87      1.0000 0.86250  0.85240  0.55160  Biso   1.000  C
  C88      1.0000 0.36250  0.35240  0.55160  Biso   1.000  C
  H57      1.0000 0.91640  0.12370  0.05790  Biso   1.000  H
  H58      1.0000 0.41640  0.62370  0.05790  Biso   1.000  H
  H59      1.0000 0.08360  0.12370  0.44210  Biso   1.000  H
  H60      1.0000 0.58360  0.62370  0.44210  Biso   1.000  H
  H61      1.0000 0.08360  0.87630  0.94210  Biso   1.000  H
  H62      1.0000 0.58360  0.37630  0.94210  Biso   1.000  H
  H63      1.0000 0.91640  0.87630  0.55790  Biso   1.000  H
  H64      1.0000 0.41640  0.37630  0.55790  Biso   1.000  H
  Cu1      1.0000 0.57462  0.11395  0.01176  Biso   1.000  Cu
  Cu2      1.0000 0.07462  0.61395  0.01176  Biso   1.000  Cu
  Cu3      1.0000 0.42538  0.11395  0.48824  Biso   1.000  Cu
  Cu4      1.0000 0.92538  0.61395  0.48824  Biso   1.000  Cu
  Cu5      1.0000 0.42538  0.88605  0.98824  Biso   1.000  Cu
  Cu6      1.0000 0.92538  0.38605  0.98824  Biso   1.000  Cu
  Cu7      1.0000 0.57462  0.88605  0.51176  Biso   1.000  Cu
  Cu8      1.0000 0.07462  0.38605  0.51176  Biso   1.000  Cu
  Gd1      1.0000 0.50000  0.93643  0.75000  Biso   1.000  Gd
  Gd2      1.0000 0.00000  0.43643  0.75000  Biso   1.000  Gd
  Gd3      1.0000 0.50000  0.06357  0.25000  Biso   1.000  Gd
  Gd4      1.0000 0.00000  0.56357  0.25000  Biso   1.000  Gd
  N1       1.0000 0.53750  0.20570  0.01380  Biso   1.000  N
  N2       1.0000 0.03750  0.70570  0.01380  Biso   1.000  N
  N3       1.0000 0.46250  0.20570  0.48620  Biso   1.000  N
  N4       1.0000 0.96250  0.70570  0.48620  Biso   1.000  N
  N5       1.0000 0.46250  0.79430  0.98620  Biso   1.000  N
  N6       1.0000 0.96250  0.29430  0.98620  Biso   1.000  N
  N7       1.0000 0.53750  0.79430  0.51380  Biso   1.000  N
  N8       1.0000 0.03750  0.29430  0.51380  Biso   1.000  N
  N9       1.0000 0.69470  0.15160  0.02890  Biso   1.000  N
  N10      1.0000 0.19470  0.65160  0.02890  Biso   1.000  N
  N11      1.0000 0.30530  0.15160  0.47110  Biso   1.000  N
  N12      1.0000 0.80530  0.65160  0.47110  Biso   1.000  N
  N13      1.0000 0.30530  0.84840  0.97110  Biso   1.000  N
  N14      1.0000 0.80530  0.34840  0.97110  Biso   1.000  N
  N15      1.0000 0.69470  0.84840  0.52890  Biso   1.000  N
  N16      1.0000 0.19470  0.34840  0.52890  Biso   1.000  N
  O1       1.0000 0.68250  0.81090  0.87370  Biso   1.000  O
  O2       1.0000 0.18250  0.31090  0.87370  Biso   1.000  O
  O3       1.0000 0.31750  0.81090  0.62630  Biso   1.000  O
  O4       1.0000 0.81750  0.31090  0.62630  Biso   1.000  O
  O5       1.0000 0.31750  0.18910  0.12630  Biso   1.000  O
  O6       1.0000 0.81750  0.68910  0.12630  Biso   1.000  O
  O7       1.0000 0.68250  0.18910  0.37370  Biso   1.000  O
  O8       1.0000 0.18250  0.68910  0.37370  Biso   1.000  O
  O9       1.0000 0.50670  0.08950  0.88400  Biso   1.000  O
  O10      1.0000 0.00670  0.58950  0.88400  Biso   1.000  O
  O11      1.0000 0.49330  0.08950  0.61600  Biso   1.000  O
  O12      1.0000 0.99330  0.58950  0.61600  Biso   1.000  O
  O13      1.0000 0.49330  0.91050  0.11600  Biso   1.000  O
  O14      1.0000 0.99330  0.41050  0.11600  Biso   1.000  O
  O15      1.0000 0.50670  0.91050  0.38400  Biso   1.000  O
  O16      1.0000 0.00670  0.41050  0.38400  Biso   1.000  O
  O17      1.0000 0.68560  0.12010  0.89400  Biso   1.000  O
  O18      1.0000 0.18560  0.62010  0.89400  Biso   1.000  O
  O19      1.0000 0.31440  0.12010  0.60600  Biso   1.000  O
  O20      1.0000 0.81440  0.62010  0.60600  Biso   1.000  O
  O21      1.0000 0.31440  0.87990  0.10600  Biso   1.000  O
  O22      1.0000 0.81440  0.37990  0.10600  Biso   1.000  O
  O23      1.0000 0.68560  0.87990  0.39400  Biso   1.000  O
  O24      1.0000 0.18560  0.37990  0.39400  Biso   1.000  O
  O25      1.0000 0.51630  0.86390  0.86110  Biso   1.000  O
  O26      1.0000 0.01630  0.36390  0.86110  Biso   1.000  O
  O27      1.0000 0.48370  0.86390  0.63890  Biso   1.000  O
  O28      1.0000 0.98370  0.36390  0.63890  Biso   1.000  O
  O29      1.0000 0.48370  0.13610  0.13890  Biso   1.000  O
  O30      1.0000 0.98370  0.63610  0.13890  Biso   1.000  O
  O31      1.0000 0.51630  0.13610  0.36110  Biso   1.000  O
  O32      1.0000 0.01630  0.63610  0.36110  Biso   1.000  O
  O33      1.0000 0.42700  0.97480  0.86840  Biso   1.000  O
  O34      1.0000 0.92700  0.47480  0.86840  Biso   1.000  O
  O35      1.0000 0.57300  0.97480  0.63160  Biso   1.000  O
  O36      1.0000 0.07300  0.47480  0.63160  Biso   1.000  O
  O37      1.0000 0.57300  0.02520  0.13160  Biso   1.000  O
  O38      1.0000 0.07300  0.52520  0.13160  Biso   1.000  O
  O39      1.0000 0.42700  0.02520  0.36840  Biso   1.000  O
  O40      1.0000 0.92700  0.52520  0.36840  Biso   1.000  O
  O41      1.0000 0.84130  0.86240  0.83330  Biso   1.000  O
  O42      1.0000 0.34130  0.36240  0.83330  Biso   1.000  O
  O43      1.0000 0.15870  0.86240  0.66670  Biso   1.000  O
  O44      1.0000 0.65870  0.36240  0.66670  Biso   1.000  O
  O45      1.0000 0.15870  0.13760  0.16670  Biso   1.000  O
  O46      1.0000 0.65870  0.63760  0.16670  Biso   1.000  O
  O47      1.0000 0.84130  0.13760  0.33330  Biso   1.000  O
  O48      1.0000 0.34130  0.63760  0.33330  Biso   1.000  O
  O49      1.0000 0.76190  0.93980  0.88310  Biso   1.000  O
  O50      1.0000 0.26190  0.43980  0.88310  Biso   1.000  O
  O51      1.0000 0.23810  0.93980  0.61690  Biso   1.000  O
  O52      1.0000 0.73810  0.43980  0.61690  Biso   1.000  O
  O53      1.0000 0.23810  0.06020  0.11690  Biso   1.000  O
  O54      1.0000 0.73810  0.56020  0.11690  Biso   1.000  O
  O55      1.0000 0.76190  0.06020  0.38310  Biso   1.000  O
  O56      1.0000 0.26190  0.56020  0.38310  Biso   1.000  O
  O57      1.0000 0.80710  0.95400  0.78700  Biso   1.000  O
  O58      1.0000 0.30710  0.45400  0.78700  Biso   1.000  O
  O59      1.0000 0.19290  0.95400  0.71300  Biso   1.000  O
  O60      1.0000 0.69290  0.45400  0.71300  Biso   1.000  O
  O61      1.0000 0.19290  0.04600  0.21300  Biso   1.000  O
  O62      1.0000 0.69290  0.54600  0.21300  Biso   1.000  O
  O63      1.0000 0.80710  0.04600  0.28700  Biso   1.000  O
  O64      1.0000 0.30710  0.54600  0.28700  Biso   1.000  O
  O65      1.0000 0.68460  0.79920  0.80490  Biso   1.000  O
  O66      1.0000 0.18460  0.29920  0.80490  Biso   1.000  O
  O67      1.0000 0.31540  0.79920  0.69510  Biso   1.000  O
  O68      1.0000 0.81540  0.29920  0.69510  Biso   1.000  O
  O69      1.0000 0.31540  0.20080  0.19510  Biso   1.000  O
  O70      1.0000 0.81540  0.70080  0.19510  Biso   1.000  O
  O71      1.0000 0.68460  0.20080  0.30490  Biso   1.000  O
  O72      1.0000 0.18460  0.70080  0.30490  Biso   1.000  O
  O73      1.0000 0.53990  0.99600  0.92960  Biso   1.000  O
  O74      1.0000 0.03990  0.49600  0.92960  Biso   1.000  O
  O75      1.0000 0.46010  0.99600  0.57040  Biso   1.000  O
  O76      1.0000 0.96010  0.49600  0.57040  Biso   1.000  O
  O77      1.0000 0.46010  0.00400  0.07040  Biso   1.000  O
  O78      1.0000 0.96010  0.50400  0.07040  Biso   1.000  O
  O79      1.0000 0.53990  0.00400  0.42960  Biso   1.000  O
  O80      1.0000 0.03990  0.50400  0.42960  Biso   1.000  O
  O81      1.0000 0.65940  0.91600  0.82480  Biso   1.000  O
  O82      1.0000 0.15940  0.41600  0.82480  Biso   1.000  O
  O83      1.0000 0.34060  0.91600  0.67520  Biso   1.000  O
  O84      1.0000 0.84060  0.41600  0.67520  Biso   1.000  O
  O85      1.0000 0.34060  0.08400  0.17520  Biso   1.000  O
  O86      1.0000 0.84060  0.58400  0.17520  Biso   1.000  O
  O87      1.0000 0.65940  0.08400  0.32480  Biso   1.000  O
  O88      1.0000 0.15940  0.58400  0.32480  Biso   1.000  O
  O89      1.0000 0.60670  0.99070  0.86940  Biso   1.000  O
  O90      1.0000 0.10670  0.49070  0.86940  Biso   1.000  O
  O91      1.0000 0.39330  0.99070  0.63060  Biso   1.000  O
  O92      1.0000 0.89330  0.49070  0.63060  Biso   1.000  O
  O93      1.0000 0.39330  0.00930  0.13060  Biso   1.000  O
  O94      1.0000 0.89330  0.50930  0.13060  Biso   1.000  O
  O95      1.0000 0.60670  0.00930  0.36940  Biso   1.000  O
  O96      1.0000 0.10670  0.50930  0.36940  Biso   1.000  O
  O97      1.0000 0.93310  0.95070  0.91550  Biso   1.000  O
  O98      1.0000 0.43310  0.45070  0.91550  Biso   1.000  O
  O99      1.0000 0.06690  0.95070  0.58450  Biso   1.000  O
  O100     1.0000 0.56690  0.45070  0.58450  Biso   1.000  O
  O101     1.0000 0.06690  0.04930  0.08450  Biso   1.000  O
  O102     1.0000 0.56690  0.54930  0.08450  Biso   1.000  O
  O103     1.0000 0.93310  0.04930  0.41550  Biso   1.000  O
  O104     1.0000 0.43310  0.54930  0.41550  Biso   1.000  O
  O105     1.0000 0.54750  0.09630  0.81860  Biso   1.000  O
  O106     1.0000 0.04750  0.59630  0.81860  Biso   1.000  O
  O107     1.0000 0.45250  0.09630  0.68140  Biso   1.000  O
  O108     1.0000 0.95250  0.59630  0.68140  Biso   1.000  O
  O109     1.0000 0.45250  0.90370  0.18140  Biso   1.000  O
  O110     1.0000 0.95250  0.40370  0.18140  Biso   1.000  O
  O111     1.0000 0.54750  0.90370  0.31860  Biso   1.000  O
  O112     1.0000 0.04750  0.40370  0.31860  Biso   1.000  O
  O113     1.0000 0.83640  0.19960  0.88740  Biso   1.000  O
  O114     1.0000 0.33640  0.69960  0.88740  Biso   1.000  O
  O115     1.0000 0.16360  0.19960  0.61260  Biso   1.000  O
  O116     1.0000 0.66360  0.69960  0.61260  Biso   1.000  O
  O117     1.0000 0.16360  0.80040  0.11260  Biso   1.000  O
  O118     1.0000 0.66360  0.30040  0.11260  Biso   1.000  O
  O119     1.0000 0.83640  0.80040  0.38740  Biso   1.000  O
  O120     1.0000 0.33640  0.30040  0.38740  Biso   1.000  O
  O121     1.0000 0.51130  0.84690  0.79130  Biso   1.000  O
  O122     1.0000 0.01130  0.34690  0.79130  Biso   1.000  O
  O123     1.0000 0.48870  0.84690  0.70870  Biso   1.000  O
  O124     1.0000 0.98870  0.34690  0.70870  Biso   1.000  O
  O125     1.0000 0.48870  0.15310  0.20870  Biso   1.000  O
  O126     1.0000 0.98870  0.65310  0.20870  Biso   1.000  O
  O127     1.0000 0.51130  0.15310  0.29130  Biso   1.000  O
  O128     1.0000 0.01130  0.65310  0.29130  Biso   1.000  O
  O129     1.0000 0.60140  0.02520  0.76740  Biso   1.000  O
  O130     1.0000 0.10140  0.52520  0.76740  Biso   1.000  O
  O131     1.0000 0.39860  0.02520  0.73260  Biso   1.000  O
  O132     1.0000 0.89860  0.52520  0.73260  Biso   1.000  O
  O133     1.0000 0.39860  0.97480  0.23260  Biso   1.000  O
  O134     1.0000 0.89860  0.47480  0.23260  Biso   1.000  O
  O135     1.0000 0.60140  0.97480  0.26740  Biso   1.000  O
  O136     1.0000 0.10140  0.47480  0.26740  Biso   1.000  O
  O137     1.0000 0.62470  0.88330  0.92170  Biso   1.000  O
  O138     1.0000 0.12470  0.38330  0.92170  Biso   1.000  O
  O139     1.0000 0.37530  0.88330  0.57830  Biso   1.000  O
  O140     1.0000 0.87530  0.38330  0.57830  Biso   1.000  O
  O141     1.0000 0.37530  0.11670  0.07830  Biso   1.000  O
  O142     1.0000 0.87530  0.61670  0.07830  Biso   1.000  O
  O143     1.0000 0.62470  0.11670  0.42170  Biso   1.000  O
  O144     1.0000 0.12470  0.61670  0.42170  Biso   1.000  O
  O145     1.0000 0.84620  0.06600  0.90460  Biso   1.000  O
  O146     1.0000 0.34620  0.56600  0.90460  Biso   1.000  O
  O147     1.0000 0.15380  0.06600  0.59540  Biso   1.000  O
  O148     1.0000 0.65380  0.56600  0.59540  Biso   1.000  O
  O149     1.0000 0.15380  0.93400  0.09540  Biso   1.000  O
  O150     1.0000 0.65380  0.43400  0.09540  Biso   1.000  O
  O151     1.0000 0.84620  0.93400  0.40460  Biso   1.000  O
  O152     1.0000 0.34620  0.43400  0.40460  Biso   1.000  O
  O153     1.0000 0.46360  0.98110  0.80310  Biso   1.000  O
  O154     1.0000 0.96360  0.48110  0.80310  Biso   1.000  O
  O155     1.0000 0.53640  0.98110  0.69690  Biso   1.000  O
  O156     1.0000 0.03640  0.48110  0.69690  Biso   1.000  O
  O157     1.0000 0.53640  0.01890  0.19690  Biso   1.000  O
  O158     1.0000 0.03640  0.51890  0.19690  Biso   1.000  O
  O159     1.0000 0.46360  0.01890  0.30310  Biso   1.000  O
  O160     1.0000 0.96360  0.51890  0.30310  Biso   1.000  O
  O161     1.0000 0.71240  0.15580  0.82940  Biso   1.000  O
  O162     1.0000 0.21240  0.65580  0.82940  Biso   1.000  O
  O163     1.0000 0.28760  0.15580  0.67060  Biso   1.000  O
  O164     1.0000 0.78760  0.65580  0.67060  Biso   1.000  O
  O165     1.0000 0.28760  0.84420  0.17060  Biso   1.000  O
  O166     1.0000 0.78760  0.34420  0.17060  Biso   1.000  O
  O167     1.0000 0.71240  0.84420  0.32940  Biso   1.000  O
  O168     1.0000 0.21240  0.34420  0.32940  Biso   1.000  O
  O169     1.0000 0.73110  0.02820  0.83730  Biso   1.000  O
  O170     1.0000 0.23110  0.52820  0.83730  Biso   1.000  O
  O171     1.0000 0.26890  0.02820  0.66270  Biso   1.000  O
  O172     1.0000 0.76890  0.52820  0.66270  Biso   1.000  O
  O173     1.0000 0.26890  0.97180  0.16270  Biso   1.000  O
  O174     1.0000 0.76890  0.47180  0.16270  Biso   1.000  O
  O175     1.0000 0.73110  0.97180  0.33730  Biso   1.000  O
  O176     1.0000 0.23110  0.47180  0.33730  Biso   1.000  O
  O177     1.0000 0.85770  0.83370  0.90230  Biso   1.000  O
  O178     1.0000 0.35770  0.33370  0.90230  Biso   1.000  O
  O179     1.0000 0.14230  0.83370  0.59770  Biso   1.000  O
  O180     1.0000 0.64230  0.33370  0.59770  Biso   1.000  O
  O181     1.0000 0.14230  0.16630  0.09770  Biso   1.000  O
  O182     1.0000 0.64230  0.66630  0.09770  Biso   1.000  O
  O183     1.0000 0.85770  0.16630  0.40230  Biso   1.000  O
  O184     1.0000 0.35770  0.66630  0.40230  Biso   1.000  O
  O185     1.0000 0.71540  0.02400  0.93790  Biso   1.000  O
  O186     1.0000 0.21540  0.52400  0.93790  Biso   1.000  O
  O187     1.0000 0.28460  0.02400  0.56210  Biso   1.000  O
  O188     1.0000 0.78460  0.52400  0.56210  Biso   1.000  O
  O189     1.0000 0.28460  0.97600  0.06210  Biso   1.000  O
  O190     1.0000 0.78460  0.47600  0.06210  Biso   1.000  O
  O191     1.0000 0.71540  0.97600  0.43790  Biso   1.000  O
  O192     1.0000 0.21540  0.47600  0.43790  Biso   1.000  O
  O193     1.0000 0.59090  0.12250  0.95210  Biso   1.000  O
  O194     1.0000 0.09090  0.62250  0.95210  Biso   1.000  O
  O195     1.0000 0.40910  0.12250  0.54790  Biso   1.000  O
  O196     1.0000 0.90910  0.62250  0.54790  Biso   1.000  O
  O197     1.0000 0.40910  0.87750  0.04790  Biso   1.000  O
  O198     1.0000 0.90910  0.37750  0.04790  Biso   1.000  O
  O199     1.0000 0.59090  0.87750  0.45210  Biso   1.000  O
  O200     1.0000 0.09090  0.37750  0.45210  Biso   1.000  O
  O201     1.0000 0.43440  0.88190  0.92190  Biso   1.000  O
  O202     1.0000 0.93440  0.38190  0.92190  Biso   1.000  O
  O203     1.0000 0.56560  0.88190  0.57810  Biso   1.000  O
  O204     1.0000 0.06560  0.38190  0.57810  Biso   1.000  O
  O205     1.0000 0.56560  0.11810  0.07810  Biso   1.000  O
  O206     1.0000 0.06560  0.61810  0.07810  Biso   1.000  O
  O207     1.0000 0.43440  0.11810  0.42190  Biso   1.000  O
  O208     1.0000 0.93440  0.61810  0.42190  Biso   1.000  O
  O209     1.0000 0.65510  0.89320  0.75470  Biso   1.000  O
  O210     1.0000 0.15510  0.39320  0.75470  Biso   1.000  O
  O211     1.0000 0.34490  0.89320  0.74530  Biso   1.000  O
  O212     1.0000 0.84490  0.39320  0.74530  Biso   1.000  O
  O213     1.0000 0.34490  0.10680  0.24530  Biso   1.000  O
  O214     1.0000 0.84490  0.60680  0.24530  Biso   1.000  O
  O215     1.0000 0.65510  0.10680  0.25470  Biso   1.000  O
  O216     1.0000 0.15510  0.60680  0.25470  Biso   1.000  O
  O217     1.0000 0.54450  0.73840  0.83240  Biso   1.000  O
  O218     1.0000 0.04450  0.23840  0.83240  Biso   1.000  O
  O219     1.0000 0.45550  0.73840  0.66760  Biso   1.000  O
  O220     1.0000 0.95550  0.23840  0.66760  Biso   1.000  O
  O221     1.0000 0.45550  0.26160  0.16760  Biso   1.000  O
  O222     1.0000 0.95550  0.76160  0.16760  Biso   1.000  O
  O223     1.0000 0.54450  0.26160  0.33240  Biso   1.000  O
  O224     1.0000 0.04450  0.76160  0.33240  Biso   1.000  O
  O225     1.0000 0.60830  0.15940  0.76060  Biso   1.000  O
  O226     1.0000 0.10830  0.65940  0.76060  Biso   1.000  O
  O227     1.0000 0.39170  0.15940  0.73940  Biso   1.000  O
  O228     1.0000 0.89170  0.65940  0.73940  Biso   1.000  O
  O229     1.0000 0.39170  0.84060  0.23940  Biso   1.000  O
  O230     1.0000 0.89170  0.34060  0.23940  Biso   1.000  O
  O231     1.0000 0.60830  0.84060  0.26060  Biso   1.000  O
  O232     1.0000 0.10830  0.34060  0.26060  Biso   1.000  O
  O233     1.0000 0.74110  0.77600  0.94450  Biso   1.000  O
  O234     1.0000 0.24110  0.27600  0.94450  Biso   1.000  O
  O235     1.0000 0.25890  0.77600  0.55550  Biso   1.000  O
  O236     1.0000 0.75890  0.27600  0.55550  Biso   1.000  O
  O237     1.0000 0.25890  0.22400  0.05550  Biso   1.000  O
  O238     1.0000 0.75890  0.72400  0.05550  Biso   1.000  O
  O239     1.0000 0.74110  0.22400  0.44450  Biso   1.000  O
  O240     1.0000 0.24110  0.72400  0.44450  Biso   1.000  O
  O241     1.0000 0.91650  0.97580  0.84640  Biso   1.000  O
  O242     1.0000 0.41650  0.47580  0.84640  Biso   1.000  O
  O243     1.0000 0.08350  0.97580  0.65360  Biso   1.000  O
  O244     1.0000 0.58350  0.47580  0.65360  Biso   1.000  O
  O245     1.0000 0.08350  0.02420  0.15360  Biso   1.000  O
  O246     1.0000 0.58350  0.52420  0.15360  Biso   1.000  O
  O247     1.0000 0.91650  0.02420  0.34640  Biso   1.000  O
  O248     1.0000 0.41650  0.52420  0.34640  Biso   1.000  O
  O249     1.0000 0.36210  0.08020  0.82450  Biso   1.000  O
  O250     1.0000 0.86210  0.58020  0.82450  Biso   1.000  O
  O251     1.0000 0.63790  0.08020  0.67550  Biso   1.000  O
  O252     1.0000 0.13790  0.58020  0.67550  Biso   1.000  O
  O253     1.0000 0.63790  0.91980  0.17550  Biso   1.000  O
  O254     1.0000 0.13790  0.41980  0.17550  Biso   1.000  O
  O255     1.0000 0.36210  0.91980  0.32450  Biso   1.000  O
  O256     1.0000 0.86210  0.41980  0.32450  Biso   1.000  O
  O257     1.0000 0.95450  0.04320  0.78790  Biso   1.000  O
  O258     1.0000 0.45450  0.54320  0.78790  Biso   1.000  O
  O259     1.0000 0.04550  0.04320  0.71210  Biso   1.000  O
  O260     1.0000 0.54550  0.54320  0.71210  Biso   1.000  O
  O261     1.0000 0.04550  0.95680  0.21210  Biso   1.000  O
  O262     1.0000 0.54550  0.45680  0.21210  Biso   1.000  O
  O263     1.0000 0.95450  0.95680  0.28790  Biso   1.000  O
  O264     1.0000 0.45450  0.45680  0.28790  Biso   1.000  O
  O265     1.0000 0.81360  0.82490  0.76250  Biso   1.000  O
  O266     1.0000 0.31360  0.32490  0.76250  Biso   1.000  O
  O267     1.0000 0.18640  0.82490  0.73750  Biso   1.000  O
  O268     1.0000 0.68640  0.32490  0.73750  Biso   1.000  O
  O269     1.0000 0.18640  0.17510  0.23750  Biso   1.000  O
  O270     1.0000 0.68640  0.67510  0.23750  Biso   1.000  O
  O271     1.0000 0.81360  0.17510  0.26250  Biso   1.000  O
  O272     1.0000 0.31360  0.67510  0.26250  Biso   1.000  O
  O273     1.0000 0.89840  0.02070  0.97470  Biso   1.000  O
  O274     1.0000 0.39840  0.52070  0.97470  Biso   1.000  O
  O275     1.0000 0.10160  0.02070  0.52530  Biso   1.000  O
  O276     1.0000 0.60160  0.52070  0.52530  Biso   1.000  O
  O277     1.0000 0.10160  0.97930  0.02530  Biso   1.000  O
  O278     1.0000 0.60160  0.47930  0.02530  Biso   1.000  O
  O279     1.0000 0.89840  0.97930  0.47470  Biso   1.000  O
  O280     1.0000 0.39840  0.47930  0.47470  Biso   1.000  O
  O281     1.0000 0.01390  0.86420  0.87300  Biso   1.000  O
  O282     1.0000 0.51390  0.36420  0.87300  Biso   1.000  O
  O283     1.0000 0.98610  0.86420  0.62700  Biso   1.000  O
  O284     1.0000 0.48610  0.36420  0.62700  Biso   1.000  O
  O285     1.0000 0.98610  0.13580  0.12700  Biso   1.000  O
  O286     1.0000 0.48610  0.63580  0.12700  Biso   1.000  O
  O287     1.0000 0.01390  0.13580  0.37300  Biso   1.000  O
  O288     1.0000 0.51390  0.63580  0.37300  Biso   1.000  O
  O289     1.0000 0.76950  0.08270  0.78050  Biso   1.000  O
  O290     1.0000 0.26950  0.58270  0.78050  Biso   1.000  O
  O291     1.0000 0.23050  0.08270  0.71950  Biso   1.000  O
  O292     1.0000 0.73050  0.58270  0.71950  Biso   1.000  O
  O293     1.0000 0.23050  0.91730  0.21950  Biso   1.000  O
  O294     1.0000 0.73050  0.41730  0.21950  Biso   1.000  O
  O295     1.0000 0.76950  0.91730  0.28050  Biso   1.000  O
  O296     1.0000 0.26950  0.41730  0.28050  Biso   1.000  O
  O297     1.0000 0.87930  0.10140  0.84250  Biso   1.000  O
  O298     1.0000 0.37930  0.60140  0.84250  Biso   1.000  O
  O299     1.0000 0.12070  0.10140  0.65750  Biso   1.000  O
  O300     1.0000 0.62070  0.60140  0.65750  Biso   1.000  O
  O301     1.0000 0.12070  0.89860  0.15750  Biso   1.000  O
  O302     1.0000 0.62070  0.39860  0.15750  Biso   1.000  O
  O303     1.0000 0.87930  0.89860  0.34250  Biso   1.000  O
  O304     1.0000 0.37930  0.39860  0.34250  Biso   1.000  O
  O305     1.0000 0.79950  0.90850  0.94910  Biso   1.000  O
  O306     1.0000 0.29950  0.40850  0.94910  Biso   1.000  O
  O307     1.0000 0.20050  0.90850  0.55090  Biso   1.000  O
  O308     1.0000 0.70050  0.40850  0.55090  Biso   1.000  O
  O309     1.0000 0.20050  0.09150  0.05090  Biso   1.000  O
  O310     1.0000 0.70050  0.59150  0.05090  Biso   1.000  O
  O311     1.0000 0.79950  0.09150  0.44910  Biso   1.000  O
  O312     1.0000 0.29950  0.59150  0.44910  Biso   1.000  O
  O313     1.0000 0.61490  0.02150  0.01660  Biso   1.000  O
  O314     1.0000 0.11490  0.52150  0.01660  Biso   1.000  O
  O315     1.0000 0.38510  0.02150  0.48340  Biso   1.000  O
  O316     1.0000 0.88510  0.52150  0.48340  Biso   1.000  O
  O317     1.0000 0.38510  0.97850  0.98340  Biso   1.000  O
  O318     1.0000 0.88510  0.47850  0.98340  Biso   1.000  O
  O319     1.0000 0.61490  0.97850  0.51660  Biso   1.000  O
  O320     1.0000 0.11490  0.47850  0.51660  Biso   1.000  O
  O321     1.0000 0.55070  0.92260  0.00540  Biso   1.000  O
  O322     1.0000 0.05070  0.42260  0.00540  Biso   1.000  O
  O323     1.0000 0.44930  0.92260  0.49460  Biso   1.000  O
  O324     1.0000 0.94930  0.42260  0.49460  Biso   1.000  O
  O325     1.0000 0.44930  0.07740  0.99460  Biso   1.000  O
  O326     1.0000 0.94930  0.57740  0.99460  Biso   1.000  O
  O327     1.0000 0.55070  0.07740  0.50540  Biso   1.000  O
  O328     1.0000 0.05070  0.57740  0.50540  Biso   1.000  O
