data_image0
_cell_length_a       14.764
_cell_length_b       20.448
_cell_length_c       38.477
_cell_angle_alpha    90
_cell_angle_beta     99.961
_cell_angle_gamma    90

_symmetry_space_group_name_H-M    "P 1"
_symmetry_int_tables_number       1

loop_
  _symmetry_equiv_pos_as_xyz
  'x, y, z'

loop_
  _atom_site_label
  _atom_site_occupancy
  _atom_site_fract_x
  _atom_site_fract_y
  _atom_site_fract_z
  _atom_site_thermal_displace_type
  _atom_site_B_iso_or_equiv
  _atom_site_type_symbol
  K1       1.0000 0.66430  0.37360  0.68457  Biso   1.000  K
  K2       1.0000 0.16430  0.87360  0.68457  Biso   1.000  K
  K3       1.0000 0.33570  0.37360  0.81543  Biso   1.000  K
  K4       1.0000 0.83570  0.87360  0.81543  Biso   1.000  K
  K5       1.0000 0.33570  0.62640  0.31543  Biso   1.000  K
  K6       1.0000 0.83570  0.12640  0.31543  Biso   1.000  K
  K7       1.0000 0.66430  0.62640  0.18457  Biso   1.000  K
  K8       1.0000 0.16430  0.12640  0.18457  Biso   1.000  K
  C1       1.0000 0.43340  0.79560  0.00610  Biso   1.000  C
  C2       1.0000 0.93340  0.29560  0.00610  Biso   1.000  C
  C3       1.0000 0.56660  0.79560  0.49390  Biso   1.000  C
  C4       1.0000 0.06660  0.29560  0.49390  Biso   1.000  C
  C5       1.0000 0.56660  0.20440  0.99390  Biso   1.000  C
  C6       1.0000 0.06660  0.70440  0.99390  Biso   1.000  C
  C7       1.0000 0.43340  0.20440  0.50610  Biso   1.000  C
  C8       1.0000 0.93340  0.70440  0.50610  Biso   1.000  C
  H1       1.0000 0.37450  0.81160  0.99810  Biso   1.000  H
  H2       1.0000 0.87450  0.31160  0.99810  Biso   1.000  H
  H3       1.0000 0.62550  0.81160  0.50190  Biso   1.000  H
  H4       1.0000 0.12550  0.31160  0.50190  Biso   1.000  H
  H5       1.0000 0.62550  0.18840  0.00190  Biso   1.000  H
  H6       1.0000 0.12550  0.68840  0.00190  Biso   1.000  H
  H7       1.0000 0.37450  0.18840  0.49810  Biso   1.000  H
  H8       1.0000 0.87450  0.68840  0.49810  Biso   1.000  H
  C9       1.0000 0.69360  0.71510  0.03560  Biso   1.000  C
  C10      1.0000 0.19360  0.21510  0.03560  Biso   1.000  C
  C11      1.0000 0.30640  0.71510  0.46440  Biso   1.000  C
  C12      1.0000 0.80640  0.21510  0.46440  Biso   1.000  C
  C13      1.0000 0.30640  0.28490  0.96440  Biso   1.000  C
  C14      1.0000 0.80640  0.78490  0.96440  Biso   1.000  C
  C15      1.0000 0.69360  0.28490  0.53560  Biso   1.000  C
  C16      1.0000 0.19360  0.78490  0.53560  Biso   1.000  C
  C17      1.0000 0.60780  0.74560  0.02760  Biso   1.000  C
  C18      1.0000 0.10780  0.24560  0.02760  Biso   1.000  C
  C19      1.0000 0.39220  0.74560  0.47240  Biso   1.000  C
  C20      1.0000 0.89220  0.24560  0.47240  Biso   1.000  C
  C21      1.0000 0.39220  0.25440  0.97240  Biso   1.000  C
  C22      1.0000 0.89220  0.75440  0.97240  Biso   1.000  C
  C23      1.0000 0.60780  0.25440  0.52760  Biso   1.000  C
  C24      1.0000 0.10780  0.75440  0.52760  Biso   1.000  C
  C25      1.0000 0.45470  0.72750  0.00410  Biso   1.000  C
  C26      1.0000 0.95470  0.22750  0.00410  Biso   1.000  C
  C27      1.0000 0.54530  0.72750  0.49590  Biso   1.000  C
  C28      1.0000 0.04530  0.22750  0.49590  Biso   1.000  C
  C29      1.0000 0.54530  0.27250  0.99590  Biso   1.000  C
  C30      1.0000 0.04530  0.77250  0.99590  Biso   1.000  C
  C31      1.0000 0.45470  0.27250  0.50410  Biso   1.000  C
  C32      1.0000 0.95470  0.77250  0.50410  Biso   1.000  C
  H9       1.0000 0.40820  0.69830  0.99530  Biso   1.000  H
  H10      1.0000 0.90820  0.19830  0.99530  Biso   1.000  H
  H11      1.0000 0.59180  0.69830  0.50470  Biso   1.000  H
  H12      1.0000 0.09180  0.19830  0.50470  Biso   1.000  H
  H13      1.0000 0.59180  0.30170  0.00470  Biso   1.000  H
  H14      1.0000 0.09180  0.80170  0.00470  Biso   1.000  H
  H15      1.0000 0.40820  0.30170  0.49530  Biso   1.000  H
  H16      1.0000 0.90820  0.80170  0.49530  Biso   1.000  H
  C33      1.0000 0.50310  0.83530  0.02000  Biso   1.000  C
  C34      1.0000 0.00310  0.33530  0.02000  Biso   1.000  C
  C35      1.0000 0.49690  0.83530  0.48000  Biso   1.000  C
  C36      1.0000 0.99690  0.33530  0.48000  Biso   1.000  C
  C37      1.0000 0.49690  0.16470  0.98000  Biso   1.000  C
  C38      1.0000 0.99690  0.66470  0.98000  Biso   1.000  C
  C39      1.0000 0.50310  0.16470  0.52000  Biso   1.000  C
  C40      1.0000 0.00310  0.66470  0.52000  Biso   1.000  C
  H17      1.0000 0.49230  0.87960  0.02280  Biso   1.000  H
  H18      1.0000 0.99230  0.37960  0.02280  Biso   1.000  H
  H19      1.0000 0.50770  0.87960  0.47720  Biso   1.000  H
  H20      1.0000 0.00770  0.37960  0.47720  Biso   1.000  H
  H21      1.0000 0.50770  0.12040  0.97720  Biso   1.000  H
  H22      1.0000 0.00770  0.62040  0.97720  Biso   1.000  H
  H23      1.0000 0.49230  0.12040  0.52280  Biso   1.000  H
  H24      1.0000 0.99230  0.62040  0.52280  Biso   1.000  H
  C41      1.0000 0.58900  0.81090  0.02990  Biso   1.000  C
  C42      1.0000 0.08900  0.31090  0.02990  Biso   1.000  C
  C43      1.0000 0.41100  0.81090  0.47010  Biso   1.000  C
  C44      1.0000 0.91100  0.31090  0.47010  Biso   1.000  C
  C45      1.0000 0.41100  0.18910  0.97010  Biso   1.000  C
  C46      1.0000 0.91100  0.68910  0.97010  Biso   1.000  C
  C47      1.0000 0.58900  0.18910  0.52990  Biso   1.000  C
  C48      1.0000 0.08900  0.68910  0.52990  Biso   1.000  C
  H25      1.0000 0.63670  0.83940  0.03860  Biso   1.000  H
  H26      1.0000 0.13670  0.33940  0.03860  Biso   1.000  H
  H27      1.0000 0.36330  0.83940  0.46140  Biso   1.000  H
  H28      1.0000 0.86330  0.33940  0.46140  Biso   1.000  H
  H29      1.0000 0.36330  0.16060  0.96140  Biso   1.000  H
  H30      1.0000 0.86330  0.66060  0.96140  Biso   1.000  H
  H31      1.0000 0.63670  0.16060  0.53860  Biso   1.000  H
  H32      1.0000 0.13670  0.66060  0.53860  Biso   1.000  H
  C49      1.0000 0.45290  0.51610  0.99330  Biso   1.000  C
  C50      1.0000 0.95290  0.01610  0.99330  Biso   1.000  C
  C51      1.0000 0.54710  0.51610  0.50670  Biso   1.000  C
  C52      1.0000 0.04710  0.01610  0.50670  Biso   1.000  C
  C53      1.0000 0.54710  0.48390  0.00670  Biso   1.000  C
  C54      1.0000 0.04710  0.98390  0.00670  Biso   1.000  C
  C55      1.0000 0.45290  0.48390  0.49330  Biso   1.000  C
  C56      1.0000 0.95290  0.98390  0.49330  Biso   1.000  C
  N1       1.0000 0.69400  0.65110  0.02940  Biso   1.000  N
  N2       1.0000 0.19400  0.15110  0.02940  Biso   1.000  N
  N3       1.0000 0.30600  0.65110  0.47060  Biso   1.000  N
  N4       1.0000 0.80600  0.15110  0.47060  Biso   1.000  N
  N5       1.0000 0.30600  0.34890  0.97060  Biso   1.000  N
  N6       1.0000 0.80600  0.84890  0.97060  Biso   1.000  N
  N7       1.0000 0.69400  0.34890  0.52940  Biso   1.000  N
  N8       1.0000 0.19400  0.84890  0.52940  Biso   1.000  N
  N9       1.0000 0.53670  0.70610  0.01430  Biso   1.000  N
  N10      1.0000 0.03670  0.20610  0.01430  Biso   1.000  N
  N11      1.0000 0.46330  0.70610  0.48570  Biso   1.000  N
  N12      1.0000 0.96330  0.20610  0.48570  Biso   1.000  N
  N13      1.0000 0.46330  0.29390  0.98570  Biso   1.000  N
  N14      1.0000 0.96330  0.79390  0.98570  Biso   1.000  N
  N15      1.0000 0.53670  0.29390  0.51430  Biso   1.000  N
  N16      1.0000 0.03670  0.79390  0.51430  Biso   1.000  N
  O1       1.0000 0.90080  0.51880  0.97460  Biso   1.000  O
  O2       1.0000 0.40080  0.01880  0.97460  Biso   1.000  O
  O3       1.0000 0.09920  0.51880  0.52540  Biso   1.000  O
  O4       1.0000 0.59920  0.01880  0.52540  Biso   1.000  O
  O5       1.0000 0.09920  0.48120  0.02540  Biso   1.000  O
  O6       1.0000 0.59920  0.98120  0.02540  Biso   1.000  O
  O7       1.0000 0.90080  0.48120  0.47460  Biso   1.000  O
  O8       1.0000 0.40080  0.98120  0.47460  Biso   1.000  O
  O9       1.0000 0.79880  0.40910  0.94920  Biso   1.000  O
  O10      1.0000 0.29880  0.90910  0.94920  Biso   1.000  O
  O11      1.0000 0.20120  0.40910  0.55080  Biso   1.000  O
  O12      1.0000 0.70120  0.90910  0.55080  Biso   1.000  O
  O13      1.0000 0.20120  0.59090  0.05080  Biso   1.000  O
  O14      1.0000 0.70120  0.09090  0.05080  Biso   1.000  O
  O15      1.0000 0.79880  0.59090  0.44920  Biso   1.000  O
  O16      1.0000 0.29880  0.09090  0.44920  Biso   1.000  O
  O17      1.0000 0.71600  0.52370  0.93660  Biso   1.000  O
  O18      1.0000 0.21600  0.02370  0.93660  Biso   1.000  O
  O19      1.0000 0.28400  0.52370  0.56340  Biso   1.000  O
  O20      1.0000 0.78400  0.02370  0.56340  Biso   1.000  O
  O21      1.0000 0.28400  0.47630  0.06340  Biso   1.000  O
  O22      1.0000 0.78400  0.97630  0.06340  Biso   1.000  O
  O23      1.0000 0.71600  0.47630  0.43660  Biso   1.000  O
  O24      1.0000 0.21600  0.97630  0.43660  Biso   1.000  O
  O25      1.0000 0.93010  0.45070  0.91550  Biso   1.000  O
  O26      1.0000 0.43010  0.95070  0.91550  Biso   1.000  O
  O27      1.0000 0.06990  0.45070  0.58450  Biso   1.000  O
  O28      1.0000 0.56990  0.95070  0.58450  Biso   1.000  O
  O29      1.0000 0.06990  0.54930  0.08450  Biso   1.000  O
  O30      1.0000 0.56990  0.04930  0.08450  Biso   1.000  O
  O31      1.0000 0.93010  0.54930  0.41550  Biso   1.000  O
  O32      1.0000 0.43010  0.04930  0.41550  Biso   1.000  O
  O33      1.0000 0.84670  0.56580  0.90520  Biso   1.000  O
  O34      1.0000 0.34670  0.06580  0.90520  Biso   1.000  O
  O35      1.0000 0.15330  0.56580  0.59480  Biso   1.000  O
  O36      1.0000 0.65330  0.06580  0.59480  Biso   1.000  O
  O37      1.0000 0.15330  0.43420  0.09480  Biso   1.000  O
  O38      1.0000 0.65330  0.93420  0.09480  Biso   1.000  O
  O39      1.0000 0.84670  0.43420  0.40520  Biso   1.000  O
  O40      1.0000 0.34670  0.93420  0.40520  Biso   1.000  O
  O41      1.0000 0.01510  0.36390  0.87390  Biso   1.000  O
  O42      1.0000 0.51510  0.86390  0.87390  Biso   1.000  O
  O43      1.0000 0.98490  0.36390  0.62610  Biso   1.000  O
  O44      1.0000 0.48490  0.86390  0.62610  Biso   1.000  O
  O45      1.0000 0.98490  0.63610  0.12610  Biso   1.000  O
  O46      1.0000 0.48490  0.13610  0.12610  Biso   1.000  O
  O47      1.0000 0.01510  0.63610  0.37390  Biso   1.000  O
  O48      1.0000 0.51510  0.13610  0.37390  Biso   1.000  O
  O49      1.0000 0.83510  0.70020  0.88740  Biso   1.000  O
  O50      1.0000 0.33510  0.20020  0.88740  Biso   1.000  O
  O51      1.0000 0.16490  0.70020  0.61260  Biso   1.000  O
  O52      1.0000 0.66490  0.20020  0.61260  Biso   1.000  O
  O53      1.0000 0.16490  0.29980  0.11260  Biso   1.000  O
  O54      1.0000 0.66490  0.79980  0.11260  Biso   1.000  O
  O55      1.0000 0.83510  0.29980  0.38740  Biso   1.000  O
  O56      1.0000 0.33510  0.79980  0.38740  Biso   1.000  O
  O57      1.0000 0.87960  0.60020  0.84280  Biso   1.000  O
  O58      1.0000 0.37960  0.10020  0.84280  Biso   1.000  O
  O59      1.0000 0.12040  0.60020  0.65720  Biso   1.000  O
  O60      1.0000 0.62040  0.10020  0.65720  Biso   1.000  O
  O61      1.0000 0.12040  0.39980  0.15720  Biso   1.000  O
  O62      1.0000 0.62040  0.89980  0.15720  Biso   1.000  O
  O63      1.0000 0.87960  0.39980  0.34280  Biso   1.000  O
  O64      1.0000 0.37960  0.89980  0.34280  Biso   1.000  O
  O65      1.0000 0.95040  0.54380  0.78700  Biso   1.000  O
  O66      1.0000 0.45040  0.04380  0.78700  Biso   1.000  O
  O67      1.0000 0.04960  0.54380  0.71300  Biso   1.000  O
  O68      1.0000 0.54960  0.04380  0.71300  Biso   1.000  O
  O69      1.0000 0.04960  0.45620  0.21300  Biso   1.000  O
  O70      1.0000 0.54960  0.95620  0.21300  Biso   1.000  O
  O71      1.0000 0.95040  0.45620  0.28700  Biso   1.000  O
  O72      1.0000 0.45040  0.95620  0.28700  Biso   1.000  O
  O73      1.0000 0.83840  0.36080  0.83280  Biso   1.000  O
  O74      1.0000 0.33840  0.86080  0.83280  Biso   1.000  O
  O75      1.0000 0.16160  0.36080  0.66720  Biso   1.000  O
  O76      1.0000 0.66160  0.86080  0.66720  Biso   1.000  O
  O77      1.0000 0.16160  0.63920  0.16720  Biso   1.000  O
  O78      1.0000 0.66160  0.13920  0.16720  Biso   1.000  O
  O79      1.0000 0.83840  0.63920  0.33280  Biso   1.000  O
  O80      1.0000 0.33840  0.13920  0.33280  Biso   1.000  O
  O81      1.0000 0.81420  0.32370  0.76290  Biso   1.000  O
  O82      1.0000 0.31420  0.82370  0.76290  Biso   1.000  O
  O83      1.0000 0.18580  0.32370  0.73710  Biso   1.000  O
  O84      1.0000 0.68580  0.82370  0.73710  Biso   1.000  O
  O85      1.0000 0.18580  0.67630  0.23710  Biso   1.000  O
  O86      1.0000 0.68580  0.17630  0.23710  Biso   1.000  O
  O87      1.0000 0.81420  0.67630  0.26290  Biso   1.000  O
  O88      1.0000 0.31420  0.17630  0.26290  Biso   1.000  O
  O89      1.0000 0.80580  0.45400  0.78700  Biso   1.000  O
  O90      1.0000 0.30580  0.95400  0.78700  Biso   1.000  O
  O91      1.0000 0.19420  0.45400  0.71300  Biso   1.000  O
  O92      1.0000 0.69420  0.95400  0.71300  Biso   1.000  O
  O93      1.0000 0.19420  0.54600  0.21300  Biso   1.000  O
  O94      1.0000 0.69420  0.04600  0.21300  Biso   1.000  O
  O95      1.0000 0.80580  0.54600  0.28700  Biso   1.000  O
  O96      1.0000 0.30580  0.04600  0.28700  Biso   1.000  O
  O97      1.0000 0.65780  0.41630  0.82487  Biso   1.000  O
  O98      1.0000 0.15780  0.91630  0.82487  Biso   1.000  O
  O99      1.0000 0.34220  0.41630  0.67513  Biso   1.000  O
  O100     1.0000 0.84220  0.91630  0.67513  Biso   1.000  O
  O101     1.0000 0.34220  0.58370  0.17513  Biso   1.000  O
  O102     1.0000 0.84220  0.08370  0.17513  Biso   1.000  O
  O103     1.0000 0.65780  0.58370  0.32487  Biso   1.000  O
  O104     1.0000 0.15780  0.08370  0.32487  Biso   1.000  O
  O105     1.0000 0.65510  0.39200  0.75488  Biso   1.000  O
  O106     1.0000 0.15510  0.89200  0.75488  Biso   1.000  O
  O107     1.0000 0.34490  0.39200  0.74512  Biso   1.000  O
  O108     1.0000 0.84490  0.89200  0.74512  Biso   1.000  O
  O109     1.0000 0.34490  0.60800  0.24512  Biso   1.000  O
  O110     1.0000 0.84490  0.10800  0.24512  Biso   1.000  O
  O111     1.0000 0.65510  0.60800  0.25488  Biso   1.000  O
  O112     1.0000 0.15510  0.10800  0.25488  Biso   1.000  O
  O113     1.0000 0.60300  0.52530  0.76813  Biso   1.000  O
  O114     1.0000 0.10300  0.02530  0.76813  Biso   1.000  O
  O115     1.0000 0.39700  0.52530  0.73187  Biso   1.000  O
  O116     1.0000 0.89700  0.02530  0.73187  Biso   1.000  O
  O117     1.0000 0.39700  0.47470  0.23187  Biso   1.000  O
  O118     1.0000 0.89700  0.97470  0.23187  Biso   1.000  O
  O119     1.0000 0.60300  0.47470  0.26813  Biso   1.000  O
  O120     1.0000 0.10300  0.97470  0.26813  Biso   1.000  O
  O121     1.0000 0.46540  0.47990  0.80375  Biso   1.000  O
  O122     1.0000 0.96540  0.97990  0.80375  Biso   1.000  O
  O123     1.0000 0.53460  0.47990  0.69625  Biso   1.000  O
  O124     1.0000 0.03460  0.97990  0.69625  Biso   1.000  O
  O125     1.0000 0.53460  0.52010  0.19625  Biso   1.000  O
  O126     1.0000 0.03460  0.02010  0.19625  Biso   1.000  O
  O127     1.0000 0.46540  0.52010  0.30375  Biso   1.000  O
  O128     1.0000 0.96540  0.02010  0.30375  Biso   1.000  O
  O129     1.0000 0.36380  0.57950  0.82540  Biso   1.000  O
  O130     1.0000 0.86380  0.07950  0.82540  Biso   1.000  O
  O131     1.0000 0.63620  0.57950  0.67460  Biso   1.000  O
  O132     1.0000 0.13620  0.07950  0.67460  Biso   1.000  O
  O133     1.0000 0.63620  0.42050  0.17460  Biso   1.000  O
  O134     1.0000 0.13620  0.92050  0.17460  Biso   1.000  O
  O135     1.0000 0.36380  0.42050  0.32540  Biso   1.000  O
  O136     1.0000 0.86380  0.92050  0.32540  Biso   1.000  O
  O137     1.0000 0.50770  0.58980  0.88387  Biso   1.000  O
  O138     1.0000 0.00770  0.08980  0.88387  Biso   1.000  O
  O139     1.0000 0.49230  0.58980  0.61613  Biso   1.000  O
  O140     1.0000 0.99230  0.08980  0.61613  Biso   1.000  O
  O141     1.0000 0.49230  0.41020  0.11613  Biso   1.000  O
  O142     1.0000 0.99230  0.91020  0.11613  Biso   1.000  O
  O143     1.0000 0.50770  0.41020  0.38387  Biso   1.000  O
  O144     1.0000 0.00770  0.91020  0.38387  Biso   1.000  O
  O145     1.0000 0.59010  0.62360  0.95140  Biso   1.000  O
  O146     1.0000 0.09010  0.12360  0.95140  Biso   1.000  O
  O147     1.0000 0.40990  0.62360  0.54860  Biso   1.000  O
  O148     1.0000 0.90990  0.12360  0.54860  Biso   1.000  O
  O149     1.0000 0.40990  0.37640  0.04860  Biso   1.000  O
  O150     1.0000 0.90990  0.87640  0.04860  Biso   1.000  O
  O151     1.0000 0.59010  0.37640  0.45140  Biso   1.000  O
  O152     1.0000 0.09010  0.87640  0.45140  Biso   1.000  O
  O153     1.0000 0.68680  0.61970  0.89420  Biso   1.000  O
  O154     1.0000 0.18680  0.11970  0.89420  Biso   1.000  O
  O155     1.0000 0.31320  0.61970  0.60580  Biso   1.000  O
  O156     1.0000 0.81320  0.11970  0.60580  Biso   1.000  O
  O157     1.0000 0.31320  0.38030  0.10580  Biso   1.000  O
  O158     1.0000 0.81320  0.88030  0.10580  Biso   1.000  O
  O159     1.0000 0.68680  0.38030  0.39420  Biso   1.000  O
  O160     1.0000 0.18680  0.88030  0.39420  Biso   1.000  O
  O161     1.0000 0.71210  0.65470  0.82970  Biso   1.000  O
  O162     1.0000 0.21210  0.15470  0.82970  Biso   1.000  O
  O163     1.0000 0.28790  0.65470  0.67030  Biso   1.000  O
  O164     1.0000 0.78790  0.15470  0.67030  Biso   1.000  O
  O165     1.0000 0.28790  0.34530  0.17030  Biso   1.000  O
  O166     1.0000 0.78790  0.84530  0.17030  Biso   1.000  O
  O167     1.0000 0.71210  0.34530  0.32970  Biso   1.000  O
  O168     1.0000 0.21210  0.84530  0.32970  Biso   1.000  O
  O169     1.0000 0.54220  0.49580  0.93009  Biso   1.000  O
  O170     1.0000 0.04220  0.99580  0.93009  Biso   1.000  O
  O171     1.0000 0.45780  0.49580  0.56991  Biso   1.000  O
  O172     1.0000 0.95780  0.99580  0.56991  Biso   1.000  O
  O173     1.0000 0.45780  0.50420  0.06991  Biso   1.000  O
  O174     1.0000 0.95780  0.00420  0.06991  Biso   1.000  O
  O175     1.0000 0.54220  0.50420  0.43009  Biso   1.000  O
  O176     1.0000 0.04220  0.00420  0.43009  Biso   1.000  O
  O177     1.0000 0.60930  0.65930  0.76070  Biso   1.000  O
  O178     1.0000 0.10930  0.15930  0.76070  Biso   1.000  O
  O179     1.0000 0.39070  0.65930  0.73930  Biso   1.000  O
  O180     1.0000 0.89070  0.15930  0.73930  Biso   1.000  O
  O181     1.0000 0.39070  0.34070  0.23930  Biso   1.000  O
  O182     1.0000 0.89070  0.84070  0.23930  Biso   1.000  O
  O183     1.0000 0.60930  0.34070  0.26070  Biso   1.000  O
  O184     1.0000 0.10930  0.84070  0.26070  Biso   1.000  O
  O185     1.0000 0.68340  0.29840  0.80493  Biso   1.000  O
  O186     1.0000 0.18340  0.79840  0.80493  Biso   1.000  O
  O187     1.0000 0.31660  0.29840  0.69507  Biso   1.000  O
  O188     1.0000 0.81660  0.79840  0.69507  Biso   1.000  O
  O189     1.0000 0.31660  0.70160  0.19507  Biso   1.000  O
  O190     1.0000 0.81660  0.20160  0.19507  Biso   1.000  O
  O191     1.0000 0.68340  0.70160  0.30493  Biso   1.000  O
  O192     1.0000 0.18340  0.20160  0.30493  Biso   1.000  O
  O193     1.0000 0.68070  0.31100  0.87493  Biso   1.000  O
  O194     1.0000 0.18070  0.81100  0.87493  Biso   1.000  O
  O195     1.0000 0.31930  0.31100  0.62507  Biso   1.000  O
  O196     1.0000 0.81930  0.81100  0.62507  Biso   1.000  O
  O197     1.0000 0.31930  0.68900  0.12507  Biso   1.000  O
  O198     1.0000 0.81930  0.18900  0.12507  Biso   1.000  O
  O199     1.0000 0.68070  0.68900  0.37493  Biso   1.000  O
  O200     1.0000 0.18070  0.18900  0.37493  Biso   1.000  O
  O201     1.0000 0.74110  0.27550  0.94450  Biso   1.000  O
  O202     1.0000 0.24110  0.77550  0.94450  Biso   1.000  O
  O203     1.0000 0.25890  0.27550  0.55550  Biso   1.000  O
  O204     1.0000 0.75890  0.77550  0.55550  Biso   1.000  O
  O205     1.0000 0.25890  0.72450  0.05550  Biso   1.000  O
  O206     1.0000 0.75890  0.22450  0.05550  Biso   1.000  O
  O207     1.0000 0.74110  0.72450  0.44450  Biso   1.000  O
  O208     1.0000 0.24110  0.22450  0.44450  Biso   1.000  O
  O209     1.0000 0.85660  0.33340  0.90260  Biso   1.000  O
  O210     1.0000 0.35660  0.83340  0.90260  Biso   1.000  O
  O211     1.0000 0.14340  0.33340  0.59740  Biso   1.000  O
  O212     1.0000 0.64340  0.83340  0.59740  Biso   1.000  O
  O213     1.0000 0.14340  0.66660  0.09740  Biso   1.000  O
  O214     1.0000 0.64340  0.16660  0.09740  Biso   1.000  O
  O215     1.0000 0.85660  0.66660  0.40260  Biso   1.000  O
  O216     1.0000 0.35660  0.16660  0.40260  Biso   1.000  O
  O217     1.0000 0.54320  0.23940  0.83330  Biso   1.000  O
  O218     1.0000 0.04320  0.73940  0.83330  Biso   1.000  O
  O219     1.0000 0.45680  0.23940  0.66670  Biso   1.000  O
  O220     1.0000 0.95680  0.73940  0.66670  Biso   1.000  O
  O221     1.0000 0.45680  0.76060  0.16670  Biso   1.000  O
  O222     1.0000 0.95680  0.26060  0.16670  Biso   1.000  O
  O223     1.0000 0.54320  0.76060  0.33330  Biso   1.000  O
  O224     1.0000 0.04320  0.26060  0.33330  Biso   1.000  O
  O225     1.0000 0.51110  0.34550  0.79105  Biso   1.000  O
  O226     1.0000 0.01110  0.84550  0.79105  Biso   1.000  O
  O227     1.0000 0.48890  0.34550  0.70895  Biso   1.000  O
  O228     1.0000 0.98890  0.84550  0.70895  Biso   1.000  O
  O229     1.0000 0.48890  0.65450  0.20895  Biso   1.000  O
  O230     1.0000 0.98890  0.15450  0.20895  Biso   1.000  O
  O231     1.0000 0.51110  0.65450  0.29105  Biso   1.000  O
  O232     1.0000 0.01110  0.15450  0.29105  Biso   1.000  O
  O233     1.0000 0.43050  0.47520  0.86940  Biso   1.000  O
  O234     1.0000 0.93050  0.97520  0.86940  Biso   1.000  O
  O235     1.0000 0.56950  0.47520  0.63060  Biso   1.000  O
  O236     1.0000 0.06950  0.97520  0.63060  Biso   1.000  O
  O237     1.0000 0.56950  0.52480  0.13060  Biso   1.000  O
  O238     1.0000 0.06950  0.02480  0.13060  Biso   1.000  O
  O239     1.0000 0.43050  0.52480  0.36940  Biso   1.000  O
  O240     1.0000 0.93050  0.02480  0.36940  Biso   1.000  O
  O241     1.0000 0.62320  0.38340  0.92113  Biso   1.000  O
  O242     1.0000 0.12320  0.88340  0.92113  Biso   1.000  O
  O243     1.0000 0.37680  0.38340  0.57887  Biso   1.000  O
  O244     1.0000 0.87680  0.88340  0.57887  Biso   1.000  O
  O245     1.0000 0.37680  0.61660  0.07887  Biso   1.000  O
  O246     1.0000 0.87680  0.11660  0.07887  Biso   1.000  O
  O247     1.0000 0.62320  0.61660  0.42113  Biso   1.000  O
  O248     1.0000 0.12320  0.11660  0.42113  Biso   1.000  O
  O249     1.0000 0.76010  0.43940  0.88294  Biso   1.000  O
  O250     1.0000 0.26010  0.93940  0.88294  Biso   1.000  O
  O251     1.0000 0.23990  0.43940  0.61706  Biso   1.000  O
  O252     1.0000 0.73990  0.93940  0.61706  Biso   1.000  O
  O253     1.0000 0.23990  0.56060  0.11706  Biso   1.000  O
  O254     1.0000 0.73990  0.06060  0.11706  Biso   1.000  O
  O255     1.0000 0.76010  0.56060  0.38294  Biso   1.000  O
  O256     1.0000 0.26010  0.06060  0.38294  Biso   1.000  O
  O257     1.0000 0.51680  0.36270  0.86167  Biso   1.000  O
  O258     1.0000 0.01680  0.86270  0.86167  Biso   1.000  O
  O259     1.0000 0.48320  0.36270  0.63833  Biso   1.000  O
  O260     1.0000 0.98320  0.86270  0.63833  Biso   1.000  O
  O261     1.0000 0.48320  0.63730  0.13833  Biso   1.000  O
  O262     1.0000 0.98320  0.13730  0.13833  Biso   1.000  O
  O263     1.0000 0.51680  0.63730  0.36167  Biso   1.000  O
  O264     1.0000 0.01680  0.13730  0.36167  Biso   1.000  O
  O265     1.0000 0.43850  0.38190  0.92280  Biso   1.000  O
  O266     1.0000 0.93850  0.88190  0.92280  Biso   1.000  O
  O267     1.0000 0.56150  0.38190  0.57720  Biso   1.000  O
  O268     1.0000 0.06150  0.88190  0.57720  Biso   1.000  O
  O269     1.0000 0.56150  0.61810  0.07720  Biso   1.000  O
  O270     1.0000 0.06150  0.11810  0.07720  Biso   1.000  O
  O271     1.0000 0.43850  0.61810  0.42280  Biso   1.000  O
  O272     1.0000 0.93850  0.11810  0.42280  Biso   1.000  O
  O273     1.0000 0.76710  0.58310  0.78070  Biso   1.000  O
  O274     1.0000 0.26710  0.08310  0.78070  Biso   1.000  O
  O275     1.0000 0.23290  0.58310  0.71930  Biso   1.000  O
  O276     1.0000 0.73290  0.08310  0.71930  Biso   1.000  O
  O277     1.0000 0.23290  0.41690  0.21930  Biso   1.000  O
  O278     1.0000 0.73290  0.91690  0.21930  Biso   1.000  O
  O279     1.0000 0.76710  0.41690  0.28070  Biso   1.000  O
  O280     1.0000 0.26710  0.91690  0.28070  Biso   1.000  O
  O281     1.0000 0.72880  0.52830  0.83777  Biso   1.000  O
  O282     1.0000 0.22880  0.02830  0.83777  Biso   1.000  O
  O283     1.0000 0.27120  0.52830  0.66223  Biso   1.000  O
  O284     1.0000 0.77120  0.02830  0.66223  Biso   1.000  O
  O285     1.0000 0.27120  0.47170  0.16223  Biso   1.000  O
  O286     1.0000 0.77120  0.97170  0.16223  Biso   1.000  O
  O287     1.0000 0.72880  0.47170  0.33777  Biso   1.000  O
  O288     1.0000 0.22880  0.97170  0.33777  Biso   1.000  O
  O289     1.0000 0.91390  0.47490  0.84690  Biso   1.000  O
  O290     1.0000 0.41390  0.97490  0.84690  Biso   1.000  O
  O291     1.0000 0.08610  0.47490  0.65310  Biso   1.000  O
  O292     1.0000 0.58610  0.97490  0.65310  Biso   1.000  O
  O293     1.0000 0.08610  0.52510  0.15310  Biso   1.000  O
  O294     1.0000 0.58610  0.02510  0.15310  Biso   1.000  O
  O295     1.0000 0.91390  0.52510  0.34690  Biso   1.000  O
  O296     1.0000 0.41390  0.02510  0.34690  Biso   1.000  O
  O297     1.0000 0.60600  0.48940  0.86962  Biso   1.000  O
  O298     1.0000 0.10600  0.98940  0.86962  Biso   1.000  O
  O299     1.0000 0.39400  0.48940  0.63038  Biso   1.000  O
  O300     1.0000 0.89400  0.98940  0.63038  Biso   1.000  O
  O301     1.0000 0.39400  0.51060  0.13038  Biso   1.000  O
  O302     1.0000 0.89400  0.01060  0.13038  Biso   1.000  O
  O303     1.0000 0.60600  0.51060  0.36962  Biso   1.000  O
  O304     1.0000 0.10600  0.01060  0.36962  Biso   1.000  O
  O305     1.0000 0.55020  0.59520  0.81945  Biso   1.000  O
  O306     1.0000 0.05020  0.09520  0.81945  Biso   1.000  O
  O307     1.0000 0.44980  0.59520  0.68055  Biso   1.000  O
  O308     1.0000 0.94980  0.09520  0.68055  Biso   1.000  O
  O309     1.0000 0.44980  0.40480  0.18055  Biso   1.000  O
  O310     1.0000 0.94980  0.90480  0.18055  Biso   1.000  O
  O311     1.0000 0.55020  0.40480  0.31945  Biso   1.000  O
  O312     1.0000 0.05020  0.90480  0.31945  Biso   1.000  O
  O313     1.0000 0.44920  0.57810  0.99460  Biso   1.000  O
  O314     1.0000 0.94920  0.07810  0.99460  Biso   1.000  O
  O315     1.0000 0.55080  0.57810  0.50540  Biso   1.000  O
  O316     1.0000 0.05080  0.07810  0.50540  Biso   1.000  O
  O317     1.0000 0.55080  0.42190  0.00540  Biso   1.000  O
  O318     1.0000 0.05080  0.92190  0.00540  Biso   1.000  O
  O319     1.0000 0.44920  0.42190  0.49460  Biso   1.000  O
  O320     1.0000 0.94920  0.92190  0.49460  Biso   1.000  O
  O321     1.0000 0.38580  0.47910  0.98340  Biso   1.000  O
  O322     1.0000 0.88580  0.97910  0.98340  Biso   1.000  O
  O323     1.0000 0.61420  0.47910  0.51660  Biso   1.000  O
  O324     1.0000 0.11420  0.97910  0.51660  Biso   1.000  O
  O325     1.0000 0.61420  0.52090  0.01660  Biso   1.000  O
  O326     1.0000 0.11420  0.02090  0.01660  Biso   1.000  O
  O327     1.0000 0.38580  0.52090  0.48340  Biso   1.000  O
  O328     1.0000 0.88580  0.02090  0.48340  Biso   1.000  O
  C57      1.0000 0.85960  0.64620  0.04980  Biso   1.000  C
  C58      1.0000 0.35960  0.14620  0.04980  Biso   1.000  C
  C59      1.0000 0.14040  0.64620  0.45020  Biso   1.000  C
  C60      1.0000 0.64040  0.14620  0.45020  Biso   1.000  C
  C61      1.0000 0.14040  0.35380  0.95020  Biso   1.000  C
  C62      1.0000 0.64040  0.85380  0.95020  Biso   1.000  C
  C63      1.0000 0.85960  0.35380  0.54980  Biso   1.000  C
  C64      1.0000 0.35960  0.85380  0.54980  Biso   1.000  C
  H33      1.0000 0.91400  0.62230  0.05430  Biso   1.000  H
  H34      1.0000 0.41400  0.12230  0.05430  Biso   1.000  H
  H35      1.0000 0.08600  0.62230  0.44570  Biso   1.000  H
  H36      1.0000 0.58600  0.12230  0.44570  Biso   1.000  H
  H37      1.0000 0.08600  0.37770  0.94570  Biso   1.000  H
  H38      1.0000 0.58600  0.87770  0.94570  Biso   1.000  H
  H39      1.0000 0.91400  0.37770  0.55430  Biso   1.000  H
  H40      1.0000 0.41400  0.87770  0.55430  Biso   1.000  H
  C65      1.0000 0.77720  0.74530  0.04990  Biso   1.000  C
  C66      1.0000 0.27720  0.24530  0.04990  Biso   1.000  C
  C67      1.0000 0.22280  0.74530  0.45010  Biso   1.000  C
  C68      1.0000 0.72280  0.24530  0.45010  Biso   1.000  C
  C69      1.0000 0.22280  0.25470  0.95010  Biso   1.000  C
  C70      1.0000 0.72280  0.75470  0.95010  Biso   1.000  C
  C71      1.0000 0.77720  0.25470  0.54990  Biso   1.000  C
  C72      1.0000 0.27720  0.75470  0.54990  Biso   1.000  C
  H41      1.0000 0.77800  0.78980  0.05490  Biso   1.000  H
  H42      1.0000 0.27800  0.28980  0.05490  Biso   1.000  H
  H43      1.0000 0.22200  0.78980  0.44510  Biso   1.000  H
  H44      1.0000 0.72200  0.28980  0.44510  Biso   1.000  H
  H45      1.0000 0.22200  0.21020  0.94510  Biso   1.000  H
  H46      1.0000 0.72200  0.71020  0.94510  Biso   1.000  H
  H47      1.0000 0.77800  0.21020  0.55490  Biso   1.000  H
  H48      1.0000 0.27800  0.71020  0.55490  Biso   1.000  H
  C73      1.0000 0.77680  0.61830  0.03560  Biso   1.000  C
  C74      1.0000 0.27680  0.11830  0.03560  Biso   1.000  C
  C75      1.0000 0.22320  0.61830  0.46440  Biso   1.000  C
  C76      1.0000 0.72320  0.11830  0.46440  Biso   1.000  C
  C77      1.0000 0.22320  0.38170  0.96440  Biso   1.000  C
  C78      1.0000 0.72320  0.88170  0.96440  Biso   1.000  C
  C79      1.0000 0.77680  0.38170  0.53560  Biso   1.000  C
  C80      1.0000 0.27680  0.88170  0.53560  Biso   1.000  C
  H49      1.0000 0.77660  0.57410  0.02990  Biso   1.000  H
  H50      1.0000 0.27660  0.07410  0.02990  Biso   1.000  H
  H51      1.0000 0.22340  0.57410  0.47010  Biso   1.000  H
  H52      1.0000 0.72340  0.07410  0.47010  Biso   1.000  H
  H53      1.0000 0.22340  0.42590  0.97010  Biso   1.000  H
  H54      1.0000 0.72340  0.92590  0.97010  Biso   1.000  H
  H55      1.0000 0.77660  0.42590  0.52990  Biso   1.000  H
  H56      1.0000 0.27660  0.92590  0.52990  Biso   1.000  H
  C81      1.0000 0.85640  0.71090  0.05680  Biso   1.000  C
  C82      1.0000 0.35640  0.21090  0.05680  Biso   1.000  C
  C83      1.0000 0.14360  0.71090  0.44320  Biso   1.000  C
  C84      1.0000 0.64360  0.21090  0.44320  Biso   1.000  C
  C85      1.0000 0.14360  0.28910  0.94320  Biso   1.000  C
  C86      1.0000 0.64360  0.78910  0.94320  Biso   1.000  C
  C87      1.0000 0.85640  0.28910  0.55680  Biso   1.000  C
  C88      1.0000 0.35640  0.78910  0.55680  Biso   1.000  C
  H57      1.0000 0.91040  0.73230  0.06650  Biso   1.000  H
  H58      1.0000 0.41040  0.23230  0.06650  Biso   1.000  H
  H59      1.0000 0.08960  0.73230  0.43350  Biso   1.000  H
  H60      1.0000 0.58960  0.23230  0.43350  Biso   1.000  H
  H61      1.0000 0.08960  0.26770  0.93350  Biso   1.000  H
  H62      1.0000 0.58960  0.76770  0.93350  Biso   1.000  H
  H63      1.0000 0.91040  0.26770  0.56650  Biso   1.000  H
  H64      1.0000 0.41040  0.76770  0.56650  Biso   1.000  H
  Cu1      1.0000 0.57442  0.61401  0.01172  Biso   1.000  Cu
  Cu2      1.0000 0.07442  0.11401  0.01172  Biso   1.000  Cu
  Cu3      1.0000 0.42558  0.61401  0.48828  Biso   1.000  Cu
  Cu4      1.0000 0.92558  0.11401  0.48828  Biso   1.000  Cu
  Cu5      1.0000 0.42558  0.38599  0.98828  Biso   1.000  Cu
  Cu6      1.0000 0.92558  0.88599  0.98828  Biso   1.000  Cu
  Cu7      1.0000 0.57442  0.38599  0.51172  Biso   1.000  Cu
  Cu8      1.0000 0.07442  0.88599  0.51172  Biso   1.000  Cu
  Eu1      1.0000 0.50000  0.43596  0.75000  Biso   1.000  Eu
  Eu2      1.0000 0.00000  0.93596  0.75000  Biso   1.000  Eu
  Eu3      1.0000 0.50000  0.56404  0.25000  Biso   1.000  Eu
  Eu4      1.0000 0.00000  0.06404  0.25000  Biso   1.000  Eu
  P1       1.0000 0.68750  0.46779  0.85329  Biso   1.000  P
  P2       1.0000 0.18750  0.96779  0.85329  Biso   1.000  P
  P3       1.0000 0.31250  0.46779  0.64671  Biso   1.000  P
  P4       1.0000 0.81250  0.96779  0.64671  Biso   1.000  P
  P5       1.0000 0.31250  0.53221  0.14671  Biso   1.000  P
  P6       1.0000 0.81250  0.03221  0.14671  Biso   1.000  P
  P7       1.0000 0.68750  0.53221  0.35329  Biso   1.000  P
  P8       1.0000 0.18750  0.03221  0.35329  Biso   1.000  P
  W1       1.0000 0.58314  0.31630  0.82965  Biso   1.000  W
  W2       1.0000 0.08314  0.81630  0.82965  Biso   1.000  W
  W3       1.0000 0.41686  0.31630  0.67035  Biso   1.000  W
  W4       1.0000 0.91686  0.81630  0.67035  Biso   1.000  W
  W5       1.0000 0.41686  0.68370  0.17035  Biso   1.000  W
  W6       1.0000 0.91686  0.18370  0.17035  Biso   1.000  W
  W7       1.0000 0.58314  0.68370  0.32965  Biso   1.000  W
  W8       1.0000 0.08314  0.18370  0.32965  Biso   1.000  W
  W9       1.0000 0.83736  0.49277  0.93569  Biso   1.000  W
  W10      1.0000 0.33736  0.99277  0.93569  Biso   1.000  W
  W11      1.0000 0.16264  0.49277  0.56431  Biso   1.000  W
  W12      1.0000 0.66264  0.99277  0.56431  Biso   1.000  W
  W13      1.0000 0.16264  0.50723  0.06431  Biso   1.000  W
  W14      1.0000 0.66264  0.00723  0.06431  Biso   1.000  W
  W15      1.0000 0.83736  0.50723  0.43569  Biso   1.000  W
  W16      1.0000 0.33736  0.00723  0.43569  Biso   1.000  W
  W17      1.0000 0.90772  0.39544  0.87293  Biso   1.000  W
  W18      1.0000 0.40772  0.89544  0.87293  Biso   1.000  W
  W19      1.0000 0.09228  0.39544  0.62707  Biso   1.000  W
  W20      1.0000 0.59228  0.89544  0.62707  Biso   1.000  W
  W21      1.0000 0.09228  0.60456  0.12707  Biso   1.000  W
  W22      1.0000 0.59228  0.10456  0.12707  Biso   1.000  W
  W23      1.0000 0.90772  0.60456  0.37293  Biso   1.000  W
  W24      1.0000 0.40772  0.10456  0.37293  Biso   1.000  W
  W25      1.0000 0.51254  0.41963  0.90040  Biso   1.000  W
  W26      1.0000 0.01254  0.91963  0.90040  Biso   1.000  W
  W27      1.0000 0.48746  0.41963  0.59960  Biso   1.000  W
  W28      1.0000 0.98746  0.91963  0.59960  Biso   1.000  W
  W29      1.0000 0.48746  0.58037  0.09960  Biso   1.000  W
  W30      1.0000 0.98746  0.08037  0.09960  Biso   1.000  W
  W31      1.0000 0.51254  0.58037  0.40040  Biso   1.000  W
  W32      1.0000 0.01254  0.08037  0.40040  Biso   1.000  W
  W33      1.0000 0.46559  0.53977  0.83695  Biso   1.000  W
  W34      1.0000 0.96559  0.03977  0.83695  Biso   1.000  W
  W35      1.0000 0.53441  0.53977  0.66305  Biso   1.000  W
  W36      1.0000 0.03441  0.03977  0.66305  Biso   1.000  W
  W37      1.0000 0.53441  0.46023  0.16305  Biso   1.000  W
  W38      1.0000 0.03441  0.96023  0.16305  Biso   1.000  W
  W39      1.0000 0.46559  0.46023  0.33695  Biso   1.000  W
  W40      1.0000 0.96559  0.96023  0.33695  Biso   1.000  W
  W41      1.0000 0.64379  0.59655  0.79009  Biso   1.000  W
  W42      1.0000 0.14379  0.09655  0.79009  Biso   1.000  W
  W43      1.0000 0.35621  0.59655  0.70991  Biso   1.000  W
  W44      1.0000 0.85621  0.09655  0.70991  Biso   1.000  W
  W45      1.0000 0.35621  0.40345  0.20991  Biso   1.000  W
  W46      1.0000 0.85621  0.90345  0.20991  Biso   1.000  W
  W47      1.0000 0.64379  0.40345  0.29009  Biso   1.000  W
  W48      1.0000 0.14379  0.90345  0.29009  Biso   1.000  W
  W49      1.0000 0.78946  0.62817  0.87063  Biso   1.000  W
  W50      1.0000 0.28946  0.12817  0.87063  Biso   1.000  W
  W51      1.0000 0.21054  0.62817  0.62937  Biso   1.000  W
  W52      1.0000 0.71054  0.12817  0.62937  Biso   1.000  W
  W53      1.0000 0.21054  0.37183  0.12937  Biso   1.000  W
  W54      1.0000 0.71054  0.87183  0.12937  Biso   1.000  W
  W55      1.0000 0.78946  0.37183  0.37063  Biso   1.000  W
  W56      1.0000 0.28946  0.87183  0.37063  Biso   1.000  W
  W57      1.0000 0.60686  0.57022  0.91802  Biso   1.000  W
  W58      1.0000 0.10686  0.07022  0.91802  Biso   1.000  W
  W59      1.0000 0.39314  0.57022  0.58198  Biso   1.000  W
  W60      1.0000 0.89314  0.07022  0.58198  Biso   1.000  W
  W61      1.0000 0.39314  0.42978  0.08198  Biso   1.000  W
  W62      1.0000 0.89314  0.92978  0.08198  Biso   1.000  W
  W63      1.0000 0.60686  0.42978  0.41802  Biso   1.000  W
  W64      1.0000 0.10686  0.92978  0.41802  Biso   1.000  W
  W65      1.0000 0.86075  0.53019  0.80887  Biso   1.000  W
  W66      1.0000 0.36075  0.03019  0.80887  Biso   1.000  W
  W67      1.0000 0.13925  0.53019  0.69113  Biso   1.000  W
  W68      1.0000 0.63925  0.03019  0.69113  Biso   1.000  W
  W69      1.0000 0.13925  0.46981  0.19113  Biso   1.000  W
  W70      1.0000 0.63925  0.96981  0.19113  Biso   1.000  W
  W71      1.0000 0.86075  0.46981  0.30887  Biso   1.000  W
  W72      1.0000 0.36075  0.96981  0.30887  Biso   1.000  W
  W73      1.0000 0.73975  0.34181  0.91680  Biso   1.000  W
  W74      1.0000 0.23975  0.84181  0.91680  Biso   1.000  W
  W75      1.0000 0.26025  0.34181  0.58320  Biso   1.000  W
  W76      1.0000 0.76025  0.84181  0.58320  Biso   1.000  W
  W77      1.0000 0.26025  0.65819  0.08320  Biso   1.000  W
  W78      1.0000 0.76025  0.15819  0.08320  Biso   1.000  W
  W79      1.0000 0.73975  0.65819  0.41680  Biso   1.000  W
  W80      1.0000 0.23975  0.15819  0.41680  Biso   1.000  W
  W81      1.0000 0.74823  0.36876  0.78627  Biso   1.000  W
  W82      1.0000 0.24823  0.86876  0.78627  Biso   1.000  W
  W83      1.0000 0.25177  0.36876  0.71373  Biso   1.000  W
  W84      1.0000 0.75177  0.86876  0.71373  Biso   1.000  W
  W85      1.0000 0.25177  0.63124  0.21373  Biso   1.000  W
  W86      1.0000 0.75177  0.13124  0.21373  Biso   1.000  W
  W87      1.0000 0.74823  0.63124  0.28627  Biso   1.000  W
  W88      1.0000 0.24823  0.13124  0.28627  Biso   1.000  W
