data_image0
_cell_length_a       14.6697
_cell_length_b       20.4327
_cell_length_c       38.3365
_cell_angle_alpha    90
_cell_angle_beta     100.197
_cell_angle_gamma    90

_symmetry_space_group_name_H-M    "P 1"
_symmetry_int_tables_number       1

loop_
  _symmetry_equiv_pos_as_xyz
  'x, y, z'

loop_
  _atom_site_label
  _atom_site_occupancy
  _atom_site_fract_x
  _atom_site_fract_y
  _atom_site_fract_z
  _atom_site_thermal_displace_type
  _atom_site_B_iso_or_equiv
  _atom_site_type_symbol
  K1       1.0000 0.33230  0.62782  0.31440  Biso   1.000  K
  K2       1.0000 0.83230  0.12782  0.31440  Biso   1.000  K
  K3       1.0000 0.66770  0.62782  0.18560  Biso   1.000  K
  K4       1.0000 0.16770  0.12782  0.18560  Biso   1.000  K
  K5       1.0000 0.66770  0.37218  0.68560  Biso   1.000  K
  K6       1.0000 0.16770  0.87218  0.68560  Biso   1.000  K
  K7       1.0000 0.33230  0.37218  0.81440  Biso   1.000  K
  K8       1.0000 0.83230  0.87218  0.81440  Biso   1.000  K
  P1       1.0000 0.31390  0.53206  0.14700  Biso   1.000  P
  P2       1.0000 0.81390  0.03206  0.14700  Biso   1.000  P
  P3       1.0000 0.68610  0.53206  0.35300  Biso   1.000  P
  P4       1.0000 0.18610  0.03206  0.35300  Biso   1.000  P
  P5       1.0000 0.68610  0.46794  0.85300  Biso   1.000  P
  P6       1.0000 0.18610  0.96794  0.85300  Biso   1.000  P
  P7       1.0000 0.31390  0.46794  0.64700  Biso   1.000  P
  P8       1.0000 0.81390  0.96794  0.64700  Biso   1.000  P
  W1       1.0000 0.53761  0.46142  0.16476  Biso   1.000  W
  W2       1.0000 0.03761  0.96142  0.16476  Biso   1.000  W
  W3       1.0000 0.46239  0.46142  0.33524  Biso   1.000  W
  W4       1.0000 0.96239  0.96142  0.33524  Biso   1.000  W
  W5       1.0000 0.46239  0.53858  0.83524  Biso   1.000  W
  W6       1.0000 0.96239  0.03858  0.83524  Biso   1.000  W
  W7       1.0000 0.53761  0.53858  0.66476  Biso   1.000  W
  W8       1.0000 0.03761  0.03858  0.66476  Biso   1.000  W
  W9       1.0000 0.41825  0.68322  0.17131  Biso   1.000  W
  W10      1.0000 0.91825  0.18322  0.17131  Biso   1.000  W
  W11      1.0000 0.58175  0.68322  0.32869  Biso   1.000  W
  W12      1.0000 0.08175  0.18322  0.32869  Biso   1.000  W
  W13      1.0000 0.58175  0.31678  0.82869  Biso   1.000  W
  W14      1.0000 0.08175  0.81678  0.82869  Biso   1.000  W
  W15      1.0000 0.41825  0.31678  0.67131  Biso   1.000  W
  W16      1.0000 0.91825  0.81678  0.67131  Biso   1.000  W
  W17      1.0000 0.39692  0.42953  0.08291  Biso   1.000  W
  W18      1.0000 0.89692  0.92953  0.08291  Biso   1.000  W
  W19      1.0000 0.60308  0.42953  0.41709  Biso   1.000  W
  W20      1.0000 0.10308  0.92953  0.41709  Biso   1.000  W
  W21      1.0000 0.60308  0.57047  0.91709  Biso   1.000  W
  W22      1.0000 0.10308  0.07047  0.91709  Biso   1.000  W
  W23      1.0000 0.39692  0.57047  0.58291  Biso   1.000  W
  W24      1.0000 0.89692  0.07047  0.58291  Biso   1.000  W
  W25      1.0000 0.35811  0.40483  0.21107  Biso   1.000  W
  W26      1.0000 0.85811  0.90483  0.21107  Biso   1.000  W
  W27      1.0000 0.64189  0.40483  0.28893  Biso   1.000  W
  W28      1.0000 0.14189  0.90483  0.28893  Biso   1.000  W
  W29      1.0000 0.64189  0.59517  0.78893  Biso   1.000  W
  W30      1.0000 0.14189  0.09517  0.78893  Biso   1.000  W
  W31      1.0000 0.35811  0.59517  0.71107  Biso   1.000  W
  W32      1.0000 0.85811  0.09517  0.71107  Biso   1.000  W
  W33      1.0000 0.25291  0.63054  0.21415  Biso   1.000  W
  W34      1.0000 0.75291  0.13054  0.21415  Biso   1.000  W
  W35      1.0000 0.74709  0.63054  0.28585  Biso   1.000  W
  W36      1.0000 0.24709  0.13054  0.28585  Biso   1.000  W
  W37      1.0000 0.74709  0.36946  0.78585  Biso   1.000  W
  W38      1.0000 0.24709  0.86946  0.78585  Biso   1.000  W
  W39      1.0000 0.25291  0.36946  0.71415  Biso   1.000  W
  W40      1.0000 0.75291  0.86946  0.71415  Biso   1.000  W
  W41      1.0000 0.26138  0.65792  0.08324  Biso   1.000  W
  W42      1.0000 0.76138  0.15792  0.08324  Biso   1.000  W
  W43      1.0000 0.73862  0.65792  0.41676  Biso   1.000  W
  W44      1.0000 0.23862  0.15792  0.41676  Biso   1.000  W
  W45      1.0000 0.73862  0.34208  0.91676  Biso   1.000  W
  W46      1.0000 0.23862  0.84208  0.91676  Biso   1.000  W
  W47      1.0000 0.26138  0.34208  0.58324  Biso   1.000  W
  W48      1.0000 0.76138  0.84208  0.58324  Biso   1.000  W
  W49      1.0000 0.21267  0.37126  0.12999  Biso   1.000  W
  W50      1.0000 0.71267  0.87126  0.12999  Biso   1.000  W
  W51      1.0000 0.78733  0.37126  0.37001  Biso   1.000  W
  W52      1.0000 0.28733  0.87126  0.37001  Biso   1.000  W
  W53      1.0000 0.78733  0.62874  0.87001  Biso   1.000  W
  W54      1.0000 0.28733  0.12874  0.87001  Biso   1.000  W
  W55      1.0000 0.21267  0.62874  0.62999  Biso   1.000  W
  W56      1.0000 0.71267  0.12874  0.62999  Biso   1.000  W
  W57      1.0000 0.49072  0.58063  0.10041  Biso   1.000  W
  W58      1.0000 0.99072  0.08063  0.10041  Biso   1.000  W
  W59      1.0000 0.50928  0.58063  0.39959  Biso   1.000  W
  W60      1.0000 0.00928  0.08063  0.39959  Biso   1.000  W
  W61      1.0000 0.50928  0.41937  0.89959  Biso   1.000  W
  W62      1.0000 0.00928  0.91937  0.89959  Biso   1.000  W
  W63      1.0000 0.49072  0.41937  0.60041  Biso   1.000  W
  W64      1.0000 0.99072  0.91937  0.60041  Biso   1.000  W
  W65      1.0000 0.13879  0.46933  0.19128  Biso   1.000  W
  W66      1.0000 0.63879  0.96933  0.19128  Biso   1.000  W
  W67      1.0000 0.86121  0.46933  0.30872  Biso   1.000  W
  W68      1.0000 0.36121  0.96933  0.30872  Biso   1.000  W
  W69      1.0000 0.86121  0.53067  0.80872  Biso   1.000  W
  W70      1.0000 0.36121  0.03067  0.80872  Biso   1.000  W
  W71      1.0000 0.13879  0.53067  0.69128  Biso   1.000  W
  W72      1.0000 0.63879  0.03067  0.69128  Biso   1.000  W
  W73      1.0000 0.09207  0.60426  0.12687  Biso   1.000  W
  W74      1.0000 0.59207  0.10426  0.12687  Biso   1.000  W
  W75      1.0000 0.90793  0.60426  0.37313  Biso   1.000  W
  W76      1.0000 0.40793  0.10426  0.37313  Biso   1.000  W
  W77      1.0000 0.90793  0.39574  0.87313  Biso   1.000  W
  W78      1.0000 0.40793  0.89574  0.87313  Biso   1.000  W
  W79      1.0000 0.09207  0.39574  0.62687  Biso   1.000  W
  W80      1.0000 0.59207  0.89574  0.62687  Biso   1.000  W
  W81      1.0000 0.16416  0.50655  0.06423  Biso   1.000  W
  W82      1.0000 0.66416  0.00655  0.06423  Biso   1.000  W
  W83      1.0000 0.83584  0.50655  0.43577  Biso   1.000  W
  W84      1.0000 0.33584  0.00655  0.43577  Biso   1.000  W
  W85      1.0000 0.83584  0.49345  0.93577  Biso   1.000  W
  W86      1.0000 0.33584  0.99345  0.93577  Biso   1.000  W
  W87      1.0000 0.16416  0.49345  0.56423  Biso   1.000  W
  W88      1.0000 0.66416  0.99345  0.56423  Biso   1.000  W
  Yb1      1.0000 0.50000  0.56420  0.25000  Biso   1.000  Yb
  Yb2      1.0000 0.00000  0.06420  0.25000  Biso   1.000  Yb
  Yb3      1.0000 0.50000  0.43580  0.75000  Biso   1.000  Yb
  Yb4      1.0000 0.00000  0.93580  0.75000  Biso   1.000  Yb
  Cu1      1.0000 0.42518  0.38576  0.98854  Biso   1.000  Cu
  Cu2      1.0000 0.92518  0.88576  0.98854  Biso   1.000  Cu
  Cu3      1.0000 0.57482  0.38576  0.51146  Biso   1.000  Cu
  Cu4      1.0000 0.07482  0.88576  0.51146  Biso   1.000  Cu
  Cu5      1.0000 0.57482  0.61424  0.01146  Biso   1.000  Cu
  Cu6      1.0000 0.07482  0.11424  0.01146  Biso   1.000  Cu
  Cu7      1.0000 0.42518  0.61424  0.48854  Biso   1.000  Cu
  Cu8      1.0000 0.92518  0.11424  0.48854  Biso   1.000  Cu
  C1       1.0000 0.22430  0.38060  0.96590  Biso   1.000  C
  C2       1.0000 0.72430  0.88060  0.96590  Biso   1.000  C
  C3       1.0000 0.77570  0.38060  0.53410  Biso   1.000  C
  C4       1.0000 0.27570  0.88060  0.53410  Biso   1.000  C
  C5       1.0000 0.77570  0.61940  0.03410  Biso   1.000  C
  C6       1.0000 0.27570  0.11940  0.03410  Biso   1.000  C
  C7       1.0000 0.22430  0.61940  0.46590  Biso   1.000  C
  C8       1.0000 0.72430  0.11940  0.46590  Biso   1.000  C
  H1       1.0000 0.22380  0.42490  0.97150  Biso   1.000  H
  H2       1.0000 0.72380  0.92490  0.97150  Biso   1.000  H
  H3       1.0000 0.77620  0.42490  0.52850  Biso   1.000  H
  H4       1.0000 0.27620  0.92490  0.52850  Biso   1.000  H
  H5       1.0000 0.77620  0.57510  0.02850  Biso   1.000  H
  H6       1.0000 0.27620  0.07510  0.02850  Biso   1.000  H
  H7       1.0000 0.22380  0.57510  0.47150  Biso   1.000  H
  H8       1.0000 0.72380  0.07510  0.47150  Biso   1.000  H
  C9       1.0000 0.30050  0.28470  0.96390  Biso   1.000  C
  C10      1.0000 0.80050  0.78470  0.96390  Biso   1.000  C
  C11      1.0000 0.69950  0.28470  0.53610  Biso   1.000  C
  C12      1.0000 0.19950  0.78470  0.53610  Biso   1.000  C
  C13      1.0000 0.69950  0.71530  0.03610  Biso   1.000  C
  C14      1.0000 0.19950  0.21530  0.03610  Biso   1.000  C
  C15      1.0000 0.30050  0.71530  0.46390  Biso   1.000  C
  C16      1.0000 0.80050  0.21530  0.46390  Biso   1.000  C
  C17      1.0000 0.39260  0.25250  0.97350  Biso   1.000  C
  C18      1.0000 0.89260  0.75250  0.97350  Biso   1.000  C
  C19      1.0000 0.60740  0.25250  0.52650  Biso   1.000  C
  C20      1.0000 0.10740  0.75250  0.52650  Biso   1.000  C
  C21      1.0000 0.60740  0.74750  0.02650  Biso   1.000  C
  C22      1.0000 0.10740  0.24750  0.02650  Biso   1.000  C
  C23      1.0000 0.39260  0.74750  0.47350  Biso   1.000  C
  C24      1.0000 0.89260  0.24750  0.47350  Biso   1.000  C
  C25      1.0000 0.41250  0.18700  0.97070  Biso   1.000  C
  C26      1.0000 0.91250  0.68700  0.97070  Biso   1.000  C
  C27      1.0000 0.58750  0.18700  0.52930  Biso   1.000  C
  C28      1.0000 0.08750  0.68700  0.52930  Biso   1.000  C
  C29      1.0000 0.58750  0.81300  0.02930  Biso   1.000  C
  C30      1.0000 0.08750  0.31300  0.02930  Biso   1.000  C
  C31      1.0000 0.41250  0.81300  0.47070  Biso   1.000  C
  C32      1.0000 0.91250  0.31300  0.47070  Biso   1.000  C
  H9       1.0000 0.36540  0.15780  0.96190  Biso   1.000  H
  H10      1.0000 0.86540  0.65780  0.96190  Biso   1.000  H
  H11      1.0000 0.63460  0.15780  0.53810  Biso   1.000  H
  H12      1.0000 0.13460  0.65780  0.53810  Biso   1.000  H
  H13      1.0000 0.63460  0.84220  0.03810  Biso   1.000  H
  H14      1.0000 0.13460  0.34220  0.03810  Biso   1.000  H
  H15      1.0000 0.36540  0.84220  0.46190  Biso   1.000  H
  H16      1.0000 0.86540  0.34220  0.46190  Biso   1.000  H
  C33      1.0000 0.55100  0.27120  0.99570  Biso   1.000  C
  C34      1.0000 0.05100  0.77120  0.99570  Biso   1.000  C
  C35      1.0000 0.44900  0.27120  0.50430  Biso   1.000  C
  C36      1.0000 0.94900  0.77120  0.50430  Biso   1.000  C
  C37      1.0000 0.44900  0.72880  0.00430  Biso   1.000  C
  C38      1.0000 0.94900  0.22880  0.00430  Biso   1.000  C
  C39      1.0000 0.55100  0.72880  0.49570  Biso   1.000  C
  C40      1.0000 0.05100  0.22880  0.49570  Biso   1.000  C
  H17      1.0000 0.59900  0.30000  0.00400  Biso   1.000  H
  H18      1.0000 0.09900  0.80000  0.00400  Biso   1.000  H
  H19      1.0000 0.40100  0.30000  0.49600  Biso   1.000  H
  H20      1.0000 0.90100  0.80000  0.49600  Biso   1.000  H
  H21      1.0000 0.40100  0.70000  0.99600  Biso   1.000  H
  H22      1.0000 0.90100  0.20000  0.99600  Biso   1.000  H
  H23      1.0000 0.59900  0.70000  0.50400  Biso   1.000  H
  H24      1.0000 0.09900  0.20000  0.50400  Biso   1.000  H
  C41      1.0000 0.45130  0.51560  0.99460  Biso   1.000  C
  C42      1.0000 0.95130  0.01560  0.99460  Biso   1.000  C
  C43      1.0000 0.54870  0.51560  0.50540  Biso   1.000  C
  C44      1.0000 0.04870  0.01560  0.50540  Biso   1.000  C
  C45      1.0000 0.54870  0.48440  0.00540  Biso   1.000  C
  C46      1.0000 0.04870  0.98440  0.00540  Biso   1.000  C
  C47      1.0000 0.45130  0.48440  0.49460  Biso   1.000  C
  C48      1.0000 0.95130  0.98440  0.49460  Biso   1.000  C
  C49      1.0000 0.22130  0.25230  0.94930  Biso   1.000  C
  C50      1.0000 0.72130  0.75230  0.94930  Biso   1.000  C
  C51      1.0000 0.77870  0.25230  0.55070  Biso   1.000  C
  C52      1.0000 0.27870  0.75230  0.55070  Biso   1.000  C
  C53      1.0000 0.77870  0.74770  0.05070  Biso   1.000  C
  C54      1.0000 0.27870  0.24770  0.05070  Biso   1.000  C
  C55      1.0000 0.22130  0.74770  0.44930  Biso   1.000  C
  C56      1.0000 0.72130  0.24770  0.44930  Biso   1.000  C
  H25      1.0000 0.22260  0.20820  0.94360  Biso   1.000  H
  H26      1.0000 0.72260  0.70820  0.94360  Biso   1.000  H
  H27      1.0000 0.77740  0.20820  0.55640  Biso   1.000  H
  H28      1.0000 0.27740  0.70820  0.55640  Biso   1.000  H
  H29      1.0000 0.77740  0.79180  0.05640  Biso   1.000  H
  H30      1.0000 0.27740  0.29180  0.05640  Biso   1.000  H
  H31      1.0000 0.22260  0.79180  0.44360  Biso   1.000  H
  H32      1.0000 0.72260  0.29180  0.44360  Biso   1.000  H
  C57      1.0000 0.14040  0.28670  0.94340  Biso   1.000  C
  C58      1.0000 0.64040  0.78670  0.94340  Biso   1.000  C
  C59      1.0000 0.85960  0.28670  0.55660  Biso   1.000  C
  C60      1.0000 0.35960  0.78670  0.55660  Biso   1.000  C
  C61      1.0000 0.85960  0.71330  0.05660  Biso   1.000  C
  C62      1.0000 0.35960  0.21330  0.05660  Biso   1.000  C
  C63      1.0000 0.14040  0.71330  0.44340  Biso   1.000  C
  C64      1.0000 0.64040  0.21330  0.44340  Biso   1.000  C
  H33      1.0000 0.08540  0.26590  0.93370  Biso   1.000  H
  H34      1.0000 0.58540  0.76590  0.93370  Biso   1.000  H
  H35      1.0000 0.91460  0.26590  0.56630  Biso   1.000  H
  H36      1.0000 0.41460  0.76590  0.56630  Biso   1.000  H
  H37      1.0000 0.91460  0.73410  0.06630  Biso   1.000  H
  H38      1.0000 0.41460  0.23410  0.06630  Biso   1.000  H
  H39      1.0000 0.08540  0.73410  0.43370  Biso   1.000  H
  H40      1.0000 0.58540  0.23410  0.43370  Biso   1.000  H
  C65      1.0000 0.13980  0.34940  0.95150  Biso   1.000  C
  C66      1.0000 0.63980  0.84940  0.95150  Biso   1.000  C
  C67      1.0000 0.86020  0.34940  0.54850  Biso   1.000  C
  C68      1.0000 0.36020  0.84940  0.54850  Biso   1.000  C
  C69      1.0000 0.86020  0.65060  0.04850  Biso   1.000  C
  C70      1.0000 0.36020  0.15060  0.04850  Biso   1.000  C
  C71      1.0000 0.13980  0.65060  0.45150  Biso   1.000  C
  C72      1.0000 0.63980  0.15060  0.45150  Biso   1.000  C
  H41      1.0000 0.08460  0.37290  0.94770  Biso   1.000  H
  H42      1.0000 0.58460  0.87290  0.94770  Biso   1.000  H
  H43      1.0000 0.91540  0.37290  0.55230  Biso   1.000  H
  H44      1.0000 0.41540  0.87290  0.55230  Biso   1.000  H
  H45      1.0000 0.91540  0.62710  0.05230  Biso   1.000  H
  H46      1.0000 0.41540  0.12710  0.05230  Biso   1.000  H
  H47      1.0000 0.08460  0.62710  0.44770  Biso   1.000  H
  H48      1.0000 0.58460  0.12710  0.44770  Biso   1.000  H
  C73      1.0000 0.49990  0.16520  0.98050  Biso   1.000  C
  C74      1.0000 0.99990  0.66520  0.98050  Biso   1.000  C
  C75      1.0000 0.50010  0.16520  0.51950  Biso   1.000  C
  C76      1.0000 0.00010  0.66520  0.51950  Biso   1.000  C
  C77      1.0000 0.50010  0.83480  0.01950  Biso   1.000  C
  C78      1.0000 0.00010  0.33480  0.01950  Biso   1.000  C
  C79      1.0000 0.49990  0.83480  0.48050  Biso   1.000  C
  C80      1.0000 0.99990  0.33480  0.48050  Biso   1.000  C
  H49      1.0000 0.51210  0.12080  0.97860  Biso   1.000  H
  H50      1.0000 0.01210  0.62080  0.97860  Biso   1.000  H
  H51      1.0000 0.48790  0.12080  0.52140  Biso   1.000  H
  H52      1.0000 0.98790  0.62080  0.52140  Biso   1.000  H
  H53      1.0000 0.48790  0.87920  0.02140  Biso   1.000  H
  H54      1.0000 0.98790  0.37920  0.02140  Biso   1.000  H
  H55      1.0000 0.51210  0.87920  0.47860  Biso   1.000  H
  H56      1.0000 0.01210  0.37920  0.47860  Biso   1.000  H
  C81      1.0000 0.56890  0.20540  0.99290  Biso   1.000  C
  C82      1.0000 0.06890  0.70540  0.99290  Biso   1.000  C
  C83      1.0000 0.43110  0.20540  0.50710  Biso   1.000  C
  C84      1.0000 0.93110  0.70540  0.50710  Biso   1.000  C
  C85      1.0000 0.43110  0.79460  0.00710  Biso   1.000  C
  C86      1.0000 0.93110  0.29460  0.00710  Biso   1.000  C
  C87      1.0000 0.56890  0.79460  0.49290  Biso   1.000  C
  C88      1.0000 0.06890  0.29460  0.49290  Biso   1.000  C
  H57      1.0000 0.62870  0.18930  0.99960  Biso   1.000  H
  H58      1.0000 0.12870  0.68930  0.99960  Biso   1.000  H
  H59      1.0000 0.37130  0.18930  0.50040  Biso   1.000  H
  H60      1.0000 0.87130  0.68930  0.50040  Biso   1.000  H
  H61      1.0000 0.37130  0.81070  0.00040  Biso   1.000  H
  H62      1.0000 0.87130  0.31070  0.00040  Biso   1.000  H
  H63      1.0000 0.62870  0.81070  0.49960  Biso   1.000  H
  H64      1.0000 0.12870  0.31070  0.49960  Biso   1.000  H
  N1       1.0000 0.30370  0.34840  0.97180  Biso   1.000  N
  N2       1.0000 0.80370  0.84840  0.97180  Biso   1.000  N
  N3       1.0000 0.69630  0.34840  0.52820  Biso   1.000  N
  N4       1.0000 0.19630  0.84840  0.52820  Biso   1.000  N
  N5       1.0000 0.69630  0.65160  0.02820  Biso   1.000  N
  N6       1.0000 0.19630  0.15160  0.02820  Biso   1.000  N
  N7       1.0000 0.30370  0.65160  0.47180  Biso   1.000  N
  N8       1.0000 0.80370  0.15160  0.47180  Biso   1.000  N
  N9       1.0000 0.46560  0.29320  0.98650  Biso   1.000  N
  N10      1.0000 0.96560  0.79320  0.98650  Biso   1.000  N
  N11      1.0000 0.53440  0.29320  0.51350  Biso   1.000  N
  N12      1.0000 0.03440  0.79320  0.51350  Biso   1.000  N
  N13      1.0000 0.53440  0.70680  0.01350  Biso   1.000  N
  N14      1.0000 0.03440  0.20680  0.01350  Biso   1.000  N
  N15      1.0000 0.46560  0.70680  0.48650  Biso   1.000  N
  N16      1.0000 0.96560  0.20680  0.48650  Biso   1.000  N
  O1       1.0000 0.48920  0.65140  0.21032  Biso   1.000  O
  O2       1.0000 0.98920  0.15140  0.21032  Biso   1.000  O
  O3       1.0000 0.51080  0.65140  0.28968  Biso   1.000  O
  O4       1.0000 0.01080  0.15140  0.28968  Biso   1.000  O
  O5       1.0000 0.51080  0.34860  0.78968  Biso   1.000  O
  O6       1.0000 0.01080  0.84860  0.78968  Biso   1.000  O
  O7       1.0000 0.48920  0.34860  0.71032  Biso   1.000  O
  O8       1.0000 0.98920  0.84860  0.71032  Biso   1.000  O
  O9       1.0000 0.34920  0.60620  0.24525  Biso   1.000  O
  O10      1.0000 0.84920  0.10620  0.24525  Biso   1.000  O
  O11      1.0000 0.65080  0.60620  0.25475  Biso   1.000  O
  O12      1.0000 0.15080  0.10620  0.25475  Biso   1.000  O
  O13      1.0000 0.65080  0.39380  0.75475  Biso   1.000  O
  O14      1.0000 0.15080  0.89380  0.75475  Biso   1.000  O
  O15      1.0000 0.34920  0.39380  0.74525  Biso   1.000  O
  O16      1.0000 0.84920  0.89380  0.74525  Biso   1.000  O
  O17      1.0000 0.18810  0.67570  0.23920  Biso   1.000  O
  O18      1.0000 0.68810  0.17570  0.23920  Biso   1.000  O
  O19      1.0000 0.81190  0.67570  0.26080  Biso   1.000  O
  O20      1.0000 0.31190  0.17570  0.26080  Biso   1.000  O
  O21      1.0000 0.81190  0.32430  0.76080  Biso   1.000  O
  O22      1.0000 0.31190  0.82430  0.76080  Biso   1.000  O
  O23      1.0000 0.18810  0.32430  0.73920  Biso   1.000  O
  O24      1.0000 0.68810  0.82430  0.73920  Biso   1.000  O
  O25      1.0000 0.04780  0.45800  0.21270  Biso   1.000  O
  O26      1.0000 0.54780  0.95800  0.21270  Biso   1.000  O
  O27      1.0000 0.95220  0.45800  0.28730  Biso   1.000  O
  O28      1.0000 0.45220  0.95800  0.28730  Biso   1.000  O
  O29      1.0000 0.95220  0.54200  0.78730  Biso   1.000  O
  O30      1.0000 0.45220  0.04200  0.78730  Biso   1.000  O
  O31      1.0000 0.04780  0.54200  0.71270  Biso   1.000  O
  O32      1.0000 0.54780  0.04200  0.71270  Biso   1.000  O
  O33      1.0000 0.98430  0.63650  0.12640  Biso   1.000  O
  O34      1.0000 0.48430  0.13650  0.12640  Biso   1.000  O
  O35      1.0000 0.01570  0.63650  0.37360  Biso   1.000  O
  O36      1.0000 0.51570  0.13650  0.37360  Biso   1.000  O
  O37      1.0000 0.01570  0.36350  0.87360  Biso   1.000  O
  O38      1.0000 0.51570  0.86350  0.87360  Biso   1.000  O
  O39      1.0000 0.98430  0.36350  0.62640  Biso   1.000  O
  O40      1.0000 0.48430  0.86350  0.62640  Biso   1.000  O
  O41      1.0000 0.06960  0.55000  0.08440  Biso   1.000  O
  O42      1.0000 0.56960  0.05000  0.08440  Biso   1.000  O
  O43      1.0000 0.93040  0.55000  0.41560  Biso   1.000  O
  O44      1.0000 0.43040  0.05000  0.41560  Biso   1.000  O
  O45      1.0000 0.93040  0.45000  0.91560  Biso   1.000  O
  O46      1.0000 0.43040  0.95000  0.91560  Biso   1.000  O
  O47      1.0000 0.06960  0.45000  0.58440  Biso   1.000  O
  O48      1.0000 0.56960  0.95000  0.58440  Biso   1.000  O
  O49      1.0000 0.10300  0.47990  0.02504  Biso   1.000  O
  O50      1.0000 0.60300  0.97990  0.02504  Biso   1.000  O
  O51      1.0000 0.89700  0.47990  0.47496  Biso   1.000  O
  O52      1.0000 0.39700  0.97990  0.47496  Biso   1.000  O
  O53      1.0000 0.89700  0.52010  0.97496  Biso   1.000  O
  O54      1.0000 0.39700  0.02010  0.97496  Biso   1.000  O
  O55      1.0000 0.10300  0.52010  0.52504  Biso   1.000  O
  O56      1.0000 0.60300  0.02010  0.52504  Biso   1.000  O
  O57      1.0000 0.20010  0.59080  0.05086  Biso   1.000  O
  O58      1.0000 0.70010  0.09080  0.05086  Biso   1.000  O
  O59      1.0000 0.79990  0.59080  0.44914  Biso   1.000  O
  O60      1.0000 0.29990  0.09080  0.44914  Biso   1.000  O
  O61      1.0000 0.79990  0.40920  0.94914  Biso   1.000  O
  O62      1.0000 0.29990  0.90920  0.94914  Biso   1.000  O
  O63      1.0000 0.20010  0.40920  0.55086  Biso   1.000  O
  O64      1.0000 0.70010  0.90920  0.55086  Biso   1.000  O
  O65      1.0000 0.28770  0.47480  0.06355  Biso   1.000  O
  O66      1.0000 0.78770  0.97480  0.06355  Biso   1.000  O
  O67      1.0000 0.71230  0.47480  0.43645  Biso   1.000  O
  O68      1.0000 0.21230  0.97480  0.43645  Biso   1.000  O
  O69      1.0000 0.71230  0.52520  0.93645  Biso   1.000  O
  O70      1.0000 0.21230  0.02520  0.93645  Biso   1.000  O
  O71      1.0000 0.28770  0.52520  0.56355  Biso   1.000  O
  O72      1.0000 0.78770  0.02520  0.56355  Biso   1.000  O
  O73      1.0000 0.41100  0.37720  0.04959  Biso   1.000  O
  O74      1.0000 0.91100  0.87720  0.04959  Biso   1.000  O
  O75      1.0000 0.58900  0.37720  0.45041  Biso   1.000  O
  O76      1.0000 0.08900  0.87720  0.45041  Biso   1.000  O
  O77      1.0000 0.58900  0.62280  0.95041  Biso   1.000  O
  O78      1.0000 0.08900  0.12280  0.95041  Biso   1.000  O
  O79      1.0000 0.41100  0.62280  0.54959  Biso   1.000  O
  O80      1.0000 0.91100  0.12280  0.54959  Biso   1.000  O
  O81      1.0000 0.38540  0.47770  0.98434  Biso   1.000  O
  O82      1.0000 0.88540  0.97770  0.98434  Biso   1.000  O
  O83      1.0000 0.61460  0.47770  0.51566  Biso   1.000  O
  O84      1.0000 0.11460  0.97770  0.51566  Biso   1.000  O
  O85      1.0000 0.61460  0.52230  0.01566  Biso   1.000  O
  O86      1.0000 0.11460  0.02230  0.01566  Biso   1.000  O
  O87      1.0000 0.38540  0.52230  0.48434  Biso   1.000  O
  O88      1.0000 0.88540  0.02230  0.48434  Biso   1.000  O
  O89      1.0000 0.55050  0.42300  0.00508  Biso   1.000  O
  O90      1.0000 0.05050  0.92300  0.00508  Biso   1.000  O
  O91      1.0000 0.44950  0.42300  0.49492  Biso   1.000  O
  O92      1.0000 0.94950  0.92300  0.49492  Biso   1.000  O
  O93      1.0000 0.44950  0.57700  0.99492  Biso   1.000  O
  O94      1.0000 0.94950  0.07700  0.99492  Biso   1.000  O
  O95      1.0000 0.55050  0.57700  0.50508  Biso   1.000  O
  O96      1.0000 0.05050  0.07700  0.50508  Biso   1.000  O
  O97      1.0000 0.49870  0.41060  0.11844  Biso   1.000  O
  O98      1.0000 0.99870  0.91060  0.11844  Biso   1.000  O
  O99      1.0000 0.50130  0.41060  0.38156  Biso   1.000  O
  O100     1.0000 0.00130  0.91060  0.38156  Biso   1.000  O
  O101     1.0000 0.50130  0.58940  0.88156  Biso   1.000  O
  O102     1.0000 0.00130  0.08940  0.88156  Biso   1.000  O
  O103     1.0000 0.49870  0.58940  0.61844  Biso   1.000  O
  O104     1.0000 0.99870  0.08940  0.61844  Biso   1.000  O
  O105     1.0000 0.46230  0.50350  0.07130  Biso   1.000  O
  O106     1.0000 0.96230  0.00350  0.07130  Biso   1.000  O
  O107     1.0000 0.53770  0.50350  0.42870  Biso   1.000  O
  O108     1.0000 0.03770  0.00350  0.42870  Biso   1.000  O
  O109     1.0000 0.53770  0.49650  0.92870  Biso   1.000  O
  O110     1.0000 0.03770  0.99650  0.92870  Biso   1.000  O
  O111     1.0000 0.46230  0.49650  0.57130  Biso   1.000  O
  O112     1.0000 0.96230  0.99650  0.57130  Biso   1.000  O
  O113     1.0000 0.28960  0.34610  0.17080  Biso   1.000  O
  O114     1.0000 0.78960  0.84610  0.17080  Biso   1.000  O
  O115     1.0000 0.71040  0.34610  0.32920  Biso   1.000  O
  O116     1.0000 0.21040  0.84610  0.32920  Biso   1.000  O
  O117     1.0000 0.71040  0.65390  0.82920  Biso   1.000  O
  O118     1.0000 0.21040  0.15390  0.82920  Biso   1.000  O
  O119     1.0000 0.28960  0.65390  0.67080  Biso   1.000  O
  O120     1.0000 0.78960  0.15390  0.67080  Biso   1.000  O
  O121     1.0000 0.37490  0.61680  0.07908  Biso   1.000  O
  O122     1.0000 0.87490  0.11680  0.07908  Biso   1.000  O
  O123     1.0000 0.62510  0.61680  0.42092  Biso   1.000  O
  O124     1.0000 0.12510  0.11680  0.42092  Biso   1.000  O
  O125     1.0000 0.62510  0.38320  0.92092  Biso   1.000  O
  O126     1.0000 0.12510  0.88320  0.92092  Biso   1.000  O
  O127     1.0000 0.37490  0.38320  0.57908  Biso   1.000  O
  O128     1.0000 0.87490  0.88320  0.57908  Biso   1.000  O
  O129     1.0000 0.56770  0.61810  0.07860  Biso   1.000  O
  O130     1.0000 0.06770  0.11810  0.07860  Biso   1.000  O
  O131     1.0000 0.43230  0.61810  0.42140  Biso   1.000  O
  O132     1.0000 0.93230  0.11810  0.42140  Biso   1.000  O
  O133     1.0000 0.43230  0.38190  0.92140  Biso   1.000  O
  O134     1.0000 0.93230  0.88190  0.92140  Biso   1.000  O
  O135     1.0000 0.56770  0.38190  0.57860  Biso   1.000  O
  O136     1.0000 0.06770  0.88190  0.57860  Biso   1.000  O
  O137     1.0000 0.63990  0.42290  0.17744  Biso   1.000  O
  O138     1.0000 0.13990  0.92290  0.17744  Biso   1.000  O
  O139     1.0000 0.36010  0.42290  0.32256  Biso   1.000  O
  O140     1.0000 0.86010  0.92290  0.32256  Biso   1.000  O
  O141     1.0000 0.36010  0.57710  0.82256  Biso   1.000  O
  O142     1.0000 0.86010  0.07710  0.82256  Biso   1.000  O
  O143     1.0000 0.63990  0.57710  0.67744  Biso   1.000  O
  O144     1.0000 0.13990  0.07710  0.67744  Biso   1.000  O
  O145     1.0000 0.53440  0.52100  0.19734  Biso   1.000  O
  O146     1.0000 0.03440  0.02100  0.19734  Biso   1.000  O
  O147     1.0000 0.46560  0.52100  0.30266  Biso   1.000  O
  O148     1.0000 0.96560  0.02100  0.30266  Biso   1.000  O
  O149     1.0000 0.46560  0.47900  0.80266  Biso   1.000  O
  O150     1.0000 0.96560  0.97900  0.80266  Biso   1.000  O
  O151     1.0000 0.53440  0.47900  0.69734  Biso   1.000  O
  O152     1.0000 0.03440  0.97900  0.69734  Biso   1.000  O
  O153     1.0000 0.48370  0.63700  0.13914  Biso   1.000  O
  O154     1.0000 0.98370  0.13700  0.13914  Biso   1.000  O
  O155     1.0000 0.51630  0.63700  0.36086  Biso   1.000  O
  O156     1.0000 0.01630  0.13700  0.36086  Biso   1.000  O
  O157     1.0000 0.51630  0.36300  0.86086  Biso   1.000  O
  O158     1.0000 0.01630  0.86300  0.86086  Biso   1.000  O
  O159     1.0000 0.48370  0.36300  0.63914  Biso   1.000  O
  O160     1.0000 0.98370  0.86300  0.63914  Biso   1.000  O
  O161     1.0000 0.39990  0.47720  0.23257  Biso   1.000  O
  O162     1.0000 0.89990  0.97720  0.23257  Biso   1.000  O
  O163     1.0000 0.60010  0.47720  0.26743  Biso   1.000  O
  O164     1.0000 0.10010  0.97720  0.26743  Biso   1.000  O
  O165     1.0000 0.60010  0.52280  0.76743  Biso   1.000  O
  O166     1.0000 0.10010  0.02280  0.76743  Biso   1.000  O
  O167     1.0000 0.39990  0.52280  0.73257  Biso   1.000  O
  O168     1.0000 0.89990  0.02280  0.73257  Biso   1.000  O
  O169     1.0000 0.34190  0.58350  0.17545  Biso   1.000  O
  O170     1.0000 0.84190  0.08350  0.17545  Biso   1.000  O
  O171     1.0000 0.65810  0.58350  0.32455  Biso   1.000  O
  O172     1.0000 0.15810  0.08350  0.32455  Biso   1.000  O
  O173     1.0000 0.65810  0.41650  0.82455  Biso   1.000  O
  O174     1.0000 0.15810  0.91650  0.82455  Biso   1.000  O
  O175     1.0000 0.34190  0.41650  0.67545  Biso   1.000  O
  O176     1.0000 0.84190  0.91650  0.67545  Biso   1.000  O
  O177     1.0000 0.31890  0.68930  0.12582  Biso   1.000  O
  O178     1.0000 0.81890  0.18930  0.12582  Biso   1.000  O
  O179     1.0000 0.68110  0.68930  0.37418  Biso   1.000  O
  O180     1.0000 0.18110  0.18930  0.37418  Biso   1.000  O
  O181     1.0000 0.68110  0.31070  0.87418  Biso   1.000  O
  O182     1.0000 0.18110  0.81070  0.87418  Biso   1.000  O
  O183     1.0000 0.31890  0.31070  0.62582  Biso   1.000  O
  O184     1.0000 0.81890  0.81070  0.62582  Biso   1.000  O
  O185     1.0000 0.19270  0.54580  0.21312  Biso   1.000  O
  O186     1.0000 0.69270  0.04580  0.21312  Biso   1.000  O
  O187     1.0000 0.80730  0.54580  0.28688  Biso   1.000  O
  O188     1.0000 0.30730  0.04580  0.28688  Biso   1.000  O
  O189     1.0000 0.80730  0.45420  0.78688  Biso   1.000  O
  O190     1.0000 0.30730  0.95420  0.78688  Biso   1.000  O
  O191     1.0000 0.19270  0.45420  0.71312  Biso   1.000  O
  O192     1.0000 0.69270  0.95420  0.71312  Biso   1.000  O
  O193     1.0000 0.16110  0.63840  0.16675  Biso   1.000  O
  O194     1.0000 0.66110  0.13840  0.16675  Biso   1.000  O
  O195     1.0000 0.83890  0.63840  0.33325  Biso   1.000  O
  O196     1.0000 0.33890  0.13840  0.33325  Biso   1.000  O
  O197     1.0000 0.83890  0.36160  0.83325  Biso   1.000  O
  O198     1.0000 0.33890  0.86160  0.83325  Biso   1.000  O
  O199     1.0000 0.16110  0.36160  0.66675  Biso   1.000  O
  O200     1.0000 0.66110  0.86160  0.66675  Biso   1.000  O
  O201     1.0000 0.31630  0.70120  0.19465  Biso   1.000  O
  O202     1.0000 0.81630  0.20120  0.19465  Biso   1.000  O
  O203     1.0000 0.68370  0.70120  0.30535  Biso   1.000  O
  O204     1.0000 0.18370  0.20120  0.30535  Biso   1.000  O
  O205     1.0000 0.68370  0.29880  0.80535  Biso   1.000  O
  O206     1.0000 0.18370  0.79880  0.80535  Biso   1.000  O
  O207     1.0000 0.31630  0.29880  0.69465  Biso   1.000  O
  O208     1.0000 0.81630  0.79880  0.69465  Biso   1.000  O
  O209     1.0000 0.46020  0.76140  0.16889  Biso   1.000  O
  O210     1.0000 0.96020  0.26140  0.16889  Biso   1.000  O
  O211     1.0000 0.53980  0.76140  0.33111  Biso   1.000  O
  O212     1.0000 0.03980  0.26140  0.33111  Biso   1.000  O
  O213     1.0000 0.53980  0.23860  0.83111  Biso   1.000  O
  O214     1.0000 0.03980  0.73860  0.83111  Biso   1.000  O
  O215     1.0000 0.46020  0.23860  0.66889  Biso   1.000  O
  O216     1.0000 0.96020  0.73860  0.66889  Biso   1.000  O
  O217     1.0000 0.15680  0.43320  0.09526  Biso   1.000  O
  O218     1.0000 0.65680  0.93320  0.09526  Biso   1.000  O
  O219     1.0000 0.84320  0.43320  0.40474  Biso   1.000  O
  O220     1.0000 0.34320  0.93320  0.40474  Biso   1.000  O
  O221     1.0000 0.84320  0.56680  0.90474  Biso   1.000  O
  O222     1.0000 0.34320  0.06680  0.90474  Biso   1.000  O
  O223     1.0000 0.15680  0.56680  0.59526  Biso   1.000  O
  O224     1.0000 0.65680  0.06680  0.59526  Biso   1.000  O
  O225     1.0000 0.31880  0.38010  0.10701  Biso   1.000  O
  O226     1.0000 0.81880  0.88010  0.10701  Biso   1.000  O
  O227     1.0000 0.68120  0.38010  0.39299  Biso   1.000  O
  O228     1.0000 0.18120  0.88010  0.39299  Biso   1.000  O
  O229     1.0000 0.68120  0.61990  0.89299  Biso   1.000  O
  O230     1.0000 0.18120  0.11990  0.89299  Biso   1.000  O
  O231     1.0000 0.31880  0.61990  0.60701  Biso   1.000  O
  O232     1.0000 0.81880  0.11990  0.60701  Biso   1.000  O
  O233     1.0000 0.16660  0.29890  0.11363  Biso   1.000  O
  O234     1.0000 0.66660  0.79890  0.11363  Biso   1.000  O
  O235     1.0000 0.83340  0.29890  0.38637  Biso   1.000  O
  O236     1.0000 0.33340  0.79890  0.38637  Biso   1.000  O
  O237     1.0000 0.83340  0.70110  0.88637  Biso   1.000  O
  O238     1.0000 0.33340  0.20110  0.88637  Biso   1.000  O
  O239     1.0000 0.16660  0.70110  0.61363  Biso   1.000  O
  O240     1.0000 0.66660  0.20110  0.61363  Biso   1.000  O
  O241     1.0000 0.39210  0.34440  0.24098  Biso   1.000  O
  O242     1.0000 0.89210  0.84440  0.24098  Biso   1.000  O
  O243     1.0000 0.60790  0.34440  0.25902  Biso   1.000  O
  O244     1.0000 0.10790  0.84440  0.25902  Biso   1.000  O
  O245     1.0000 0.60790  0.65560  0.75902  Biso   1.000  O
  O246     1.0000 0.10790  0.15560  0.75902  Biso   1.000  O
  O247     1.0000 0.39210  0.65560  0.74098  Biso   1.000  O
  O248     1.0000 0.89210  0.15560  0.74098  Biso   1.000  O
  O249     1.0000 0.23350  0.41860  0.22006  Biso   1.000  O
  O250     1.0000 0.73350  0.91860  0.22006  Biso   1.000  O
  O251     1.0000 0.76650  0.41860  0.27994  Biso   1.000  O
  O252     1.0000 0.26650  0.91860  0.27994  Biso   1.000  O
  O253     1.0000 0.76650  0.58140  0.77994  Biso   1.000  O
  O254     1.0000 0.26650  0.08140  0.77994  Biso   1.000  O
  O255     1.0000 0.23350  0.58140  0.72006  Biso   1.000  O
  O256     1.0000 0.73350  0.08140  0.72006  Biso   1.000  O
  O257     1.0000 0.27460  0.47100  0.16303  Biso   1.000  O
  O258     1.0000 0.77460  0.97100  0.16303  Biso   1.000  O
  O259     1.0000 0.72540  0.47100  0.33697  Biso   1.000  O
  O260     1.0000 0.22540  0.97100  0.33697  Biso   1.000  O
  O261     1.0000 0.72540  0.52900  0.83697  Biso   1.000  O
  O262     1.0000 0.22540  0.02900  0.83697  Biso   1.000  O
  O263     1.0000 0.27460  0.52900  0.66303  Biso   1.000  O
  O264     1.0000 0.77460  0.02900  0.66303  Biso   1.000  O
  O265     1.0000 0.45230  0.40520  0.18161  Biso   1.000  O
  O266     1.0000 0.95230  0.90520  0.18161  Biso   1.000  O
  O267     1.0000 0.54770  0.40520  0.31839  Biso   1.000  O
  O268     1.0000 0.04770  0.90520  0.31839  Biso   1.000  O
  O269     1.0000 0.54770  0.59480  0.81839  Biso   1.000  O
  O270     1.0000 0.04770  0.09480  0.81839  Biso   1.000  O
  O271     1.0000 0.45230  0.59480  0.68161  Biso   1.000  O
  O272     1.0000 0.95230  0.09480  0.68161  Biso   1.000  O
  O273     1.0000 0.12230  0.39870  0.15715  Biso   1.000  O
  O274     1.0000 0.62230  0.89870  0.15715  Biso   1.000  O
  O275     1.0000 0.87770  0.39870  0.34285  Biso   1.000  O
  O276     1.0000 0.37770  0.89870  0.34285  Biso   1.000  O
  O277     1.0000 0.87770  0.60130  0.84285  Biso   1.000  O
  O278     1.0000 0.37770  0.10130  0.84285  Biso   1.000  O
  O279     1.0000 0.12230  0.60130  0.65715  Biso   1.000  O
  O280     1.0000 0.62230  0.10130  0.65715  Biso   1.000  O
  O281     1.0000 0.25870  0.72420  0.05570  Biso   1.000  O
  O282     1.0000 0.75870  0.22420  0.05570  Biso   1.000  O
  O283     1.0000 0.74130  0.72420  0.44430  Biso   1.000  O
  O284     1.0000 0.24130  0.22420  0.44430  Biso   1.000  O
  O285     1.0000 0.74130  0.27580  0.94430  Biso   1.000  O
  O286     1.0000 0.24130  0.77580  0.94430  Biso   1.000  O
  O287     1.0000 0.25870  0.27580  0.55570  Biso   1.000  O
  O288     1.0000 0.75870  0.77580  0.55570  Biso   1.000  O
  O289     1.0000 0.14290  0.66690  0.09710  Biso   1.000  O
  O290     1.0000 0.64290  0.16690  0.09710  Biso   1.000  O
  O291     1.0000 0.85710  0.66690  0.40290  Biso   1.000  O
  O292     1.0000 0.35710  0.16690  0.40290  Biso   1.000  O
  O293     1.0000 0.85710  0.33310  0.90290  Biso   1.000  O
  O294     1.0000 0.35710  0.83310  0.90290  Biso   1.000  O
  O295     1.0000 0.14290  0.33310  0.59710  Biso   1.000  O
  O296     1.0000 0.64290  0.83310  0.59710  Biso   1.000  O
  O297     1.0000 0.57260  0.52550  0.13179  Biso   1.000  O
  O298     1.0000 0.07260  0.02550  0.13179  Biso   1.000  O
  O299     1.0000 0.42740  0.52550  0.36821  Biso   1.000  O
  O300     1.0000 0.92740  0.02550  0.36821  Biso   1.000  O
  O301     1.0000 0.42740  0.47450  0.86821  Biso   1.000  O
  O302     1.0000 0.92740  0.97450  0.86821  Biso   1.000  O
  O303     1.0000 0.57260  0.47450  0.63179  Biso   1.000  O
  O304     1.0000 0.07260  0.97450  0.63179  Biso   1.000  O
  O305     1.0000 0.24010  0.55970  0.11710  Biso   1.000  O
  O306     1.0000 0.74010  0.05970  0.11710  Biso   1.000  O
  O307     1.0000 0.75990  0.55970  0.38290  Biso   1.000  O
  O308     1.0000 0.25990  0.05970  0.38290  Biso   1.000  O
  O309     1.0000 0.75990  0.44030  0.88290  Biso   1.000  O
  O310     1.0000 0.25990  0.94030  0.88290  Biso   1.000  O
  O311     1.0000 0.24010  0.44030  0.61710  Biso   1.000  O
  O312     1.0000 0.74010  0.94030  0.61710  Biso   1.000  O
  O313     1.0000 0.39670  0.50980  0.13133  Biso   1.000  O
  O314     1.0000 0.89670  0.00980  0.13133  Biso   1.000  O
  O315     1.0000 0.60330  0.50980  0.36867  Biso   1.000  O
  O316     1.0000 0.10330  0.00980  0.36867  Biso   1.000  O
  O317     1.0000 0.60330  0.49020  0.86867  Biso   1.000  O
  O318     1.0000 0.10330  0.99020  0.86867  Biso   1.000  O
  O319     1.0000 0.39670  0.49020  0.63133  Biso   1.000  O
  O320     1.0000 0.89670  0.99020  0.63133  Biso   1.000  O
  O321     1.0000 0.08510  0.52520  0.15210  Biso   1.000  O
  O322     1.0000 0.58510  0.02520  0.15210  Biso   1.000  O
  O323     1.0000 0.91490  0.52520  0.34790  Biso   1.000  O
  O324     1.0000 0.41490  0.02520  0.34790  Biso   1.000  O
  O325     1.0000 0.91490  0.47480  0.84790  Biso   1.000  O
  O326     1.0000 0.41490  0.97480  0.84790  Biso   1.000  O
  O327     1.0000 0.08510  0.47480  0.65210  Biso   1.000  O
  O328     1.0000 0.58510  0.97480  0.65210  Biso   1.000  O
