data_image0
_cell_length_a       15.1688
_cell_length_b       20.2868
_cell_length_c       38.63
_cell_angle_alpha    90
_cell_angle_beta     99.987
_cell_angle_gamma    90

_symmetry_space_group_name_H-M    "P 1"
_symmetry_int_tables_number       1

loop_
  _symmetry_equiv_pos_as_xyz
  'x, y, z'

loop_
  _atom_site_label
  _atom_site_occupancy
  _atom_site_fract_x
  _atom_site_fract_y
  _atom_site_fract_z
  _atom_site_thermal_displace_type
  _atom_site_B_iso_or_equiv
  _atom_site_type_symbol
  K1       1.0000 0.14960  0.87840  0.68285  Biso   1.000  K
  K2       1.0000 0.64960  0.37840  0.68285  Biso   1.000  K
  K3       1.0000 0.85040  0.87840  0.81715  Biso   1.000  K
  K4       1.0000 0.35040  0.37840  0.81715  Biso   1.000  K
  K5       1.0000 0.85040  0.12160  0.31715  Biso   1.000  K
  K6       1.0000 0.35040  0.62160  0.31715  Biso   1.000  K
  K7       1.0000 0.14960  0.12160  0.18285  Biso   1.000  K
  K8       1.0000 0.64960  0.62160  0.18285  Biso   1.000  K
  P1       1.0000 0.19150  0.96450  0.85342  Biso   1.000  P
  P2       1.0000 0.69150  0.46450  0.85342  Biso   1.000  P
  P3       1.0000 0.80850  0.96450  0.64658  Biso   1.000  P
  P4       1.0000 0.30850  0.46450  0.64658  Biso   1.000  P
  P5       1.0000 0.80850  0.03550  0.14658  Biso   1.000  P
  P6       1.0000 0.30850  0.53550  0.14658  Biso   1.000  P
  P7       1.0000 0.19150  0.03550  0.35342  Biso   1.000  P
  P8       1.0000 0.69150  0.53550  0.35342  Biso   1.000  P
  W1       1.0000 0.97819  0.03933  0.84043  Biso   1.000  W
  W2       1.0000 0.47819  0.53933  0.84043  Biso   1.000  W
  W3       1.0000 0.02181  0.03933  0.65957  Biso   1.000  W
  W4       1.0000 0.52181  0.53933  0.65957  Biso   1.000  W
  W5       1.0000 0.02181  0.96067  0.15957  Biso   1.000  W
  W6       1.0000 0.52181  0.46067  0.15957  Biso   1.000  W
  W7       1.0000 0.97819  0.96067  0.34043  Biso   1.000  W
  W8       1.0000 0.47819  0.46067  0.34043  Biso   1.000  W
  W9       1.0000 0.14568  0.09759  0.79199  Biso   1.000  W
  W10      1.0000 0.64568  0.59759  0.79199  Biso   1.000  W
  W11      1.0000 0.85432  0.09759  0.70801  Biso   1.000  W
  W12      1.0000 0.35432  0.59759  0.70801  Biso   1.000  W
  W13      1.0000 0.85432  0.90241  0.20801  Biso   1.000  W
  W14      1.0000 0.35432  0.40241  0.20801  Biso   1.000  W
  W15      1.0000 0.14568  0.90241  0.29199  Biso   1.000  W
  W16      1.0000 0.64568  0.40241  0.29199  Biso   1.000  W
  W17      1.0000 0.12203  0.06605  0.92073  Biso   1.000  W
  W18      1.0000 0.62203  0.56605  0.92073  Biso   1.000  W
  W19      1.0000 0.87797  0.06605  0.57927  Biso   1.000  W
  W20      1.0000 0.37797  0.56605  0.57927  Biso   1.000  W
  W21      1.0000 0.87797  0.93395  0.07927  Biso   1.000  W
  W22      1.0000 0.37797  0.43395  0.07927  Biso   1.000  W
  W23      1.0000 0.12203  0.93395  0.42073  Biso   1.000  W
  W24      1.0000 0.62203  0.43395  0.42073  Biso   1.000  W
  W25      1.0000 0.08579  0.81467  0.82860  Biso   1.000  W
  W26      1.0000 0.58579  0.31467  0.82860  Biso   1.000  W
  W27      1.0000 0.91421  0.81467  0.67140  Biso   1.000  W
  W28      1.0000 0.41421  0.31467  0.67140  Biso   1.000  W
  W29      1.0000 0.91421  0.18533  0.17140  Biso   1.000  W
  W30      1.0000 0.41421  0.68533  0.17140  Biso   1.000  W
  W31      1.0000 0.08579  0.18533  0.32860  Biso   1.000  W
  W32      1.0000 0.58579  0.68533  0.32860  Biso   1.000  W
  W33      1.0000 0.29502  0.12606  0.87164  Biso   1.000  W
  W34      1.0000 0.79502  0.62606  0.87164  Biso   1.000  W
  W35      1.0000 0.70498  0.12606  0.62836  Biso   1.000  W
  W36      1.0000 0.20498  0.62606  0.62836  Biso   1.000  W
  W37      1.0000 0.70498  0.87394  0.12836  Biso   1.000  W
  W38      1.0000 0.20498  0.37394  0.12836  Biso   1.000  W
  W39      1.0000 0.29502  0.87394  0.37164  Biso   1.000  W
  W40      1.0000 0.79502  0.37394  0.37164  Biso   1.000  W
  W41      1.0000 0.24281  0.86831  0.78408  Biso   1.000  W
  W42      1.0000 0.74281  0.36831  0.78408  Biso   1.000  W
  W43      1.0000 0.75719  0.86831  0.71592  Biso   1.000  W
  W44      1.0000 0.25719  0.36831  0.71592  Biso   1.000  W
  W45      1.0000 0.75719  0.13169  0.21592  Biso   1.000  W
  W46      1.0000 0.25719  0.63169  0.21592  Biso   1.000  W
  W47      1.0000 0.24281  0.13169  0.28408  Biso   1.000  W
  W48      1.0000 0.74281  0.63169  0.28408  Biso   1.000  W
  W49      1.0000 0.35681  0.02948  0.80775  Biso   1.000  W
  W50      1.0000 0.85681  0.52948  0.80775  Biso   1.000  W
  W51      1.0000 0.64319  0.02948  0.69225  Biso   1.000  W
  W52      1.0000 0.14319  0.52948  0.69225  Biso   1.000  W
  W53      1.0000 0.64319  0.97052  0.19225  Biso   1.000  W
  W54      1.0000 0.14319  0.47052  0.19225  Biso   1.000  W
  W55      1.0000 0.35681  0.97052  0.30775  Biso   1.000  W
  W56      1.0000 0.85681  0.47052  0.30775  Biso   1.000  W
  W57      1.0000 0.34530  0.98590  0.93426  Biso   1.000  W
  W58      1.0000 0.84530  0.48590  0.93426  Biso   1.000  W
  W59      1.0000 0.65470  0.98590  0.56574  Biso   1.000  W
  W60      1.0000 0.15470  0.48590  0.56574  Biso   1.000  W
  W61      1.0000 0.65470  0.01410  0.06574  Biso   1.000  W
  W62      1.0000 0.15470  0.51410  0.06574  Biso   1.000  W
  W63      1.0000 0.34530  0.01410  0.43426  Biso   1.000  W
  W64      1.0000 0.84530  0.51410  0.43426  Biso   1.000  W
  W65      1.0000 0.24675  0.83507  0.91442  Biso   1.000  W
  W66      1.0000 0.74675  0.33507  0.91442  Biso   1.000  W
  W67      1.0000 0.75325  0.83507  0.58558  Biso   1.000  W
  W68      1.0000 0.25325  0.33507  0.58558  Biso   1.000  W
  W69      1.0000 0.75325  0.16493  0.08558  Biso   1.000  W
  W70      1.0000 0.25325  0.66493  0.08558  Biso   1.000  W
  W71      1.0000 0.24675  0.16493  0.41442  Biso   1.000  W
  W72      1.0000 0.74675  0.66493  0.41442  Biso   1.000  W
  W73      1.0000 0.02707  0.91572  0.90217  Biso   1.000  W
  W74      1.0000 0.52707  0.41572  0.90217  Biso   1.000  W
  W75      1.0000 0.97293  0.91572  0.59783  Biso   1.000  W
  W76      1.0000 0.47293  0.41572  0.59783  Biso   1.000  W
  W77      1.0000 0.97293  0.08428  0.09783  Biso   1.000  W
  W78      1.0000 0.47293  0.58428  0.09783  Biso   1.000  W
  W79      1.0000 0.02707  0.08428  0.40217  Biso   1.000  W
  W80      1.0000 0.52707  0.58428  0.40217  Biso   1.000  W
  W81      1.0000 0.40652  0.89025  0.86928  Biso   1.000  W
  W82      1.0000 0.90652  0.39025  0.86928  Biso   1.000  W
  W83      1.0000 0.59348  0.89025  0.63072  Biso   1.000  W
  W84      1.0000 0.09348  0.39025  0.63072  Biso   1.000  W
  W85      1.0000 0.59348  0.10975  0.13072  Biso   1.000  W
  W86      1.0000 0.09348  0.60975  0.13072  Biso   1.000  W
  W87      1.0000 0.40652  0.10975  0.36928  Biso   1.000  W
  W88      1.0000 0.90652  0.60975  0.36928  Biso   1.000  W
  Cu1      1.0000 0.92311  0.88651  0.98713  Biso   1.000  Cu
  Cu2      1.0000 0.42311  0.38651  0.98713  Biso   1.000  Cu
  Cu3      1.0000 0.07689  0.88651  0.51287  Biso   1.000  Cu
  Cu4      1.0000 0.57689  0.38651  0.51287  Biso   1.000  Cu
  Cu5      1.0000 0.07689  0.11349  0.01287  Biso   1.000  Cu
  Cu6      1.0000 0.57689  0.61349  0.01287  Biso   1.000  Cu
  Cu7      1.0000 0.92311  0.11349  0.48713  Biso   1.000  Cu
  Cu8      1.0000 0.42311  0.61349  0.48713  Biso   1.000  Cu
  K9       1.0000 1.00000  0.93790  0.75000  Biso   1.000  K
  K10      1.0000 0.50000  0.43790  0.75000  Biso   1.000  K
  K11      1.0000 0.00000  0.06210  0.25000  Biso   1.000  K
  K12      1.0000 0.50000  0.56210  0.25000  Biso   1.000  K
  C1       1.0000 0.04680  0.98380  0.00660  Biso   1.000  C
  C2       1.0000 0.54680  0.48380  0.00660  Biso   1.000  C
  C3       1.0000 0.95320  0.98380  0.49340  Biso   1.000  C
  C4       1.0000 0.45320  0.48380  0.49340  Biso   1.000  C
  C5       1.0000 0.95320  0.01620  0.99340  Biso   1.000  C
  C6       1.0000 0.45320  0.51620  0.99340  Biso   1.000  C
  C7       1.0000 0.04680  0.01620  0.50660  Biso   1.000  C
  C8       1.0000 0.54680  0.51620  0.50660  Biso   1.000  C
  C9       1.0000 0.64740  0.85750  0.94580  Biso   1.000  C
  C10      1.0000 0.14740  0.35750  0.94580  Biso   1.000  C
  C11      1.0000 0.35260  0.85750  0.55420  Biso   1.000  C
  C12      1.0000 0.85260  0.35750  0.55420  Biso   1.000  C
  C13      1.0000 0.35260  0.14250  0.05420  Biso   1.000  C
  C14      1.0000 0.85260  0.64250  0.05420  Biso   1.000  C
  C15      1.0000 0.64740  0.14250  0.44580  Biso   1.000  C
  C16      1.0000 0.14740  0.64250  0.44580  Biso   1.000  C
  H1       1.0000 0.59490  0.88160  0.93940  Biso   1.000  H
  H2       1.0000 0.09490  0.38160  0.93940  Biso   1.000  H
  H3       1.0000 0.40510  0.88160  0.56060  Biso   1.000  H
  H4       1.0000 0.90510  0.38160  0.56060  Biso   1.000  H
  H5       1.0000 0.40510  0.11840  0.06060  Biso   1.000  H
  H6       1.0000 0.90510  0.61840  0.06060  Biso   1.000  H
  H7       1.0000 0.59490  0.11840  0.43940  Biso   1.000  H
  H8       1.0000 0.09490  0.61840  0.43940  Biso   1.000  H
  C17      1.0000 0.64900  0.78930  0.94250  Biso   1.000  C
  C18      1.0000 0.14900  0.28930  0.94250  Biso   1.000  C
  C19      1.0000 0.35100  0.78930  0.55750  Biso   1.000  C
  C20      1.0000 0.85100  0.28930  0.55750  Biso   1.000  C
  C21      1.0000 0.35100  0.21070  0.05750  Biso   1.000  C
  C22      1.0000 0.85100  0.71070  0.05750  Biso   1.000  C
  C23      1.0000 0.64900  0.21070  0.44250  Biso   1.000  C
  C24      1.0000 0.14900  0.71070  0.44250  Biso   1.000  C
  H9       1.0000 0.59530  0.76650  0.93530  Biso   1.000  H
  H10      1.0000 0.09530  0.26650  0.93530  Biso   1.000  H
  H11      1.0000 0.40470  0.76650  0.56470  Biso   1.000  H
  H12      1.0000 0.90470  0.26650  0.56470  Biso   1.000  H
  H13      1.0000 0.40470  0.23350  0.06470  Biso   1.000  H
  H14      1.0000 0.90470  0.73350  0.06470  Biso   1.000  H
  H15      1.0000 0.59530  0.23350  0.43530  Biso   1.000  H
  H16      1.0000 0.09530  0.73350  0.43530  Biso   1.000  H
  C25      1.0000 0.05100  0.69870  0.99980  Biso   1.000  C
  C26      1.0000 0.55100  0.19870  0.99980  Biso   1.000  C
  C27      1.0000 0.94900  0.69870  0.50020  Biso   1.000  C
  C28      1.0000 0.44900  0.19870  0.50020  Biso   1.000  C
  C29      1.0000 0.94900  0.30130  0.00020  Biso   1.000  C
  C30      1.0000 0.44900  0.80130  0.00020  Biso   1.000  C
  C31      1.0000 0.05100  0.30130  0.49980  Biso   1.000  C
  C32      1.0000 0.55100  0.80130  0.49980  Biso   1.000  C
  H17      1.0000 0.10760  0.68120  0.00730  Biso   1.000  H
  H18      1.0000 0.60760  0.18120  0.00730  Biso   1.000  H
  H19      1.0000 0.89240  0.68120  0.49270  Biso   1.000  H
  H20      1.0000 0.39240  0.18120  0.49270  Biso   1.000  H
  H21      1.0000 0.89240  0.31880  0.99270  Biso   1.000  H
  H22      1.0000 0.39240  0.81880  0.99270  Biso   1.000  H
  H23      1.0000 0.10760  0.31880  0.50730  Biso   1.000  H
  H24      1.0000 0.60760  0.81880  0.50730  Biso   1.000  H
  C33      1.0000 0.73190  0.88960  0.95950  Biso   1.000  C
  C34      1.0000 0.23190  0.38960  0.95950  Biso   1.000  C
  C35      1.0000 0.26810  0.88960  0.54050  Biso   1.000  C
  C36      1.0000 0.76810  0.38960  0.54050  Biso   1.000  C
  C37      1.0000 0.26810  0.11040  0.04050  Biso   1.000  C
  C38      1.0000 0.76810  0.61040  0.04050  Biso   1.000  C
  C39      1.0000 0.73190  0.11040  0.45950  Biso   1.000  C
  C40      1.0000 0.23190  0.61040  0.45950  Biso   1.000  C
  H25      1.0000 0.73480  0.93500  0.96260  Biso   1.000  H
  H26      1.0000 0.23480  0.43500  0.96260  Biso   1.000  H
  H27      1.0000 0.26520  0.93500  0.53740  Biso   1.000  H
  H28      1.0000 0.76520  0.43500  0.53740  Biso   1.000  H
  H29      1.0000 0.26520  0.06500  0.03740  Biso   1.000  H
  H30      1.0000 0.76520  0.56500  0.03740  Biso   1.000  H
  H31      1.0000 0.73480  0.06500  0.46260  Biso   1.000  H
  H32      1.0000 0.23480  0.56500  0.46260  Biso   1.000  H
  C41      1.0000 0.97900  0.65970  0.98580  Biso   1.000  C
  C42      1.0000 0.47900  0.15970  0.98580  Biso   1.000  C
  C43      1.0000 0.02100  0.65970  0.51420  Biso   1.000  C
  C44      1.0000 0.52100  0.15970  0.51420  Biso   1.000  C
  C45      1.0000 0.02100  0.34030  0.01420  Biso   1.000  C
  C46      1.0000 0.52100  0.84030  0.01420  Biso   1.000  C
  C47      1.0000 0.97900  0.34030  0.48580  Biso   1.000  C
  C48      1.0000 0.47900  0.84030  0.48580  Biso   1.000  C
  H33      1.0000 0.98720  0.61430  0.98530  Biso   1.000  H
  H34      1.0000 0.48720  0.11430  0.98530  Biso   1.000  H
  H35      1.0000 0.01280  0.61430  0.51470  Biso   1.000  H
  H36      1.0000 0.51280  0.11430  0.51470  Biso   1.000  H
  H37      1.0000 0.01280  0.38570  0.01470  Biso   1.000  H
  H38      1.0000 0.51280  0.88570  0.01470  Biso   1.000  H
  H39      1.0000 0.98720  0.38570  0.48530  Biso   1.000  H
  H40      1.0000 0.48720  0.88570  0.48530  Biso   1.000  H
  C49      1.0000 0.72900  0.75510  0.95010  Biso   1.000  C
  C50      1.0000 0.22900  0.25510  0.95010  Biso   1.000  C
  C51      1.0000 0.27100  0.75510  0.54990  Biso   1.000  C
  C52      1.0000 0.77100  0.25510  0.54990  Biso   1.000  C
  C53      1.0000 0.27100  0.24490  0.04990  Biso   1.000  C
  C54      1.0000 0.77100  0.74490  0.04990  Biso   1.000  C
  C55      1.0000 0.72900  0.24490  0.45010  Biso   1.000  C
  C56      1.0000 0.22900  0.74490  0.45010  Biso   1.000  C
  H41      1.0000 0.73080  0.71020  0.94550  Biso   1.000  H
  H42      1.0000 0.23080  0.21020  0.94550  Biso   1.000  H
  H43      1.0000 0.26920  0.71020  0.55450  Biso   1.000  H
  H44      1.0000 0.76920  0.21020  0.55450  Biso   1.000  H
  H45      1.0000 0.26920  0.28980  0.05450  Biso   1.000  H
  H46      1.0000 0.76920  0.78980  0.05450  Biso   1.000  H
  H47      1.0000 0.73080  0.28980  0.44550  Biso   1.000  H
  H48      1.0000 0.23080  0.78980  0.44550  Biso   1.000  H
  C57      1.0000 0.89440  0.68540  0.97220  Biso   1.000  C
  C58      1.0000 0.39440  0.18540  0.97220  Biso   1.000  C
  C59      1.0000 0.10560  0.68540  0.52780  Biso   1.000  C
  C60      1.0000 0.60560  0.18540  0.52780  Biso   1.000  C
  C61      1.0000 0.10560  0.31460  0.02780  Biso   1.000  C
  C62      1.0000 0.60560  0.81460  0.02780  Biso   1.000  C
  C63      1.0000 0.89440  0.31460  0.47220  Biso   1.000  C
  C64      1.0000 0.39440  0.81460  0.47220  Biso   1.000  C
  H49      1.0000 0.84700  0.65870  0.96210  Biso   1.000  H
  H50      1.0000 0.34700  0.15870  0.96210  Biso   1.000  H
  H51      1.0000 0.15300  0.65870  0.53790  Biso   1.000  H
  H52      1.0000 0.65300  0.15870  0.53790  Biso   1.000  H
  H53      1.0000 0.15300  0.34130  0.03790  Biso   1.000  H
  H54      1.0000 0.65300  0.84130  0.03790  Biso   1.000  H
  H55      1.0000 0.84700  0.34130  0.46210  Biso   1.000  H
  H56      1.0000 0.34700  0.84130  0.46210  Biso   1.000  H
  C65      1.0000 0.80180  0.78580  0.96370  Biso   1.000  C
  C66      1.0000 0.30180  0.28580  0.96370  Biso   1.000  C
  C67      1.0000 0.19820  0.78580  0.53630  Biso   1.000  C
  C68      1.0000 0.69820  0.28580  0.53630  Biso   1.000  C
  C69      1.0000 0.19820  0.21420  0.03630  Biso   1.000  C
  C70      1.0000 0.69820  0.71420  0.03630  Biso   1.000  C
  C71      1.0000 0.80180  0.21420  0.46370  Biso   1.000  C
  C72      1.0000 0.30180  0.71420  0.46370  Biso   1.000  C
  C73      1.0000 0.03300  0.76690  0.00230  Biso   1.000  C
  C74      1.0000 0.53300  0.26690  0.00230  Biso   1.000  C
  C75      1.0000 0.96700  0.76690  0.49770  Biso   1.000  C
  C76      1.0000 0.46700  0.26690  0.49770  Biso   1.000  C
  C77      1.0000 0.96700  0.23310  0.99770  Biso   1.000  C
  C78      1.0000 0.46700  0.73310  0.99770  Biso   1.000  C
  C79      1.0000 0.03300  0.23310  0.50230  Biso   1.000  C
  C80      1.0000 0.53300  0.73310  0.50230  Biso   1.000  C
  H57      1.0000 0.07880  0.79400  0.01330  Biso   1.000  H
  H58      1.0000 0.57880  0.29400  0.01330  Biso   1.000  H
  H59      1.0000 0.92120  0.79400  0.48670  Biso   1.000  H
  H60      1.0000 0.42120  0.29400  0.48670  Biso   1.000  H
  H61      1.0000 0.92120  0.20600  0.98670  Biso   1.000  H
  H62      1.0000 0.42120  0.70600  0.98670  Biso   1.000  H
  H63      1.0000 0.07880  0.20600  0.51330  Biso   1.000  H
  H64      1.0000 0.57880  0.70600  0.51330  Biso   1.000  H
  C81      1.0000 0.88600  0.75230  0.97470  Biso   1.000  C
  C82      1.0000 0.38600  0.25230  0.97470  Biso   1.000  C
  C83      1.0000 0.11400  0.75230  0.52530  Biso   1.000  C
  C84      1.0000 0.61400  0.25230  0.52530  Biso   1.000  C
  C85      1.0000 0.11400  0.24770  0.02530  Biso   1.000  C
  C86      1.0000 0.61400  0.74770  0.02530  Biso   1.000  C
  C87      1.0000 0.88600  0.24770  0.47470  Biso   1.000  C
  C88      1.0000 0.38600  0.74770  0.47470  Biso   1.000  C
  N1       1.0000 0.95150  0.79540  0.98920  Biso   1.000  N
  N2       1.0000 0.45150  0.29540  0.98920  Biso   1.000  N
  N3       1.0000 0.04850  0.79540  0.51080  Biso   1.000  N
  N4       1.0000 0.54850  0.29540  0.51080  Biso   1.000  N
  N5       1.0000 0.04850  0.20460  0.01080  Biso   1.000  N
  N6       1.0000 0.54850  0.70460  0.01080  Biso   1.000  N
  N7       1.0000 0.95150  0.20460  0.48920  Biso   1.000  N
  N8       1.0000 0.45150  0.70460  0.48920  Biso   1.000  N
  N9       1.0000 0.80530  0.85260  0.96760  Biso   1.000  N
  N10      1.0000 0.30530  0.35260  0.96760  Biso   1.000  N
  N11      1.0000 0.19470  0.85260  0.53240  Biso   1.000  N
  N12      1.0000 0.69470  0.35260  0.53240  Biso   1.000  N
  N13      1.0000 0.19470  0.14740  0.03240  Biso   1.000  N
  N14      1.0000 0.69470  0.64740  0.03240  Biso   1.000  N
  N15      1.0000 0.80530  0.14740  0.46760  Biso   1.000  N
  N16      1.0000 0.30530  0.64740  0.46760  Biso   1.000  N
  O1       1.0000 0.04210  0.92160  0.00740  Biso   1.000  O
  O2       1.0000 0.54210  0.42160  0.00740  Biso   1.000  O
  O3       1.0000 0.95790  0.92160  0.49260  Biso   1.000  O
  O4       1.0000 0.45790  0.42160  0.49260  Biso   1.000  O
  O5       1.0000 0.95790  0.07840  0.99260  Biso   1.000  O
  O6       1.0000 0.45790  0.57840  0.99260  Biso   1.000  O
  O7       1.0000 0.04210  0.07840  0.50740  Biso   1.000  O
  O8       1.0000 0.54210  0.57840  0.50740  Biso   1.000  O
  O9       1.0000 0.11000  0.01790  0.01940  Biso   1.000  O
  O10      1.0000 0.61000  0.51790  0.01940  Biso   1.000  O
  O11      1.0000 0.89000  0.01790  0.48060  Biso   1.000  O
  O12      1.0000 0.39000  0.51790  0.48060  Biso   1.000  O
  O13      1.0000 0.89000  0.98210  0.98060  Biso   1.000  O
  O14      1.0000 0.39000  0.48210  0.98060  Biso   1.000  O
  O15      1.0000 0.11000  0.98210  0.51940  Biso   1.000  O
  O16      1.0000 0.61000  0.48210  0.51940  Biso   1.000  O
  O17      1.0000 0.16310  0.91570  0.82470  Biso   1.000  O
  O18      1.0000 0.66310  0.41570  0.82470  Biso   1.000  O
  O19      1.0000 0.83690  0.91570  0.67530  Biso   1.000  O
  O20      1.0000 0.33690  0.41570  0.67530  Biso   1.000  O
  O21      1.0000 0.83690  0.08430  0.17530  Biso   1.000  O
  O22      1.0000 0.33690  0.58430  0.17530  Biso   1.000  O
  O23      1.0000 0.16310  0.08430  0.32470  Biso   1.000  O
  O24      1.0000 0.66310  0.58430  0.32470  Biso   1.000  O
  O25      1.0000 0.18700  0.80490  0.87250  Biso   1.000  O
  O26      1.0000 0.68700  0.30490  0.87250  Biso   1.000  O
  O27      1.0000 0.81300  0.80490  0.62750  Biso   1.000  O
  O28      1.0000 0.31300  0.30490  0.62750  Biso   1.000  O
  O29      1.0000 0.81300  0.19510  0.12750  Biso   1.000  O
  O30      1.0000 0.31300  0.69510  0.12750  Biso   1.000  O
  O31      1.0000 0.18700  0.19510  0.37250  Biso   1.000  O
  O32      1.0000 0.68700  0.69510  0.37250  Biso   1.000  O
  O33      1.0000 0.11620  0.98410  0.87020  Biso   1.000  O
  O34      1.0000 0.61620  0.48410  0.87020  Biso   1.000  O
  O35      1.0000 0.88380  0.98410  0.62980  Biso   1.000  O
  O36      1.0000 0.38380  0.48410  0.62980  Biso   1.000  O
  O37      1.0000 0.88380  0.01590  0.12980  Biso   1.000  O
  O38      1.0000 0.38380  0.51590  0.12980  Biso   1.000  O
  O39      1.0000 0.11620  0.01590  0.37020  Biso   1.000  O
  O40      1.0000 0.61620  0.51590  0.37020  Biso   1.000  O
  O41      1.0000 0.05740  0.98950  0.93230  Biso   1.000  O
  O42      1.0000 0.55740  0.48950  0.93230  Biso   1.000  O
  O43      1.0000 0.94260  0.98950  0.56770  Biso   1.000  O
  O44      1.0000 0.44260  0.48950  0.56770  Biso   1.000  O
  O45      1.0000 0.94260  0.01050  0.06770  Biso   1.000  O
  O46      1.0000 0.44260  0.51050  0.06770  Biso   1.000  O
  O47      1.0000 0.05740  0.01050  0.43230  Biso   1.000  O
  O48      1.0000 0.55740  0.51050  0.43230  Biso   1.000  O
  O49      1.0000 0.95580  0.87480  0.92460  Biso   1.000  O
  O50      1.0000 0.45580  0.37480  0.92460  Biso   1.000  O
  O51      1.0000 0.04420  0.87480  0.57540  Biso   1.000  O
  O52      1.0000 0.54420  0.37480  0.57540  Biso   1.000  O
  O53      1.0000 0.04420  0.12520  0.07540  Biso   1.000  O
  O54      1.0000 0.54420  0.62520  0.07540  Biso   1.000  O
  O55      1.0000 0.95580  0.12520  0.42460  Biso   1.000  O
  O56      1.0000 0.45580  0.62520  0.42460  Biso   1.000  O
  O57      1.0000 0.22860  0.01940  0.93800  Biso   1.000  O
  O58      1.0000 0.72860  0.51940  0.93800  Biso   1.000  O
  O59      1.0000 0.77140  0.01940  0.56200  Biso   1.000  O
  O60      1.0000 0.27140  0.51940  0.56200  Biso   1.000  O
  O61      1.0000 0.77140  0.98060  0.06200  Biso   1.000  O
  O62      1.0000 0.27140  0.48060  0.06200  Biso   1.000  O
  O63      1.0000 0.22860  0.98060  0.43800  Biso   1.000  O
  O64      1.0000 0.72860  0.48060  0.43800  Biso   1.000  O
  O65      1.0000 0.05990  0.09740  0.82340  Biso   1.000  O
  O66      1.0000 0.55990  0.59740  0.82340  Biso   1.000  O
  O67      1.0000 0.94010  0.09740  0.67660  Biso   1.000  O
  O68      1.0000 0.44010  0.59740  0.67660  Biso   1.000  O
  O69      1.0000 0.94010  0.90260  0.17660  Biso   1.000  O
  O70      1.0000 0.44010  0.40260  0.17660  Biso   1.000  O
  O71      1.0000 0.05990  0.90260  0.32340  Biso   1.000  O
  O72      1.0000 0.55990  0.40260  0.32340  Biso   1.000  O
  O73      1.0000 0.22020  0.15550  0.83190  Biso   1.000  O
  O74      1.0000 0.72020  0.65550  0.83190  Biso   1.000  O
  O75      1.0000 0.77980  0.15550  0.66810  Biso   1.000  O
  O76      1.0000 0.27980  0.65550  0.66810  Biso   1.000  O
  O77      1.0000 0.77980  0.84450  0.16810  Biso   1.000  O
  O78      1.0000 0.27980  0.34450  0.16810  Biso   1.000  O
  O79      1.0000 0.22020  0.84450  0.33190  Biso   1.000  O
  O80      1.0000 0.72020  0.34450  0.33190  Biso   1.000  O
  O81      1.0000 0.30480  0.82300  0.75960  Biso   1.000  O
  O82      1.0000 0.80480  0.32300  0.75960  Biso   1.000  O
  O83      1.0000 0.69520  0.82300  0.74040  Biso   1.000  O
  O84      1.0000 0.19520  0.32300  0.74040  Biso   1.000  O
  O85      1.0000 0.69520  0.17700  0.24040  Biso   1.000  O
  O86      1.0000 0.19520  0.67700  0.24040  Biso   1.000  O
  O87      1.0000 0.30480  0.17700  0.25960  Biso   1.000  O
  O88      1.0000 0.80480  0.67700  0.25960  Biso   1.000  O
  O89      1.0000 0.26680  0.93520  0.88250  Biso   1.000  O
  O90      1.0000 0.76680  0.43520  0.88250  Biso   1.000  O
  O91      1.0000 0.73320  0.93520  0.61750  Biso   1.000  O
  O92      1.0000 0.23320  0.43520  0.61750  Biso   1.000  O
  O93      1.0000 0.73320  0.06480  0.11750  Biso   1.000  O
  O94      1.0000 0.23320  0.56480  0.11750  Biso   1.000  O
  O95      1.0000 0.26680  0.06480  0.38250  Biso   1.000  O
  O96      1.0000 0.76680  0.56480  0.38250  Biso   1.000  O
  O97      1.0000 0.02820  0.85930  0.86340  Biso   1.000  O
  O98      1.0000 0.52820  0.35930  0.86340  Biso   1.000  O
  O99      1.0000 0.97180  0.85930  0.63660  Biso   1.000  O
  O100     1.0000 0.47180  0.35930  0.63660  Biso   1.000  O
  O101     1.0000 0.97180  0.14070  0.13660  Biso   1.000  O
  O102     1.0000 0.47180  0.64070  0.13660  Biso   1.000  O
  O103     1.0000 0.02820  0.14070  0.36340  Biso   1.000  O
  O104     1.0000 0.52820  0.64070  0.36340  Biso   1.000  O
  O105     1.0000 0.25030  0.76830  0.94190  Biso   1.000  O
  O106     1.0000 0.75030  0.26830  0.94190  Biso   1.000  O
  O107     1.0000 0.74970  0.76830  0.55810  Biso   1.000  O
  O108     1.0000 0.24970  0.26830  0.55810  Biso   1.000  O
  O109     1.0000 0.74970  0.23170  0.05810  Biso   1.000  O
  O110     1.0000 0.24970  0.73170  0.05810  Biso   1.000  O
  O111     1.0000 0.25030  0.23170  0.44190  Biso   1.000  O
  O112     1.0000 0.75030  0.73170  0.44190  Biso   1.000  O
  O113     1.0000 0.87940  0.08050  0.83020  Biso   1.000  O
  O114     1.0000 0.37940  0.58050  0.83020  Biso   1.000  O
  O115     1.0000 0.12060  0.08050  0.66980  Biso   1.000  O
  O116     1.0000 0.62060  0.58050  0.66980  Biso   1.000  O
  O117     1.0000 0.12060  0.91950  0.16980  Biso   1.000  O
  O118     1.0000 0.62060  0.41950  0.16980  Biso   1.000  O
  O119     1.0000 0.87940  0.91950  0.33020  Biso   1.000  O
  O120     1.0000 0.37940  0.41950  0.33020  Biso   1.000  O
  O121     1.0000 0.97160  0.98360  0.80600  Biso   1.000  O
  O122     1.0000 0.47160  0.48360  0.80600  Biso   1.000  O
  O123     1.0000 0.02840  0.98360  0.69400  Biso   1.000  O
  O124     1.0000 0.52840  0.48360  0.69400  Biso   1.000  O
  O125     1.0000 0.02840  0.01640  0.19400  Biso   1.000  O
  O126     1.0000 0.52840  0.51640  0.19400  Biso   1.000  O
  O127     1.0000 0.97160  0.01640  0.30600  Biso   1.000  O
  O128     1.0000 0.47160  0.51640  0.30600  Biso   1.000  O
  O129     1.0000 0.18300  0.79700  0.80380  Biso   1.000  O
  O130     1.0000 0.68300  0.29700  0.80380  Biso   1.000  O
  O131     1.0000 0.81700  0.79700  0.69620  Biso   1.000  O
  O132     1.0000 0.31700  0.29700  0.69620  Biso   1.000  O
  O133     1.0000 0.81700  0.20300  0.19620  Biso   1.000  O
  O134     1.0000 0.31700  0.70300  0.19620  Biso   1.000  O
  O135     1.0000 0.18300  0.20300  0.30380  Biso   1.000  O
  O136     1.0000 0.68300  0.70300  0.30380  Biso   1.000  O
  O137     1.0000 0.01370  0.84460  0.79210  Biso   1.000  O
  O138     1.0000 0.51370  0.34460  0.79210  Biso   1.000  O
  O139     1.0000 0.98630  0.84460  0.70790  Biso   1.000  O
  O140     1.0000 0.48630  0.34460  0.70790  Biso   1.000  O
  O141     1.0000 0.98630  0.15540  0.20790  Biso   1.000  O
  O142     1.0000 0.48630  0.65540  0.20790  Biso   1.000  O
  O143     1.0000 0.01370  0.15540  0.29210  Biso   1.000  O
  O144     1.0000 0.51370  0.65540  0.29210  Biso   1.000  O
  O145     1.0000 0.94330  0.97300  0.87260  Biso   1.000  O
  O146     1.0000 0.44330  0.47300  0.87260  Biso   1.000  O
  O147     1.0000 0.05670  0.97300  0.62740  Biso   1.000  O
  O148     1.0000 0.55670  0.47300  0.62740  Biso   1.000  O
  O149     1.0000 0.05670  0.02700  0.12740  Biso   1.000  O
  O150     1.0000 0.55670  0.52700  0.12740  Biso   1.000  O
  O151     1.0000 0.94330  0.02700  0.37260  Biso   1.000  O
  O152     1.0000 0.44330  0.52700  0.37260  Biso   1.000  O
  O153     1.0000 0.09950  0.02860  0.76810  Biso   1.000  O
  O154     1.0000 0.59950  0.52860  0.76810  Biso   1.000  O
  O155     1.0000 0.90050  0.02860  0.73190  Biso   1.000  O
  O156     1.0000 0.40050  0.52860  0.73190  Biso   1.000  O
  O157     1.0000 0.90050  0.97140  0.23190  Biso   1.000  O
  O158     1.0000 0.40050  0.47140  0.23190  Biso   1.000  O
  O159     1.0000 0.09950  0.97140  0.26810  Biso   1.000  O
  O160     1.0000 0.59950  0.47140  0.26810  Biso   1.000  O
  O161     1.0000 0.34520  0.19740  0.88880  Biso   1.000  O
  O162     1.0000 0.84520  0.69740  0.88880  Biso   1.000  O
  O163     1.0000 0.65480  0.19740  0.61120  Biso   1.000  O
  O164     1.0000 0.15480  0.69740  0.61120  Biso   1.000  O
  O165     1.0000 0.65480  0.80260  0.11120  Biso   1.000  O
  O166     1.0000 0.15480  0.30260  0.11120  Biso   1.000  O
  O167     1.0000 0.34520  0.80260  0.38880  Biso   1.000  O
  O168     1.0000 0.84520  0.30260  0.38880  Biso   1.000  O
  O169     1.0000 0.23210  0.02720  0.83750  Biso   1.000  O
  O170     1.0000 0.73210  0.52720  0.83750  Biso   1.000  O
  O171     1.0000 0.76790  0.02720  0.66250  Biso   1.000  O
  O172     1.0000 0.26790  0.52720  0.66250  Biso   1.000  O
  O173     1.0000 0.76790  0.97280  0.16250  Biso   1.000  O
  O174     1.0000 0.26790  0.47280  0.16250  Biso   1.000  O
  O175     1.0000 0.23210  0.97280  0.33750  Biso   1.000  O
  O176     1.0000 0.73210  0.47280  0.33750  Biso   1.000  O
  O177     1.0000 0.29970  0.95310  0.78640  Biso   1.000  O
  O178     1.0000 0.79970  0.45310  0.78640  Biso   1.000  O
  O179     1.0000 0.70030  0.95310  0.71360  Biso   1.000  O
  O180     1.0000 0.20030  0.45310  0.71360  Biso   1.000  O
  O181     1.0000 0.70030  0.04690  0.21360  Biso   1.000  O
  O182     1.0000 0.20030  0.54690  0.21360  Biso   1.000  O
  O183     1.0000 0.29970  0.04690  0.28640  Biso   1.000  O
  O184     1.0000 0.79970  0.54690  0.28640  Biso   1.000  O
  O185     1.0000 0.35320  0.05860  0.90490  Biso   1.000  O
  O186     1.0000 0.85320  0.55860  0.90490  Biso   1.000  O
  O187     1.0000 0.64680  0.05860  0.59510  Biso   1.000  O
  O188     1.0000 0.14680  0.55860  0.59510  Biso   1.000  O
  O189     1.0000 0.64680  0.94140  0.09510  Biso   1.000  O
  O190     1.0000 0.14680  0.44140  0.09510  Biso   1.000  O
  O191     1.0000 0.35320  0.94140  0.40490  Biso   1.000  O
  O192     1.0000 0.85320  0.44140  0.40490  Biso   1.000  O
  O193     1.0000 0.13750  0.87690  0.92150  Biso   1.000  O
  O194     1.0000 0.63750  0.37690  0.92150  Biso   1.000  O
  O195     1.0000 0.86250  0.87690  0.57850  Biso   1.000  O
  O196     1.0000 0.36250  0.37690  0.57850  Biso   1.000  O
  O197     1.0000 0.86250  0.12310  0.07850  Biso   1.000  O
  O198     1.0000 0.36250  0.62310  0.07850  Biso   1.000  O
  O199     1.0000 0.13750  0.12310  0.42150  Biso   1.000  O
  O200     1.0000 0.63750  0.62310  0.42150  Biso   1.000  O
  O201     1.0000 0.10960  0.16350  0.76480  Biso   1.000  O
  O202     1.0000 0.60960  0.66350  0.76480  Biso   1.000  O
  O203     1.0000 0.89040  0.16350  0.73520  Biso   1.000  O
  O204     1.0000 0.39040  0.66350  0.73520  Biso   1.000  O
  O205     1.0000 0.89040  0.83650  0.23520  Biso   1.000  O
  O206     1.0000 0.39040  0.33650  0.23520  Biso   1.000  O
  O207     1.0000 0.10960  0.83650  0.26480  Biso   1.000  O
  O208     1.0000 0.60960  0.33650  0.26480  Biso   1.000  O
  O209     1.0000 0.11370  0.11600  0.95510  Biso   1.000  O
  O210     1.0000 0.61370  0.61600  0.95510  Biso   1.000  O
  O211     1.0000 0.88630  0.11600  0.54490  Biso   1.000  O
  O212     1.0000 0.38630  0.61600  0.54490  Biso   1.000  O
  O213     1.0000 0.88630  0.88400  0.04490  Biso   1.000  O
  O214     1.0000 0.38630  0.38400  0.04490  Biso   1.000  O
  O215     1.0000 0.11370  0.88400  0.45510  Biso   1.000  O
  O216     1.0000 0.61370  0.38400  0.45510  Biso   1.000  O
  O217     1.0000 0.41230  0.97210  0.84390  Biso   1.000  O
  O218     1.0000 0.91230  0.47210  0.84390  Biso   1.000  O
  O219     1.0000 0.58770  0.97210  0.65610  Biso   1.000  O
  O220     1.0000 0.08770  0.47210  0.65610  Biso   1.000  O
  O221     1.0000 0.58770  0.02790  0.15610  Biso   1.000  O
  O222     1.0000 0.08770  0.52790  0.15610  Biso   1.000  O
  O223     1.0000 0.41230  0.02790  0.34390  Biso   1.000  O
  O224     1.0000 0.91230  0.52790  0.34390  Biso   1.000  O
  O225     1.0000 0.02150  0.08800  0.88760  Biso   1.000  O
  O226     1.0000 0.52150  0.58800  0.88760  Biso   1.000  O
  O227     1.0000 0.97850  0.08800  0.61240  Biso   1.000  O
  O228     1.0000 0.47850  0.58800  0.61240  Biso   1.000  O
  O229     1.0000 0.97850  0.91200  0.11240  Biso   1.000  O
  O230     1.0000 0.47850  0.41200  0.11240  Biso   1.000  O
  O231     1.0000 0.02150  0.91200  0.38760  Biso   1.000  O
  O232     1.0000 0.52150  0.41200  0.38760  Biso   1.000  O
  O233     1.0000 0.31000  0.90150  0.94730  Biso   1.000  O
  O234     1.0000 0.81000  0.40150  0.94730  Biso   1.000  O
  O235     1.0000 0.69000  0.90150  0.55270  Biso   1.000  O
  O236     1.0000 0.19000  0.40150  0.55270  Biso   1.000  O
  O237     1.0000 0.69000  0.09850  0.05270  Biso   1.000  O
  O238     1.0000 0.19000  0.59850  0.05270  Biso   1.000  O
  O239     1.0000 0.31000  0.09850  0.44730  Biso   1.000  O
  O240     1.0000 0.81000  0.59850  0.44730  Biso   1.000  O
  O241     1.0000 0.14950  0.89410  0.75310  Biso   1.000  O
  O242     1.0000 0.64950  0.39410  0.75310  Biso   1.000  O
  O243     1.0000 0.85050  0.89410  0.74690  Biso   1.000  O
  O244     1.0000 0.35050  0.39410  0.74690  Biso   1.000  O
  O245     1.0000 0.85050  0.10590  0.24690  Biso   1.000  O
  O246     1.0000 0.35050  0.60590  0.24690  Biso   1.000  O
  O247     1.0000 0.14950  0.10590  0.25310  Biso   1.000  O
  O248     1.0000 0.64950  0.60590  0.25310  Biso   1.000  O
  O249     1.0000 0.19810  0.11870  0.89560  Biso   1.000  O
  O250     1.0000 0.69810  0.61870  0.89560  Biso   1.000  O
  O251     1.0000 0.80190  0.11870  0.60440  Biso   1.000  O
  O252     1.0000 0.30190  0.61870  0.60440  Biso   1.000  O
  O253     1.0000 0.80190  0.88130  0.10440  Biso   1.000  O
  O254     1.0000 0.30190  0.38130  0.10440  Biso   1.000  O
  O255     1.0000 0.19810  0.88130  0.39560  Biso   1.000  O
  O256     1.0000 0.69810  0.38130  0.39560  Biso   1.000  O
  O257     1.0000 0.04920  0.73590  0.83190  Biso   1.000  O
  O258     1.0000 0.54920  0.23590  0.83190  Biso   1.000  O
  O259     1.0000 0.95080  0.73590  0.66810  Biso   1.000  O
  O260     1.0000 0.45080  0.23590  0.66810  Biso   1.000  O
  O261     1.0000 0.95080  0.26410  0.16810  Biso   1.000  O
  O262     1.0000 0.45080  0.76410  0.16810  Biso   1.000  O
  O263     1.0000 0.04920  0.26410  0.33190  Biso   1.000  O
  O264     1.0000 0.54920  0.76410  0.33190  Biso   1.000  O
  O265     1.0000 0.40780  0.01300  0.97320  Biso   1.000  O
  O266     1.0000 0.90780  0.51300  0.97320  Biso   1.000  O
  O267     1.0000 0.59220  0.01300  0.52680  Biso   1.000  O
  O268     1.0000 0.09220  0.51300  0.52680  Biso   1.000  O
  O269     1.0000 0.59220  0.98700  0.02680  Biso   1.000  O
  O270     1.0000 0.09220  0.48700  0.02680  Biso   1.000  O
  O271     1.0000 0.40780  0.98700  0.47320  Biso   1.000  O
  O272     1.0000 0.90780  0.48700  0.47320  Biso   1.000  O
  O273     1.0000 0.44530  0.04190  0.78570  Biso   1.000  O
  O274     1.0000 0.94530  0.54190  0.78570  Biso   1.000  O
  O275     1.0000 0.55470  0.04190  0.71430  Biso   1.000  O
  O276     1.0000 0.05470  0.54190  0.71430  Biso   1.000  O
  O277     1.0000 0.55470  0.95810  0.21430  Biso   1.000  O
  O278     1.0000 0.05470  0.45810  0.21430  Biso   1.000  O
  O279     1.0000 0.44530  0.95810  0.28570  Biso   1.000  O
  O280     1.0000 0.94530  0.45810  0.28570  Biso   1.000  O
  O281     1.0000 0.37480  0.09950  0.84260  Biso   1.000  O
  O282     1.0000 0.87480  0.59950  0.84260  Biso   1.000  O
  O283     1.0000 0.62520  0.09950  0.65740  Biso   1.000  O
  O284     1.0000 0.12520  0.59950  0.65740  Biso   1.000  O
  O285     1.0000 0.62520  0.90050  0.15740  Biso   1.000  O
  O286     1.0000 0.12520  0.40050  0.15740  Biso   1.000  O
  O287     1.0000 0.37480  0.90050  0.34260  Biso   1.000  O
  O288     1.0000 0.87480  0.40050  0.34260  Biso   1.000  O
  O289     1.0000 0.33450  0.85500  0.83050  Biso   1.000  O
  O290     1.0000 0.83450  0.35500  0.83050  Biso   1.000  O
  O291     1.0000 0.66550  0.85500  0.66950  Biso   1.000  O
  O292     1.0000 0.16550  0.35500  0.66950  Biso   1.000  O
  O293     1.0000 0.66550  0.14500  0.16950  Biso   1.000  O
  O294     1.0000 0.16550  0.64500  0.16950  Biso   1.000  O
  O295     1.0000 0.33450  0.14500  0.33050  Biso   1.000  O
  O296     1.0000 0.83450  0.64500  0.33050  Biso   1.000  O
  O297     1.0000 0.43050  0.94370  0.91260  Biso   1.000  O
  O298     1.0000 0.93050  0.44370  0.91260  Biso   1.000  O
  O299     1.0000 0.56950  0.94370  0.58740  Biso   1.000  O
  O300     1.0000 0.06950  0.44370  0.58740  Biso   1.000  O
  O301     1.0000 0.56950  0.05630  0.08740  Biso   1.000  O
  O302     1.0000 0.06950  0.55630  0.08740  Biso   1.000  O
  O303     1.0000 0.43050  0.05630  0.41260  Biso   1.000  O
  O304     1.0000 0.93050  0.55630  0.41260  Biso   1.000  O
  O305     1.0000 0.35790  0.82700  0.89870  Biso   1.000  O
  O306     1.0000 0.85790  0.32700  0.89870  Biso   1.000  O
  O307     1.0000 0.64210  0.82700  0.60130  Biso   1.000  O
  O308     1.0000 0.14210  0.32700  0.60130  Biso   1.000  O
  O309     1.0000 0.64210  0.17300  0.10130  Biso   1.000  O
  O310     1.0000 0.14210  0.67300  0.10130  Biso   1.000  O
  O311     1.0000 0.35790  0.17300  0.39870  Biso   1.000  O
  O312     1.0000 0.85790  0.67300  0.39870  Biso   1.000  O
  O313     1.0000 0.26950  0.08600  0.78170  Biso   1.000  O
  O314     1.0000 0.76950  0.58600  0.78170  Biso   1.000  O
  O315     1.0000 0.73050  0.08600  0.71830  Biso   1.000  O
  O316     1.0000 0.23050  0.58600  0.71830  Biso   1.000  O
  O317     1.0000 0.73050  0.91400  0.21830  Biso   1.000  O
  O318     1.0000 0.23050  0.41400  0.21830  Biso   1.000  O
  O319     1.0000 0.26950  0.91400  0.28170  Biso   1.000  O
  O320     1.0000 0.76950  0.41400  0.28170  Biso   1.000  O
  O321     1.0000 0.50820  0.85720  0.86740  Biso   1.000  O
  O322     1.0000 0.00820  0.35720  0.86740  Biso   1.000  O
  O323     1.0000 0.49180  0.85720  0.63260  Biso   1.000  O
  O324     1.0000 0.99180  0.35720  0.63260  Biso   1.000  O
  O325     1.0000 0.49180  0.14280  0.13260  Biso   1.000  O
  O326     1.0000 0.99180  0.64280  0.13260  Biso   1.000  O
  O327     1.0000 0.50820  0.14280  0.36740  Biso   1.000  O
  O328     1.0000 0.00820  0.64280  0.36740  Biso   1.000  O
