data_image0
_cell_length_a       8.6624
_cell_length_b       9.8659
_cell_length_c       10.6864
_cell_angle_alpha    62.988
_cell_angle_beta     84.045
_cell_angle_gamma    78.236

_symmetry_space_group_name_H-M    "P 1"
_symmetry_int_tables_number       1

loop_
  _symmetry_equiv_pos_as_xyz
  'x, y, z'

loop_
  _atom_site_label
  _atom_site_occupancy
  _atom_site_fract_x
  _atom_site_fract_y
  _atom_site_fract_z
  _atom_site_thermal_displace_type
  _atom_site_B_iso_or_equiv
  _atom_site_type_symbol
  Cu1      1.0000 0.00000  0.00000  0.50000  Biso   1.000  Cu
  K1       1.0000 0.83575  0.35268  0.60618  Biso   1.000  K
  K2       1.0000 0.16425  0.64732  0.39382  Biso   1.000  K
  S1       1.0000 0.78333  0.35105  0.95671  Biso   1.000  S
  S2       1.0000 0.21667  0.64895  0.04329  Biso   1.000  S
  S3       1.0000 0.28159  0.06521  0.21222  Biso   1.000  S
  S4       1.0000 0.71841  0.93479  0.78778  Biso   1.000  S
  O1       1.0000 0.65088  0.47293  0.89464  Biso   1.000  O
  O2       1.0000 0.34912  0.52707  0.10536  Biso   1.000  O
  O3       1.0000 0.90705  0.32103  0.86692  Biso   1.000  O
  O4       1.0000 0.09295  0.67897  0.13308  Biso   1.000  O
  O5       1.0000 0.69723  0.27243  0.41460  Biso   1.000  O
  O6       1.0000 0.30277  0.72757  0.58540  Biso   1.000  O
  O7       1.0000 0.89482  0.15714  0.32546  Biso   1.000  O
  O8       1.0000 0.10518  0.84286  0.67454  Biso   1.000  O
  O9       1.0000 0.23198  0.93098  0.22130  Biso   1.000  O
  O10      1.0000 0.76802  0.06902  0.77870  Biso   1.000  O
  O11      1.0000 0.20302  0.21665  0.12005  Biso   1.000  O
  O12      1.0000 0.79698  0.78335  0.87995  Biso   1.000  O
  O13      1.0000 0.05414  0.16261  0.53032  Biso   1.000  O
  O14      1.0000 0.94586  0.83739  0.46968  Biso   1.000  O
  O15      1.0000 0.18270  0.34930  0.48856  Biso   1.000  O
  O16      1.0000 0.81730  0.65070  0.51144  Biso   1.000  O
  N1       1.0000 0.86593  0.38804  0.06276  Biso   1.000  N
  N2       1.0000 0.13407  0.61196  0.93724  Biso   1.000  N
  N3       1.0000 0.26708  0.04918  0.37141  Biso   1.000  N
  N4       1.0000 0.73292  0.95082  0.62859  Biso   1.000  N
  C1       1.0000 0.70432  0.17922  0.05586  Biso   1.000  C
  C2       1.0000 0.29568  0.82078  0.94414  Biso   1.000  C
  C3       1.0000 0.80366  0.03588  0.10098  Biso   1.000  C
  C4       1.0000 0.19634  0.96412  0.89902  Biso   1.000  C
  H1       1.0000 0.91130  0.03020  0.08150  Biso   1.000  H
  H2       1.0000 0.08870  0.96980  0.91850  Biso   1.000  H
  C5       1.0000 0.74130  0.90267  0.17463  Biso   1.000  C
  C6       1.0000 0.25870  0.09733  0.82537  Biso   1.000  C
  H3       1.0000 0.80690  0.80690  0.20250  Biso   1.000  H
  H4       1.0000 0.19310  0.19310  0.79750  Biso   1.000  H
  C7       1.0000 0.58140  0.91040  0.20755  Biso   1.000  C
  C8       1.0000 0.41860  0.08960  0.79245  Biso   1.000  C
  H5       1.0000 0.53950  0.82050  0.25750  Biso   1.000  H
  H6       1.0000 0.46050  0.17950  0.74250  Biso   1.000  H
  C9       1.0000 0.48469  0.05442  0.16484  Biso   1.000  C
  C10      1.0000 0.51531  0.94558  0.83516  Biso   1.000  C
  C11      1.0000 0.54378  0.19047  0.08740  Biso   1.000  C
  C12      1.0000 0.45622  0.80953  0.91260  Biso   1.000  C
  H7       1.0000 0.47790  0.28630  0.05750  Biso   1.000  H
  H8       1.0000 0.52210  0.71370  0.94250  Biso   1.000  H
  C13      1.0000 0.77210  0.41154  0.17472  Biso   1.000  C
  C14      1.0000 0.22790  0.58846  0.82528  Biso   1.000  C
  H9       1.0000 0.66210  0.44340  0.14790  Biso   1.000  H
  H10      1.0000 0.33790  0.55660  0.85210  Biso   1.000  H
  H11      1.0000 0.80370  0.49500  0.18460  Biso   1.000  H
  H12      1.0000 0.19630  0.50500  0.81540  Biso   1.000  H
  C15      1.0000 0.78751  0.26803  0.31727  Biso   1.000  C
  C16      1.0000 0.21249  0.73197  0.68273  Biso   1.000  C
  C17      1.0000 0.29910  0.17579  0.39687  Biso   1.000  C
  C18      1.0000 0.70090  0.82421  0.60313  Biso   1.000  C
  H13      1.0000 0.31560  0.26160  0.30710  Biso   1.000  H
  H14      1.0000 0.68440  0.73840  0.69290  Biso   1.000  H
  H15      1.0000 0.39600  0.14050  0.44930  Biso   1.000  H
  H16      1.0000 0.60400  0.85950  0.55070  Biso   1.000  H
  C19      1.0000 0.16800  0.23383  0.47727  Biso   1.000  C
  C20      1.0000 0.83200  0.76617  0.52273  Biso   1.000  C
  H17      1.0000 0.30080  0.96780  0.42110  Biso   1.000  H
  H18      1.0000 0.69920  0.03220  0.57890  Biso   1.000  H
  H19      1.0000 0.94600  0.33200  0.08760  Biso   1.000  H
  H20      1.0000 0.05400  0.66800  0.91240  Biso   1.000  H
  O17      1.0000 0.51820  0.44220  0.65100  Biso   1.000  O
  O18      1.0000 0.48180  0.55780  0.34900  Biso   1.000  O
  H21      1.0000 0.51060  0.53230  0.65170  Biso   1.000  H
  H22      1.0000 0.48940  0.46770  0.34830  Biso   1.000  H
  H23      1.0000 0.49050  0.46150  0.55860  Biso   1.000  H
  H24      1.0000 0.50950  0.53850  0.44140  Biso   1.000  H
