data_image0
_cell_length_a       11.5342
_cell_length_b       20.5261
_cell_length_c       19.3153
_cell_angle_alpha    90
_cell_angle_beta     126.053
_cell_angle_gamma    90

_symmetry_space_group_name_H-M    "P 1"
_symmetry_int_tables_number       1

loop_
  _symmetry_equiv_pos_as_xyz
  'x, y, z'

loop_
  _atom_site_label
  _atom_site_occupancy
  _atom_site_fract_x
  _atom_site_fract_y
  _atom_site_fract_z
  _atom_site_thermal_displace_type
  _atom_site_B_iso_or_equiv
  _atom_site_type_symbol
  Cu1      1.0000 0.49412  0.83720  0.75623  Biso   1.000  Cu
  Cu2      1.0000 0.50588  0.33720  0.74377  Biso   1.000  Cu
  Cu3      1.0000 0.50588  0.16280  0.24377  Biso   1.000  Cu
  Cu4      1.0000 0.49412  0.66280  0.25623  Biso   1.000  Cu
  Cu5      1.0000 0.04598  0.19085  0.30106  Biso   1.000  Cu
  Cu6      1.0000 0.95402  0.69085  0.19894  Biso   1.000  Cu
  Cu7      1.0000 0.95402  0.80915  0.69894  Biso   1.000  Cu
  Cu8      1.0000 0.04598  0.30915  0.80106  Biso   1.000  Cu
  O1       1.0000 0.37380  0.75923  0.71787  Biso   1.000  O
  O2       1.0000 0.62620  0.25923  0.78213  Biso   1.000  O
  O3       1.0000 0.62620  0.24077  0.28213  Biso   1.000  O
  O4       1.0000 0.37380  0.74077  0.21787  Biso   1.000  O
  O5       1.0000 0.58490  0.71082  0.79720  Biso   1.000  O
  O6       1.0000 0.41510  0.21082  0.70280  Biso   1.000  O
  O7       1.0000 0.41510  0.28918  0.20280  Biso   1.000  O
  O8       1.0000 0.58490  0.78918  0.29720  Biso   1.000  O
  O9       1.0000 0.58280  0.46232  0.77830  Biso   1.000  O
  O10      1.0000 0.41720  0.96232  0.72170  Biso   1.000  O
  O11      1.0000 0.41720  0.53768  0.22170  Biso   1.000  O
  O12      1.0000 0.58280  0.03768  0.27830  Biso   1.000  O
  O13      1.0000 0.37230  0.41220  0.70333  Biso   1.000  O
  O14      1.0000 0.62770  0.91220  0.79667  Biso   1.000  O
  O15      1.0000 0.62770  0.58780  0.29667  Biso   1.000  O
  O16      1.0000 0.37230  0.08780  0.20333  Biso   1.000  O
  O17      1.0000 0.02440  0.58608  0.51647  Biso   1.000  O
  O18      1.0000 0.97560  0.08608  0.98353  Biso   1.000  O
  O19      1.0000 0.97560  0.41392  0.48353  Biso   1.000  O
  O20      1.0000 0.02440  0.91392  0.01647  Biso   1.000  O
  O21      1.0000 0.14720  0.10758  0.32417  Biso   1.000  O
  O22      1.0000 0.85280  0.60758  0.17583  Biso   1.000  O
  O23      1.0000 0.85280  0.89242  0.67583  Biso   1.000  O
  O24      1.0000 0.14720  0.39242  0.82417  Biso   1.000  O
  O25      1.0000 0.93060  0.06244  0.24770  Biso   1.000  O
  O26      1.0000 0.06940  0.56244  0.25230  Biso   1.000  O
  O27      1.0000 0.06940  0.93756  0.75230  Biso   1.000  O
  O28      1.0000 0.93060  0.43756  0.74770  Biso   1.000  O
  O29      1.0000 0.91790  0.83827  0.12850  Biso   1.000  O
  O30      1.0000 0.08210  0.33827  0.37150  Biso   1.000  O
  O31      1.0000 0.08210  0.16173  0.87150  Biso   1.000  O
  O32      1.0000 0.91790  0.66173  0.62850  Biso   1.000  O
  O33      1.0000 0.07040  0.76985  0.23500  Biso   1.000  O
  O34      1.0000 0.92960  0.26985  0.26500  Biso   1.000  O
  O35      1.0000 0.92960  0.23015  0.76500  Biso   1.000  O
  O36      1.0000 0.07040  0.73015  0.73500  Biso   1.000  O
  O37      1.0000 0.48420  0.91997  0.44824  Biso   1.000  O
  O38      1.0000 0.51580  0.41997  0.05176  Biso   1.000  O
  O39      1.0000 0.51580  0.08003  0.55176  Biso   1.000  O
  O40      1.0000 0.48420  0.58003  0.94824  Biso   1.000  O
  N1       1.0000 0.97830  0.67291  0.42180  Biso   1.000  N
  N2       1.0000 0.02170  0.17291  0.07820  Biso   1.000  N
  N3       1.0000 0.02170  0.32709  0.57820  Biso   1.000  N
  N4       1.0000 0.97830  0.82709  0.92180  Biso   1.000  N
  N5       1.0000 0.07410  0.72314  0.44790  Biso   1.000  N
  N6       1.0000 0.92590  0.22314  0.05210  Biso   1.000  N
  N7       1.0000 0.92590  0.27686  0.55210  Biso   1.000  N
  N8       1.0000 0.07410  0.77686  0.94790  Biso   1.000  N
  N9       1.0000 0.98120  0.69411  0.31190  Biso   1.000  N
  N10      1.0000 0.01880  0.19411  0.18810  Biso   1.000  N
  N11      1.0000 0.01880  0.30589  0.68810  Biso   1.000  N
  N12      1.0000 0.98120  0.80589  0.81190  Biso   1.000  N
  N13      1.0000 0.49170  0.84363  0.54210  Biso   1.000  N
  N14      1.0000 0.50830  0.34363  0.95790  Biso   1.000  N
  N15      1.0000 0.50830  0.15637  0.45790  Biso   1.000  N
  N16      1.0000 0.49170  0.65637  0.04210  Biso   1.000  N
  N17      1.0000 0.37260  0.80592  0.50980  Biso   1.000  N
  N18      1.0000 0.62740  0.30592  0.99020  Biso   1.000  N
  N19      1.0000 0.62740  0.19408  0.49020  Biso   1.000  N
  N20      1.0000 0.37260  0.69408  0.00980  Biso   1.000  N
  N21      1.0000 0.47210  0.83302  0.64690  Biso   1.000  N
  N22      1.0000 0.52790  0.33302  0.85310  Biso   1.000  N
  N23      1.0000 0.52790  0.16698  0.35310  Biso   1.000  N
  N24      1.0000 0.47210  0.66698  0.14690  Biso   1.000  N
  N25      1.0000 0.48610  0.84455  0.85430  Biso   1.000  N
  N26      1.0000 0.51390  0.34455  0.64570  Biso   1.000  N
  N27      1.0000 0.51390  0.15545  0.14570  Biso   1.000  N
  N28      1.0000 0.48610  0.65545  0.35430  Biso   1.000  N
  N29      1.0000 0.51920  0.87770  0.97180  Biso   1.000  N
  N30      1.0000 0.48080  0.37770  0.52820  Biso   1.000  N
  N31      1.0000 0.48080  0.12230  0.02820  Biso   1.000  N
  N32      1.0000 0.51920  0.62230  0.47180  Biso   1.000  N
  N33      1.0000 0.03360  0.17481  0.39810  Biso   1.000  N
  N34      1.0000 0.96640  0.67481  0.10190  Biso   1.000  N
  N35      1.0000 0.96640  0.82519  0.60190  Biso   1.000  N
  N36      1.0000 0.03360  0.32519  0.89810  Biso   1.000  N
  N37      1.0000 0.96960  0.12572  0.47160  Biso   1.000  N
  N38      1.0000 0.03040  0.62572  0.02840  Biso   1.000  N
  N39      1.0000 0.03040  0.87428  0.52840  Biso   1.000  N
  N40      1.0000 0.96960  0.37428  0.97160  Biso   1.000  N
  C1       1.0000 0.37660  0.64541  0.70310  Biso   1.000  C
  C2       1.0000 0.62340  0.14541  0.79690  Biso   1.000  C
  C3       1.0000 0.62340  0.35459  0.29690  Biso   1.000  C
  C4       1.0000 0.37660  0.85459  0.20310  Biso   1.000  C
  C5       1.0000 0.44570  0.58640  0.73420  Biso   1.000  C
  C6       1.0000 0.55430  0.08640  0.76580  Biso   1.000  C
  C7       1.0000 0.55430  0.41360  0.26580  Biso   1.000  C
  C8       1.0000 0.44570  0.91360  0.23420  Biso   1.000  C
  H1       1.0000 0.54140  0.58530  0.78120  Biso   1.000  H
  H2       1.0000 0.45860  0.08530  0.71880  Biso   1.000  H
  H3       1.0000 0.45860  0.41470  0.21880  Biso   1.000  H
  H4       1.0000 0.54140  0.91470  0.28120  Biso   1.000  H
  C9       1.0000 0.37300  0.52830  0.69550  Biso   1.000  C
  C10      1.0000 0.62700  0.02830  0.80450  Biso   1.000  C
  C11      1.0000 0.62700  0.47170  0.30450  Biso   1.000  C
  C12      1.0000 0.37300  0.97170  0.19550  Biso   1.000  C
  C13      1.0000 0.23110  0.53080  0.62370  Biso   1.000  C
  C14      1.0000 0.76890  0.03080  0.87630  Biso   1.000  C
  C15      1.0000 0.76890  0.46920  0.37630  Biso   1.000  C
  C16      1.0000 0.23110  0.96920  0.12370  Biso   1.000  C
  H5       1.0000 0.18100  0.49230  0.59820  Biso   1.000  H
  H6       1.0000 0.81900  0.99230  0.90180  Biso   1.000  H
  H7       1.0000 0.81900  0.50770  0.40180  Biso   1.000  H
  H8       1.0000 0.18100  0.00770  0.09820  Biso   1.000  H
  C17      1.0000 0.16370  0.59030  0.59000  Biso   1.000  C
  C18      1.0000 0.83630  0.09030  0.91000  Biso   1.000  C
  C19      1.0000 0.83630  0.40970  0.41000  Biso   1.000  C
  C20      1.0000 0.16370  0.90970  0.09000  Biso   1.000  C
  C21      1.0000 0.23540  0.64730  0.63020  Biso   1.000  C
  C22      1.0000 0.76460  0.14730  0.86980  Biso   1.000  C
  C23      1.0000 0.76460  0.35270  0.36980  Biso   1.000  C
  C24      1.0000 0.23540  0.85270  0.13020  Biso   1.000  C
  H9       1.0000 0.18930  0.68720  0.60870  Biso   1.000  H
  H10      1.0000 0.81070  0.18720  0.89130  Biso   1.000  H
  H11      1.0000 0.81070  0.31280  0.39130  Biso   1.000  H
  H12      1.0000 0.18930  0.81280  0.10870  Biso   1.000  H
  C25      1.0000 0.45340  0.70860  0.74350  Biso   1.000  C
  C26      1.0000 0.54660  0.20860  0.75650  Biso   1.000  C
  C27      1.0000 0.54660  0.29140  0.25650  Biso   1.000  C
  C28      1.0000 0.45340  0.79140  0.24350  Biso   1.000  C
  C29      1.0000 0.44900  0.46420  0.72900  Biso   1.000  C
  C30      1.0000 0.55100  0.96420  0.77100  Biso   1.000  C
  C31      1.0000 0.55100  0.53580  0.27100  Biso   1.000  C
  C32      1.0000 0.44900  0.03580  0.22900  Biso   1.000  C
  C33      1.0000 0.94650  0.64380  0.47720  Biso   1.000  C
  C34      1.0000 0.05350  0.14380  0.02280  Biso   1.000  C
  C35      1.0000 0.05350  0.35620  0.52280  Biso   1.000  C
  C36      1.0000 0.94650  0.85620  0.97720  Biso   1.000  C
  H13      1.0000 0.96860  0.67490  0.52130  Biso   1.000  H
  H14      1.0000 0.03140  0.17490  0.97870  Biso   1.000  H
  H15      1.0000 0.03140  0.32510  0.47870  Biso   1.000  H
  H16      1.0000 0.96860  0.82510  0.02130  Biso   1.000  H
  H17      1.0000 0.84480  0.63420  0.44390  Biso   1.000  H
  H18      1.0000 0.15520  0.13420  0.05610  Biso   1.000  H
  H19      1.0000 0.15520  0.36580  0.55610  Biso   1.000  H
  H20      1.0000 0.84480  0.86580  0.94390  Biso   1.000  H
  C37      1.0000 0.07010  0.73390  0.38010  Biso   1.000  C
  C38      1.0000 0.92990  0.23390  0.11990  Biso   1.000  C
  C39      1.0000 0.92990  0.26610  0.61990  Biso   1.000  C
  C40      1.0000 0.07010  0.76610  0.88010  Biso   1.000  C
  H21      1.0000 0.12420  0.76650  0.37820  Biso   1.000  H
  H22      1.0000 0.87580  0.26650  0.12180  Biso   1.000  H
  H23      1.0000 0.87580  0.23350  0.62180  Biso   1.000  H
  H24      1.0000 0.12420  0.73350  0.87820  Biso   1.000  H
  C41      1.0000 0.92560  0.65650  0.34130  Biso   1.000  C
  C42      1.0000 0.07440  0.15650  0.15870  Biso   1.000  C
  C43      1.0000 0.07440  0.34350  0.65870  Biso   1.000  C
  C44      1.0000 0.92560  0.84350  0.84130  Biso   1.000  C
  H25      1.0000 0.85940  0.62330  0.31040  Biso   1.000  H
  H26      1.0000 0.14060  0.12330  0.18960  Biso   1.000  H
  H27      1.0000 0.14060  0.37670  0.68960  Biso   1.000  H
  H28      1.0000 0.85940  0.87670  0.81040  Biso   1.000  H
  C45      1.0000 0.13270  0.99367  0.30220  Biso   1.000  C
  C46      1.0000 0.86730  0.49367  0.19780  Biso   1.000  C
  C47      1.0000 0.86730  0.00633  0.69780  Biso   1.000  C
  C48      1.0000 0.13270  0.50633  0.80220  Biso   1.000  C
  C49      1.0000 0.05420  0.94259  0.24710  Biso   1.000  C
  C50      1.0000 0.94580  0.44259  0.25290  Biso   1.000  C
  C51      1.0000 0.94580  0.05741  0.75290  Biso   1.000  C
  C52      1.0000 0.05420  0.55741  0.74710  Biso   1.000  C
  H29      1.0000 0.95870  0.94900  0.20150  Biso   1.000  H
  H30      1.0000 0.04130  0.44900  0.29850  Biso   1.000  H
  H31      1.0000 0.04130  0.05100  0.79850  Biso   1.000  H
  H32      1.0000 0.95870  0.55100  0.70150  Biso   1.000  H
  C53      1.0000 0.11660  0.88180  0.25940  Biso   1.000  C
  C54      1.0000 0.88340  0.38180  0.24060  Biso   1.000  C
  C55      1.0000 0.88340  0.11820  0.74060  Biso   1.000  C
  C56      1.0000 0.11660  0.61820  0.75940  Biso   1.000  C
  C57      1.0000 0.25880  0.87227  0.32780  Biso   1.000  C
  C58      1.0000 0.74120  0.37227  0.17220  Biso   1.000  C
  C59      1.0000 0.74120  0.12773  0.67220  Biso   1.000  C
  C60      1.0000 0.25880  0.62773  0.82780  Biso   1.000  C
  H33      1.0000 0.30040  0.83130  0.33760  Biso   1.000  H
  H34      1.0000 0.69960  0.33130  0.16240  Biso   1.000  H
  H35      1.0000 0.69960  0.16870  0.66240  Biso   1.000  H
  H36      1.0000 0.30040  0.66870  0.83760  Biso   1.000  H
  C61      1.0000 0.33830  0.92370  0.38120  Biso   1.000  C
  C62      1.0000 0.66170  0.42370  0.11880  Biso   1.000  C
  C63      1.0000 0.66170  0.07630  0.61880  Biso   1.000  C
  C64      1.0000 0.33830  0.57630  0.88120  Biso   1.000  C
  C65      1.0000 0.27550  0.98370  0.36940  Biso   1.000  C
  C66      1.0000 0.72450  0.48370  0.13060  Biso   1.000  C
  C67      1.0000 0.72450  0.01630  0.63060  Biso   1.000  C
  C68      1.0000 0.27550  0.51630  0.86940  Biso   1.000  C
  H37      1.0000 0.32910  0.01770  0.40680  Biso   1.000  H
  H38      1.0000 0.67090  0.51770  0.09320  Biso   1.000  H
  H39      1.0000 0.67090  0.98230  0.59320  Biso   1.000  H
  H40      1.0000 0.32910  0.48230  0.90680  Biso   1.000  H
  C69      1.0000 0.06200  0.05860  0.28920  Biso   1.000  C
  C70      1.0000 0.93800  0.55860  0.21080  Biso   1.000  C
  C71      1.0000 0.93800  0.94140  0.71080  Biso   1.000  C
  C72      1.0000 0.06200  0.44140  0.78920  Biso   1.000  C
  C73      1.0000 0.02660  0.82610  0.20100  Biso   1.000  C
  C74      1.0000 0.97340  0.32610  0.29900  Biso   1.000  C
  C75      1.0000 0.97340  0.17390  0.79900  Biso   1.000  C
  C76      1.0000 0.02660  0.67390  0.70100  Biso   1.000  C
  C77      1.0000 0.54050  0.86000  0.49060  Biso   1.000  C
  C78      1.0000 0.45950  0.36000  0.00940  Biso   1.000  C
  C79      1.0000 0.45950  0.14000  0.50940  Biso   1.000  C
  C80      1.0000 0.54050  0.64000  0.99060  Biso   1.000  C
  H41      1.0000 0.64440  0.86230  0.52690  Biso   1.000  H
  H42      1.0000 0.35560  0.36230  0.97310  Biso   1.000  H
  H43      1.0000 0.35560  0.13770  0.47310  Biso   1.000  H
  H44      1.0000 0.64440  0.63770  0.02690  Biso   1.000  H
  H45      1.0000 0.51170  0.82600  0.44850  Biso   1.000  H
  H46      1.0000 0.48830  0.32600  0.05150  Biso   1.000  H
  H47      1.0000 0.48830  0.17400  0.55150  Biso   1.000  H
  H48      1.0000 0.51170  0.67400  0.94850  Biso   1.000  H
  C81      1.0000 0.36660  0.80070  0.57480  Biso   1.000  C
  C82      1.0000 0.63340  0.30070  0.92520  Biso   1.000  C
  C83      1.0000 0.63340  0.19930  0.42520  Biso   1.000  C
  C84      1.0000 0.36660  0.69930  0.07480  Biso   1.000  C
  H49      1.0000 0.29580  0.77670  0.57230  Biso   1.000  H
  H50      1.0000 0.70420  0.27670  0.92770  Biso   1.000  H
  H51      1.0000 0.70420  0.22330  0.42770  Biso   1.000  H
  H52      1.0000 0.29580  0.72330  0.07230  Biso   1.000  H
  C85      1.0000 0.54780  0.85930  0.62240  Biso   1.000  C
  C86      1.0000 0.45220  0.35930  0.87760  Biso   1.000  C
  C87      1.0000 0.45220  0.14070  0.37760  Biso   1.000  C
  C88      1.0000 0.54780  0.64070  0.12240  Biso   1.000  C
  H53      1.0000 0.62880  0.88510  0.65680  Biso   1.000  H
  H54      1.0000 0.37120  0.38510  0.84320  Biso   1.000  H
  H55      1.0000 0.37120  0.11490  0.34320  Biso   1.000  H
  H56      1.0000 0.62880  0.61490  0.15680  Biso   1.000  H
  C89      1.0000 0.56770  0.87910  0.92510  Biso   1.000  C
  C90      1.0000 0.43230  0.37910  0.57490  Biso   1.000  C
  C91      1.0000 0.43230  0.12090  0.07490  Biso   1.000  C
  C92      1.0000 0.56770  0.62090  0.42510  Biso   1.000  C
  H57      1.0000 0.64940  0.90160  0.94000  Biso   1.000  H
  H58      1.0000 0.35060  0.40160  0.56000  Biso   1.000  H
  H59      1.0000 0.35060  0.09840  0.06000  Biso   1.000  H
  H60      1.0000 0.64940  0.59840  0.44000  Biso   1.000  H
  C93      1.0000 0.39930  0.83970  0.92930  Biso   1.000  C
  C94      1.0000 0.60070  0.33970  0.57070  Biso   1.000  C
  C95      1.0000 0.60070  0.16030  0.07070  Biso   1.000  C
  C96      1.0000 0.39930  0.66030  0.42930  Biso   1.000  C
  H61      1.0000 0.34150  0.83010  0.94690  Biso   1.000  H
  H62      1.0000 0.65850  0.33010  0.55310  Biso   1.000  H
  H63      1.0000 0.65850  0.16990  0.05310  Biso   1.000  H
  H64      1.0000 0.34150  0.66990  0.44690  Biso   1.000  H
  C97      1.0000 0.38020  0.81860  0.85800  Biso   1.000  C
  C98      1.0000 0.61980  0.31860  0.64200  Biso   1.000  C
  C99      1.0000 0.61980  0.18140  0.14200  Biso   1.000  C
  C100     1.0000 0.38020  0.68140  0.35800  Biso   1.000  C
  H65      1.0000 0.30730  0.79110  0.81750  Biso   1.000  H
  H66      1.0000 0.69270  0.29110  0.68250  Biso   1.000  H
  H67      1.0000 0.69270  0.20890  0.18250  Biso   1.000  H
  H68      1.0000 0.30730  0.70890  0.31750  Biso   1.000  H
  C101     1.0000 0.57760  0.91650  0.05180  Biso   1.000  C
  C102     1.0000 0.42240  0.41650  0.44820  Biso   1.000  C
  C103     1.0000 0.42240  0.08350  0.94820  Biso   1.000  C
  C104     1.0000 0.57760  0.58350  0.55180  Biso   1.000  C
  C105     1.0000 0.49170  0.97800  0.03020  Biso   1.000  C
  C106     1.0000 0.50830  0.47800  0.46980  Biso   1.000  C
  C107     1.0000 0.50830  0.02200  0.96980  Biso   1.000  C
  C108     1.0000 0.49170  0.52200  0.53020  Biso   1.000  C
  C109     1.0000 0.93850  0.13590  0.39470  Biso   1.000  C
  C110     1.0000 0.06150  0.63590  0.10530  Biso   1.000  C
  C111     1.0000 0.06150  0.86410  0.60530  Biso   1.000  C
  C112     1.0000 0.93850  0.36410  0.89470  Biso   1.000  C
  H69      1.0000 0.85970  0.11790  0.34450  Biso   1.000  H
  H70      1.0000 0.14030  0.61790  0.15550  Biso   1.000  H
  H71      1.0000 0.14030  0.88210  0.65550  Biso   1.000  H
  H72      1.0000 0.85970  0.38210  0.84450  Biso   1.000  H
  C113     1.0000 0.09360  0.15850  0.52920  Biso   1.000  C
  C114     1.0000 0.90640  0.65850  0.97080  Biso   1.000  C
  C115     1.0000 0.90640  0.84150  0.47080  Biso   1.000  C
  C116     1.0000 0.09360  0.34150  0.02920  Biso   1.000  C
  H73      1.0000 0.14230  0.15980  0.58830  Biso   1.000  H
  H74      1.0000 0.85770  0.65980  0.91170  Biso   1.000  H
  H75      1.0000 0.85770  0.84020  0.41170  Biso   1.000  H
  H76      1.0000 0.14230  0.34020  0.08830  Biso   1.000  H
  C117     1.0000 0.13120  0.18870  0.48320  Biso   1.000  C
  C118     1.0000 0.86880  0.68870  0.01680  Biso   1.000  C
  C119     1.0000 0.86880  0.81130  0.51680  Biso   1.000  C
  C120     1.0000 0.13120  0.31130  0.98320  Biso   1.000  C
  H77      1.0000 0.21150  0.21510  0.50590  Biso   1.000  H
  H78      1.0000 0.78850  0.71510  0.99410  Biso   1.000  H
  H79      1.0000 0.78850  0.78490  0.49410  Biso   1.000  H
  H80      1.0000 0.21150  0.28490  0.00590  Biso   1.000  H
  C121     1.0000 0.89830  0.07870  0.49190  Biso   1.000  C
  C122     1.0000 0.10170  0.57870  0.00810  Biso   1.000  C
  C123     1.0000 0.10170  0.92130  0.50810  Biso   1.000  C
  C124     1.0000 0.89830  0.42130  0.99190  Biso   1.000  C
  H81      1.0000 0.80300  0.06980  0.44070  Biso   1.000  H
  H82      1.0000 0.19700  0.56980  0.05930  Biso   1.000  H
  H83      1.0000 0.19700  0.93020  0.55930  Biso   1.000  H
  H84      1.0000 0.80300  0.43020  0.94070  Biso   1.000  H
  H85      1.0000 0.88830  0.09740  0.53420  Biso   1.000  H
  H86      1.0000 0.11170  0.59740  0.96580  Biso   1.000  H
  H87      1.0000 0.11170  0.90260  0.46580  Biso   1.000  H
  H88      1.0000 0.88830  0.40260  0.03420  Biso   1.000  H
  C125     1.0000 0.98130  0.01570  0.52600  Biso   1.000  C
  C126     1.0000 0.01870  0.51570  0.97400  Biso   1.000  C
  C127     1.0000 0.01870  0.98430  0.47400  Biso   1.000  C
  C128     1.0000 0.98130  0.48430  0.02600  Biso   1.000  C
  H89      1.0000 0.06930  0.02420  0.58210  Biso   1.000  H
  H90      1.0000 0.93070  0.52420  0.91790  Biso   1.000  H
  H91      1.0000 0.93070  0.97580  0.41790  Biso   1.000  H
  H92      1.0000 0.06930  0.47580  0.08210  Biso   1.000  H
  H93      1.0000 0.92550  0.98520  0.53360  Biso   1.000  H
  H94      1.0000 0.07450  0.48520  0.96640  Biso   1.000  H
  H95      1.0000 0.07450  0.01480  0.46640  Biso   1.000  H
  H96      1.0000 0.92550  0.51480  0.03360  Biso   1.000  H
  O41      1.0000 0.26090  0.25010  0.37810  Biso   1.000  O
  O42      1.0000 0.73910  0.75010  0.12190  Biso   1.000  O
  O43      1.0000 0.73910  0.74990  0.62190  Biso   1.000  O
  O44      1.0000 0.26090  0.24990  0.87810  Biso   1.000  O
  H97      1.0000 0.22400  0.27200  0.39400  Biso   1.000  H
  H98      1.0000 0.77600  0.77200  0.10600  Biso   1.000  H
  H99      1.0000 0.77600  0.72800  0.60600  Biso   1.000  H
  H100     1.0000 0.22400  0.22800  0.89400  Biso   1.000  H
  H101     1.0000 0.27800  0.27300  0.34400  Biso   1.000  H
  H102     1.0000 0.72200  0.77300  0.15600  Biso   1.000  H
  H103     1.0000 0.72200  0.72700  0.65600  Biso   1.000  H
  H104     1.0000 0.27800  0.22700  0.84400  Biso   1.000  H
  C129     1.0000 0.62400  0.99900  0.03000  Biso   1.000  C
  C130     1.0000 0.37600  0.49900  0.47000  Biso   1.000  C
  C131     1.0000 0.37600  0.00100  0.97000  Biso   1.000  C
  C132     1.0000 0.62400  0.50100  0.53000  Biso   1.000  C
  O45      1.0000 0.75900  0.67310  0.74820  Biso   1.000  O
  O46      1.0000 0.24100  0.17310  0.75180  Biso   1.000  O
  O47      1.0000 0.24100  0.32690  0.25180  Biso   1.000  O
  O48      1.0000 0.75900  0.82690  0.24820  Biso   1.000  O
  H105     1.0000 0.69300  0.68900  0.75400  Biso   1.000  H
  H106     1.0000 0.30700  0.18900  0.74600  Biso   1.000  H
  H107     1.0000 0.30700  0.31100  0.24600  Biso   1.000  H
  H108     1.0000 0.69300  0.81100  0.25400  Biso   1.000  H
  H109     1.0000 0.76400  0.63500  0.74800  Biso   1.000  H
  H110     1.0000 0.23600  0.13500  0.75200  Biso   1.000  H
  H111     1.0000 0.23600  0.36500  0.25200  Biso   1.000  H
  H112     1.0000 0.76400  0.86500  0.24800  Biso   1.000  H
  O49      1.0000 0.75670  0.53543  0.74690  Biso   1.000  O
  O50      1.0000 0.24330  0.03543  0.75310  Biso   1.000  O
  O51      1.0000 0.24330  0.46457  0.25310  Biso   1.000  O
  O52      1.0000 0.75670  0.96457  0.24690  Biso   1.000  O
  H113     1.0000 0.70600  0.52000  0.76200  Biso   1.000  H
  H114     1.0000 0.29400  0.02000  0.73800  Biso   1.000  H
  H115     1.0000 0.29400  0.48000  0.23800  Biso   1.000  H
  H116     1.0000 0.70600  0.98000  0.26200  Biso   1.000  H
  H117     1.0000 0.80500  0.50600  0.74200  Biso   1.000  H
  H118     1.0000 0.19500  0.00600  0.75800  Biso   1.000  H
  H119     1.0000 0.19500  0.49400  0.25800  Biso   1.000  H
  H120     1.0000 0.80500  0.99400  0.24200  Biso   1.000  H
