data_image0
_cell_length_a       7.4448
_cell_length_b       13.1466
_cell_length_c       16.0004
_cell_angle_alpha    90
_cell_angle_beta     90
_cell_angle_gamma    90

_symmetry_space_group_name_H-M    "P 1"
_symmetry_int_tables_number       1

loop_
  _symmetry_equiv_pos_as_xyz
  'x, y, z'

loop_
  _atom_site_label
  _atom_site_occupancy
  _atom_site_fract_x
  _atom_site_fract_y
  _atom_site_fract_z
  _atom_site_thermal_displace_type
  _atom_site_B_iso_or_equiv
  _atom_site_type_symbol
  Cu1      1.0000 0.23780  0.77696  0.23972  Biso   1.000  Cu
  Cu2      1.0000 0.26220  0.22304  0.73972  Biso   1.000  Cu
  Cu3      1.0000 0.73780  0.72304  0.76028  Biso   1.000  Cu
  Cu4      1.0000 0.76220  0.27696  0.26028  Biso   1.000  Cu
  Cl1      1.0000 0.26637  0.41093  0.18101  Biso   1.000  Cl
  Cl2      1.0000 0.23363  0.58907  0.68101  Biso   1.000  Cl
  Cl3      1.0000 0.76637  0.08907  0.81899  Biso   1.000  Cl
  Cl4      1.0000 0.73363  0.91093  0.31899  Biso   1.000  Cl
  Cl5      1.0000 0.52835  0.66018  0.49852  Biso   1.000  Cl
  Cl6      1.0000 0.97165  0.33982  0.99852  Biso   1.000  Cl
  Cl7      1.0000 0.02835  0.83982  0.50148  Biso   1.000  Cl
  Cl8      1.0000 0.47165  0.16018  0.00148  Biso   1.000  Cl
  N1       1.0000 0.21050  0.92357  0.26858  Biso   1.000  N
  N2       1.0000 0.28950  0.07643  0.76858  Biso   1.000  N
  N3       1.0000 0.71050  0.57643  0.73142  Biso   1.000  N
  N4       1.0000 0.78950  0.42357  0.23142  Biso   1.000  N
  O1       1.0000 0.25170  0.63443  0.21132  Biso   1.000  O
  O2       1.0000 0.24830  0.36557  0.71132  Biso   1.000  O
  O3       1.0000 0.75170  0.86557  0.78868  Biso   1.000  O
  O4       1.0000 0.74830  0.13443  0.28868  Biso   1.000  O
  C1       1.0000 0.07660  0.91835  0.13397  Biso   1.000  C
  C2       1.0000 0.42340  0.08165  0.63397  Biso   1.000  C
  C3       1.0000 0.57660  0.58165  0.86603  Biso   1.000  C
  C4       1.0000 0.92340  0.41835  0.36603  Biso   1.000  C
  O5       1.0000 0.34740  0.73692  0.34352  Biso   1.000  O
  O6       1.0000 0.15260  0.26308  0.84352  Biso   1.000  O
  O7       1.0000 0.84740  0.76308  0.65648  Biso   1.000  O
  O8       1.0000 0.65260  0.23692  0.15648  Biso   1.000  O
  C5       1.0000 0.14340  0.97638  0.20255  Biso   1.000  C
  C6       1.0000 0.35660  0.02362  0.70255  Biso   1.000  C
  C7       1.0000 0.64340  0.52362  0.79745  Biso   1.000  C
  C8       1.0000 0.85660  0.47638  0.29745  Biso   1.000  C
  C9       1.0000 0.42940  0.42326  0.33302  Biso   1.000  C
  C10      1.0000 0.07060  0.57674  0.83302  Biso   1.000  C
  C11      1.0000 0.92940  0.07674  0.66698  Biso   1.000  C
  C12      1.0000 0.57060  0.92326  0.16698  Biso   1.000  C
  C13      1.0000 0.99780  0.96659  0.06441  Biso   1.000  C
  C14      1.0000 0.50220  0.03341  0.56441  Biso   1.000  C
  C15      1.0000 0.49780  0.53341  0.93559  Biso   1.000  C
  C16      1.0000 0.00220  0.46659  0.43559  Biso   1.000  C
  N5       1.0000 0.09650  0.81575  0.13899  Biso   1.000  N
  N6       1.0000 0.40350  0.18425  0.63899  Biso   1.000  N
  N7       1.0000 0.59650  0.68425  0.86101  Biso   1.000  N
  N8       1.0000 0.90350  0.31575  0.36101  Biso   1.000  N
  C17      1.0000 0.37900  0.64085  0.34662  Biso   1.000  C
  C18      1.0000 0.12100  0.35915  0.84662  Biso   1.000  C
  C19      1.0000 0.87900  0.85915  0.65338  Biso   1.000  C
  C20      1.0000 0.62100  0.14085  0.15338  Biso   1.000  C
  C21      1.0000 0.13940  0.08262  0.19998  Biso   1.000  C
  C22      1.0000 0.36060  0.91738  0.69998  Biso   1.000  C
  C23      1.0000 0.63940  0.41738  0.80002  Biso   1.000  C
  C24      1.0000 0.86060  0.58262  0.30002  Biso   1.000  C
  C25      1.0000 0.33930  0.47720  0.26901  Biso   1.000  C
  C26      1.0000 0.16070  0.52280  0.76901  Biso   1.000  C
  C27      1.0000 0.83930  0.02280  0.73099  Biso   1.000  C
  C28      1.0000 0.66070  0.97720  0.23099  Biso   1.000  C
  O9       1.0000 0.46690  0.33190  0.33075  Biso   1.000  O
  O10      1.0000 0.03310  0.66810  0.83075  Biso   1.000  O
  O11      1.0000 0.96690  0.16810  0.66925  Biso   1.000  O
  O12      1.0000 0.53310  0.83190  0.16925  Biso   1.000  O
  C29      1.0000 0.49000  0.48411  0.41209  Biso   1.000  C
  C30      1.0000 0.01000  0.51589  0.91209  Biso   1.000  C
  C31      1.0000 0.99000  0.01589  0.58791  Biso   1.000  C
  C32      1.0000 0.51000  0.98411  0.08791  Biso   1.000  C
  C33      1.0000 0.06700  0.13041  0.12644  Biso   1.000  C
  C34      1.0000 0.43300  0.86959  0.62644  Biso   1.000  C
  C35      1.0000 0.56700  0.36959  0.87356  Biso   1.000  C
  C36      1.0000 0.93300  0.63041  0.37356  Biso   1.000  C
  H1       1.0000 0.06900  0.20100  0.12250  Biso   1.000  H
  H2       1.0000 0.43100  0.79900  0.62250  Biso   1.000  H
  H3       1.0000 0.56900  0.29900  0.87750  Biso   1.000  H
  H4       1.0000 0.93100  0.70100  0.37750  Biso   1.000  H
  C37      1.0000 0.26570  0.08050  0.33712  Biso   1.000  C
  C38      1.0000 0.23430  0.91950  0.83712  Biso   1.000  C
  C39      1.0000 0.76570  0.41950  0.66288  Biso   1.000  C
  C40      1.0000 0.73430  0.58050  0.16288  Biso   1.000  C
  H5       1.0000 0.30520  0.11460  0.38460  Biso   1.000  H
  H6       1.0000 0.19480  0.88540  0.88460  Biso   1.000  H
  H7       1.0000 0.80520  0.38540  0.61540  Biso   1.000  H
  H8       1.0000 0.69480  0.61460  0.11540  Biso   1.000  H
  C41      1.0000 0.31960  0.58140  0.27085  Biso   1.000  C
  C42      1.0000 0.18040  0.41860  0.77085  Biso   1.000  C
  C43      1.0000 0.81960  0.91860  0.72915  Biso   1.000  C
  C44      1.0000 0.68040  0.08140  0.22915  Biso   1.000  C
  C45      1.0000 0.92940  0.90370  0.00133  Biso   1.000  C
  C46      1.0000 0.57060  0.09630  0.50133  Biso   1.000  C
  C47      1.0000 0.42940  0.59630  0.99867  Biso   1.000  C
  C48      1.0000 0.07060  0.40370  0.49867  Biso   1.000  C
  H9       1.0000 0.87000  0.93190  0.95580  Biso   1.000  H
  H10      1.0000 0.63000  0.06810  0.45580  Biso   1.000  H
  H11      1.0000 0.37000  0.56810  0.04420  Biso   1.000  H
  H12      1.0000 0.13000  0.43190  0.54420  Biso   1.000  H
  C49      1.0000 0.99680  0.07630  0.06337  Biso   1.000  C
  C50      1.0000 0.50320  0.92370  0.56337  Biso   1.000  C
  C51      1.0000 0.49680  0.42370  0.93663  Biso   1.000  C
  C52      1.0000 0.00320  0.57630  0.43663  Biso   1.000  C
  H13      1.0000 0.94650  0.11020  0.01800  Biso   1.000  H
  H14      1.0000 0.55350  0.88980  0.51800  Biso   1.000  H
  H15      1.0000 0.44650  0.38980  0.98200  Biso   1.000  H
  H16      1.0000 0.05350  0.61020  0.48200  Biso   1.000  H
  C53      1.0000 0.45960  0.59160  0.41162  Biso   1.000  C
  C54      1.0000 0.04040  0.40840  0.91162  Biso   1.000  C
  C55      1.0000 0.95960  0.90840  0.58838  Biso   1.000  C
  C56      1.0000 0.54040  0.09160  0.08838  Biso   1.000  C
  C57      1.0000 0.95030  0.80060  0.00708  Biso   1.000  C
  C58      1.0000 0.54970  0.19940  0.50708  Biso   1.000  C
  C59      1.0000 0.45030  0.69940  0.99292  Biso   1.000  C
  C60      1.0000 0.04970  0.30060  0.49292  Biso   1.000  C
  H17      1.0000 0.90800  0.75860  0.96460  Biso   1.000  H
  H18      1.0000 0.59200  0.24140  0.46460  Biso   1.000  H
  H19      1.0000 0.40800  0.74140  0.03540  Biso   1.000  H
  H20      1.0000 0.09200  0.25860  0.53540  Biso   1.000  H
  C61      1.0000 0.03560  0.75837  0.07715  Biso   1.000  C
  C62      1.0000 0.46440  0.24163  0.57715  Biso   1.000  C
  C63      1.0000 0.53560  0.74163  0.92285  Biso   1.000  C
  C64      1.0000 0.96440  0.25837  0.42285  Biso   1.000  C
  H21      1.0000 0.04990  0.68820  0.08020  Biso   1.000  H
  H22      1.0000 0.45010  0.31180  0.58020  Biso   1.000  H
  H23      1.0000 0.54990  0.81180  0.91980  Biso   1.000  H
  H24      1.0000 0.95010  0.18820  0.41980  Biso   1.000  H
  C65      1.0000 0.26700  0.97340  0.33492  Biso   1.000  C
  C66      1.0000 0.23300  0.02660  0.83492  Biso   1.000  C
  C67      1.0000 0.76700  0.52660  0.66508  Biso   1.000  C
  C68      1.0000 0.73300  0.47340  0.16508  Biso   1.000  C
  H25      1.0000 0.30850  0.93730  0.38100  Biso   1.000  H
  H26      1.0000 0.19150  0.06270  0.88100  Biso   1.000  H
  H27      1.0000 0.80850  0.56270  0.61900  Biso   1.000  H
  H28      1.0000 0.69150  0.43730  0.11900  Biso   1.000  H
  C69      1.0000 0.20690  0.13411  0.26980  Biso   1.000  C
  C70      1.0000 0.29310  0.86589  0.76980  Biso   1.000  C
  C71      1.0000 0.70690  0.36589  0.73020  Biso   1.000  C
  C72      1.0000 0.79310  0.63411  0.23020  Biso   1.000  C
  H29      1.0000 0.21140  0.20480  0.27020  Biso   1.000  H
  H30      1.0000 0.28860  0.79520  0.77020  Biso   1.000  H
  H31      1.0000 0.71140  0.29520  0.72980  Biso   1.000  H
  H32      1.0000 0.78860  0.70480  0.22980  Biso   1.000  H
  O13      1.0000 0.56200  0.43738  0.46841  Biso   1.000  O
  O14      1.0000 0.93800  0.56262  0.96841  Biso   1.000  O
  O15      1.0000 0.06200  0.06262  0.53159  Biso   1.000  O
  O16      1.0000 0.43800  0.93738  0.03159  Biso   1.000  O
