data_image0
_cell_length_a       7.7345
_cell_length_b       8.3324
_cell_length_c       9.202
_cell_angle_alpha    97.737
_cell_angle_beta     97.83
_cell_angle_gamma    100.529

_symmetry_space_group_name_H-M    "P 1"
_symmetry_int_tables_number       1

loop_
  _symmetry_equiv_pos_as_xyz
  'x, y, z'

loop_
  _atom_site_label
  _atom_site_occupancy
  _atom_site_fract_x
  _atom_site_fract_y
  _atom_site_fract_z
  _atom_site_thermal_displace_type
  _atom_site_B_iso_or_equiv
  _atom_site_type_symbol
  Cu1      1.0000 0.00000  0.00000  0.00000  Biso   1.000  Cu
  O1       1.0000 0.25690  0.06350  0.05680  Biso   1.000  O
  O2       1.0000 0.74310  0.93650  0.94320  Biso   1.000  O
  O3       1.0000 0.15290  0.24230  0.19770  Biso   1.000  O
  O4       1.0000 0.84710  0.75770  0.80230  Biso   1.000  O
  N1       1.0000 0.98980  0.85710  0.15310  Biso   1.000  N
  N2       1.0000 0.01020  0.14290  0.84690  Biso   1.000  N
  C1       1.0000 0.27810  0.18840  0.15560  Biso   1.000  C
  C2       1.0000 0.72190  0.81160  0.84440  Biso   1.000  C
  C3       1.0000 0.47050  0.26560  0.22790  Biso   1.000  C
  C4       1.0000 0.52950  0.73440  0.77210  Biso   1.000  C
  C5       1.0000 0.48430  0.44440  0.29490  Biso   1.000  C
  C6       1.0000 0.51570  0.55560  0.70510  Biso   1.000  C
  H1       1.0000 0.60770  0.49290  0.34180  Biso   1.000  H
  H2       1.0000 0.39230  0.50710  0.65820  Biso   1.000  H
  H3       1.0000 0.40600  0.45010  0.36990  Biso   1.000  H
  H4       1.0000 0.59400  0.54990  0.63010  Biso   1.000  H
  H5       1.0000 0.44800  0.50620  0.21660  Biso   1.000  H
  H6       1.0000 0.55200  0.49380  0.78340  Biso   1.000  H
  C7       1.0000 0.59940  0.25540  0.12140  Biso   1.000  C
  C8       1.0000 0.40060  0.74460  0.87860  Biso   1.000  C
  H7       1.0000 0.72050  0.30530  0.17340  Biso   1.000  H
  H8       1.0000 0.27950  0.69470  0.82660  Biso   1.000  H
  H9       1.0000 0.56870  0.31500  0.03990  Biso   1.000  H
  H10      1.0000 0.43130  0.68500  0.96010  Biso   1.000  H
  H11      1.0000 0.59360  0.13920  0.08110  Biso   1.000  H
  H12      1.0000 0.40640  0.86080  0.91890  Biso   1.000  H
  C9       1.0000 0.51820  0.16900  0.35080  Biso   1.000  C
  C10      1.0000 0.48180  0.83100  0.64920  Biso   1.000  C
  H13      1.0000 0.64130  0.21430  0.40010  Biso   1.000  H
  H14      1.0000 0.35870  0.78570  0.59990  Biso   1.000  H
  H15      1.0000 0.50660  0.05240  0.30810  Biso   1.000  H
  H16      1.0000 0.49340  0.94760  0.69190  Biso   1.000  H
  H17      1.0000 0.43740  0.17740  0.42350  Biso   1.000  H
  H18      1.0000 0.56260  0.82260  0.57650  Biso   1.000  H
  C11      1.0000 0.91510  0.89490  0.27460  Biso   1.000  C
  C12      1.0000 0.08490  0.10510  0.72540  Biso   1.000  C
  H19      1.0000 0.86490  0.99090  0.28290  Biso   1.000  H
  H20      1.0000 0.13510  0.00910  0.71710  Biso   1.000  H
  C13      1.0000 0.90860  0.80390  0.38320  Biso   1.000  C
  C14      1.0000 0.09140  0.19610  0.61680  Biso   1.000  C
  H21      1.0000 0.85440  0.83610  0.46610  Biso   1.000  H
  H22      1.0000 0.14560  0.16390  0.53390  Biso   1.000  H
  C15      1.0000 0.98110  0.66110  0.37620  Biso   1.000  C
  C16      1.0000 0.01890  0.33890  0.62380  Biso   1.000  C
  C17      1.0000 0.05190  0.62200  0.25090  Biso   1.000  C
  C18      1.0000 0.94810  0.37800  0.74910  Biso   1.000  C
  H23      1.0000 0.09860  0.52420  0.23780  Biso   1.000  H
  H24      1.0000 0.90140  0.47580  0.76220  Biso   1.000  H
  C19      1.0000 0.05650  0.71970  0.14600  Biso   1.000  C
  C20      1.0000 0.94350  0.28030  0.85400  Biso   1.000  C
  H25      1.0000 0.11000  0.68940  0.06220  Biso   1.000  H
  H26      1.0000 0.89000  0.31060  0.93780  Biso   1.000  H
  C21      1.0000 0.97600  0.57100  0.49760  Biso   1.000  C
  C22      1.0000 0.02400  0.42900  0.50240  Biso   1.000  C
  H27      1.0000 0.93410  0.61850  0.58230  Biso   1.000  H
  H28      1.0000 0.06590  0.38150  0.41770  Biso   1.000  H
