data_image0
_cell_length_a       10.62
_cell_length_b       5.384
_cell_length_c       14.916
_cell_angle_alpha    90
_cell_angle_beta     93.18
_cell_angle_gamma    90

_symmetry_space_group_name_H-M    "P 1"
_symmetry_int_tables_number       1

loop_
  _symmetry_equiv_pos_as_xyz
  'x, y, z'

loop_
  _atom_site_label
  _atom_site_occupancy
  _atom_site_fract_x
  _atom_site_fract_y
  _atom_site_fract_z
  _atom_site_thermal_displace_type
  _atom_site_B_iso_or_equiv
  _atom_site_type_symbol
  Cu1      1.0000 0.00000  0.00000  0.00000  Biso   1.000  Cu
  Cu2      1.0000 0.00000  0.50000  0.50000  Biso   1.000  Cu
  N1       1.0000 0.89480  0.70790  0.96683  Biso   1.000  N
  N2       1.0000 0.10520  0.20790  0.53317  Biso   1.000  N
  N3       1.0000 0.10520  0.29210  0.03317  Biso   1.000  N
  N4       1.0000 0.89480  0.79210  0.46683  Biso   1.000  N
  S1       1.0000 0.85217  0.56631  0.88108  Biso   1.000  S
  S2       1.0000 0.14783  0.06631  0.61892  Biso   1.000  S
  S3       1.0000 0.14783  0.43369  0.11892  Biso   1.000  S
  S4       1.0000 0.85217  0.93369  0.38108  Biso   1.000  S
  O1       1.0000 0.90240  0.32290  0.86457  Biso   1.000  O
  O2       1.0000 0.09760  0.82290  0.63543  Biso   1.000  O
  O3       1.0000 0.09760  0.67710  0.13543  Biso   1.000  O
  O4       1.0000 0.90240  0.17710  0.36457  Biso   1.000  O
  C1       1.0000 0.88430  0.75970  0.79100  Biso   1.000  C
  C2       1.0000 0.11570  0.25970  0.70900  Biso   1.000  C
  C3       1.0000 0.11570  0.24030  0.20900  Biso   1.000  C
  C4       1.0000 0.88430  0.74030  0.29100  Biso   1.000  C
  C5       1.0000 0.68590  0.54200  0.87780  Biso   1.000  C
  C6       1.0000 0.31410  0.04200  0.62220  Biso   1.000  C
  C7       1.0000 0.31410  0.45800  0.12220  Biso   1.000  C
  C8       1.0000 0.68590  0.95800  0.37780  Biso   1.000  C
  C9       1.0000 0.62730  0.34260  0.83490  Biso   1.000  C
  C10      1.0000 0.37270  0.84260  0.66510  Biso   1.000  C
  C11      1.0000 0.37270  0.65740  0.16510  Biso   1.000  C
  C12      1.0000 0.62730  0.15740  0.33490  Biso   1.000  C
  C13      1.0000 0.49720  0.32750  0.83220  Biso   1.000  C
  C14      1.0000 0.50280  0.82750  0.66780  Biso   1.000  C
  C15      1.0000 0.50280  0.67250  0.16780  Biso   1.000  C
  C16      1.0000 0.49720  0.17250  0.33220  Biso   1.000  C
  C17      1.0000 0.42770  0.50970  0.87130  Biso   1.000  C
  C18      1.0000 0.57230  0.00970  0.62870  Biso   1.000  C
  C19      1.0000 0.57230  0.49030  0.12870  Biso   1.000  C
  C20      1.0000 0.42770  0.99030  0.37130  Biso   1.000  C
  C21      1.0000 0.48700  0.70900  0.91270  Biso   1.000  C
  C22      1.0000 0.51300  0.20900  0.58730  Biso   1.000  C
  C23      1.0000 0.51300  0.29100  0.08730  Biso   1.000  C
  C24      1.0000 0.48700  0.79100  0.41270  Biso   1.000  C
  C25      1.0000 0.61730  0.72560  0.91690  Biso   1.000  C
  C26      1.0000 0.38270  0.22560  0.58310  Biso   1.000  C
  C27      1.0000 0.38270  0.27440  0.08310  Biso   1.000  C
  C28      1.0000 0.61730  0.77440  0.41690  Biso   1.000  C
  Cl1      1.0000 0.16077  0.86871  0.91529  Biso   1.000  Cl
  Cl2      1.0000 0.83923  0.36871  0.58471  Biso   1.000  Cl
  Cl3      1.0000 0.83923  0.13129  0.08471  Biso   1.000  Cl
  Cl4      1.0000 0.16077  0.63129  0.41529  Biso   1.000  Cl
  H1       1.0000 0.85960  0.63070  0.02100  Biso   1.000  H
  H2       1.0000 0.14040  0.13070  0.47900  Biso   1.000  H
  H3       1.0000 0.14040  0.36930  0.97900  Biso   1.000  H
  H4       1.0000 0.85960  0.86930  0.52100  Biso   1.000  H
  H5       1.0000 0.97750  0.78190  0.78870  Biso   1.000  H
  H6       1.0000 0.02250  0.28190  0.71130  Biso   1.000  H
  H7       1.0000 0.02250  0.21810  0.21130  Biso   1.000  H
  H8       1.0000 0.97750  0.71810  0.28870  Biso   1.000  H
  H9       1.0000 0.85010  0.68260  0.73370  Biso   1.000  H
  H10      1.0000 0.14990  0.18260  0.76630  Biso   1.000  H
  H11      1.0000 0.14990  0.31740  0.26630  Biso   1.000  H
  H12      1.0000 0.85010  0.81740  0.23370  Biso   1.000  H
  H13      1.0000 0.84350  0.92500  0.79910  Biso   1.000  H
  H14      1.0000 0.15650  0.42500  0.70090  Biso   1.000  H
  H15      1.0000 0.15650  0.07500  0.20090  Biso   1.000  H
  H16      1.0000 0.84350  0.57500  0.29910  Biso   1.000  H
  H17      1.0000 0.67810  0.21120  0.80630  Biso   1.000  H
  H18      1.0000 0.32190  0.71120  0.69370  Biso   1.000  H
  H19      1.0000 0.32190  0.78880  0.19370  Biso   1.000  H
  H20      1.0000 0.67810  0.28880  0.30630  Biso   1.000  H
  H21      1.0000 0.45340  0.18370  0.80170  Biso   1.000  H
  H22      1.0000 0.54660  0.68370  0.69830  Biso   1.000  H
  H23      1.0000 0.54660  0.81630  0.19830  Biso   1.000  H
  H24      1.0000 0.45340  0.31630  0.30170  Biso   1.000  H
  H25      1.0000 0.33370  0.49690  0.86960  Biso   1.000  H
  H26      1.0000 0.66630  0.99690  0.63040  Biso   1.000  H
  H27      1.0000 0.66630  0.50310  0.13040  Biso   1.000  H
  H28      1.0000 0.33370  0.00310  0.36960  Biso   1.000  H
  H29      1.0000 0.43600  0.84260  0.93990  Biso   1.000  H
  H30      1.0000 0.56400  0.34260  0.56010  Biso   1.000  H
  H31      1.0000 0.56400  0.15740  0.06010  Biso   1.000  H
  H32      1.0000 0.43600  0.65740  0.43990  Biso   1.000  H
  H33      1.0000 0.66090  0.86890  0.94800  Biso   1.000  H
  H34      1.0000 0.33910  0.36890  0.55200  Biso   1.000  H
  H35      1.0000 0.33910  0.13110  0.05200  Biso   1.000  H
  H36      1.0000 0.66090  0.63110  0.44800  Biso   1.000  H
