data_image0
_cell_length_a       11.388
_cell_length_b       12.038
_cell_length_c       15.878
_cell_angle_alpha    68.97
_cell_angle_beta     70.78
_cell_angle_gamma    78.81

_symmetry_space_group_name_H-M    "P 1"
_symmetry_int_tables_number       1

loop_
  _symmetry_equiv_pos_as_xyz
  'x, y, z'

loop_
  _atom_site_label
  _atom_site_occupancy
  _atom_site_fract_x
  _atom_site_fract_y
  _atom_site_fract_z
  _atom_site_thermal_displace_type
  _atom_site_B_iso_or_equiv
  _atom_site_type_symbol
  Cu1      1.0000 0.50000  0.00000  0.00000  Biso   1.000  Cu
  Cu2      1.0000 0.00000  0.00000  0.50000  Biso   1.000  Cu
  Br1      1.0000 0.45759  0.04857  0.17790  Biso   1.000  Br
  Br2      1.0000 0.54241  0.95143  0.82210  Biso   1.000  Br
  Br3      1.0000 0.12452  0.88609  0.34824  Biso   1.000  Br
  Br4      1.0000 0.87548  0.11391  0.65176  Biso   1.000  Br
  N1       1.0000 0.84390  0.86500  0.04540  Biso   1.000  N
  N2       1.0000 0.15610  0.13500  0.95460  Biso   1.000  N
  N3       1.0000 0.88720  0.89940  0.94990  Biso   1.000  N
  N4       1.0000 0.11280  0.10060  0.05010  Biso   1.000  N
  N5       1.0000 0.68050  0.93980  0.99640  Biso   1.000  N
  N6       1.0000 0.31950  0.06020  0.00360  Biso   1.000  N
  N7       1.0000 0.44870  0.83420  0.07290  Biso   1.000  N
  N8       1.0000 0.55130  0.16580  0.92710  Biso   1.000  N
  N9       1.0000 0.43420  0.63890  0.10650  Biso   1.000  N
  N10      1.0000 0.56580  0.36110  0.89350  Biso   1.000  N
  N11      1.0000 0.36890  0.67790  0.18190  Biso   1.000  N
  N12      1.0000 0.63110  0.32210  0.81810  Biso   1.000  N
  N13      1.0000 0.34950  0.11130  0.42970  Biso   1.000  N
  N14      1.0000 0.65050  0.88870  0.57030  Biso   1.000  N
  N15      1.0000 0.31400  0.10830  0.52080  Biso   1.000  N
  N16      1.0000 0.68600  0.89170  0.47920  Biso   1.000  N
  N17      1.0000 0.16630  0.04630  0.48920  Biso   1.000  N
  N18      1.0000 0.83370  0.95370  0.51080  Biso   1.000  N
  N19      1.0000 0.97890  0.15810  0.39690  Biso   1.000  N
  N20      1.0000 0.02110  0.84190  0.60310  Biso   1.000  N
  N21      1.0000 0.95310  0.29700  0.27010  Biso   1.000  N
  N22      1.0000 0.04690  0.70300  0.72990  Biso   1.000  N
  N23      1.0000 0.93930  0.35400  0.33310  Biso   1.000  N
  N24      1.0000 0.06070  0.64600  0.66690  Biso   1.000  N
  C1       1.0000 0.78480  0.94360  0.92450  Biso   1.000  C
  C2       1.0000 0.21520  0.05640  0.07550  Biso   1.000  C
  H1       1.0000 0.78450  0.97510  0.86190  Biso   1.000  H
  H2       1.0000 0.21550  0.02490  0.13810  Biso   1.000  H
  C3       1.0000 0.72170  0.89040  0.07120  Biso   1.000  C
  C4       1.0000 0.27830  0.10960  0.92880  Biso   1.000  C
  H3       1.0000 0.67210  0.87550  0.13310  Biso   1.000  H
  H4       1.0000 0.32790  0.12450  0.86690  Biso   1.000  H
  C5       1.0000 0.92780  0.81020  0.10620  Biso   1.000  C
  C6       1.0000 0.07220  0.18980  0.89380  Biso   1.000  C
  H5       1.0000 0.87960  0.79700  0.17140  Biso   1.000  H
  H6       1.0000 0.12040  0.20300  0.82860  Biso   1.000  H
  H7       1.0000 0.98950  0.86500  0.09110  Biso   1.000  H
  H8       1.0000 0.01050  0.13500  0.90890  Biso   1.000  H
  C7       1.0000 0.99370  0.69290  0.09410  Biso   1.000  C
  C8       1.0000 0.00630  0.30710  0.90590  Biso   1.000  C
  C9       1.0000 0.93270  0.58730  0.13860  Biso   1.000  C
  C10      1.0000 0.06730  0.41270  0.86140  Biso   1.000  C
  C11      1.0000 0.99860  0.47900  0.12960  Biso   1.000  C
  C12      1.0000 0.00140  0.52100  0.87040  Biso   1.000  C
  C13      1.0000 0.12330  0.47630  0.07700  Biso   1.000  C
  C14      1.0000 0.87670  0.52370  0.92300  Biso   1.000  C
  C15      1.0000 0.18080  0.58170  0.03360  Biso   1.000  C
  C16      1.0000 0.81920  0.41830  0.96640  Biso   1.000  C
  H9       1.0000 0.26420  0.57980  0.99850  Biso   1.000  H
  H10      1.0000 0.73580  0.42020  0.00150  Biso   1.000  H
  C17      1.0000 0.11850  0.68910  0.04080  Biso   1.000  C
  C18      1.0000 0.88150  0.31090  0.95920  Biso   1.000  C
  C19      1.0000 0.19150  0.80020  0.98760  Biso   1.000  C
  C20      1.0000 0.80850  0.19980  0.01240  Biso   1.000  C
  H11      1.0000 0.26800  0.78090  0.94470  Biso   1.000  H
  H12      1.0000 0.73200  0.21910  0.05530  Biso   1.000  H
  H13      1.0000 0.20990  0.82680  0.03170  Biso   1.000  H
  H14      1.0000 0.79010  0.17320  0.96830  Biso   1.000  H
  H15      1.0000 0.14220  0.86260  0.95310  Biso   1.000  H
  H16      1.0000 0.85780  0.13740  0.04690  Biso   1.000  H
  C21      1.0000 0.79680  0.59050  0.19510  Biso   1.000  C
  C22      1.0000 0.20320  0.40950  0.80490  Biso   1.000  C
  H17      1.0000 0.77680  0.65640  0.21930  Biso   1.000  H
  H18      1.0000 0.22320  0.34360  0.78070  Biso   1.000  H
  H19      1.0000 0.78200  0.51720  0.24650  Biso   1.000  H
  H20      1.0000 0.21800  0.48280  0.75350  Biso   1.000  H
  H21      1.0000 0.74520  0.59970  0.15540  Biso   1.000  H
  H22      1.0000 0.25480  0.40030  0.84460  Biso   1.000  H
  C23      1.0000 0.19990  0.36250  0.06460  Biso   1.000  C
  C24      1.0000 0.80010  0.63750  0.93540  Biso   1.000  C
  H23      1.0000 0.28090  0.38130  0.02180  Biso   1.000  H
  H24      1.0000 0.71910  0.61870  0.97820  Biso   1.000  H
  H25      1.0000 0.15860  0.32450  0.03970  Biso   1.000  H
  H26      1.0000 0.84140  0.67550  0.96030  Biso   1.000  H
  H27      1.0000 0.20880  0.30960  0.12440  Biso   1.000  H
  H28      1.0000 0.79120  0.69040  0.87560  Biso   1.000  H
  C25      1.0000 0.48010  0.73640  0.04290  Biso   1.000  C
  C26      1.0000 0.51990  0.26360  0.95710  Biso   1.000  C
  H29      1.0000 0.52970  0.73900  0.98260  Biso   1.000  H
  H30      1.0000 0.47030  0.26100  0.01740  Biso   1.000  H
  C27      1.0000 0.37880  0.79230  0.16060  Biso   1.000  C
  C28      1.0000 0.62120  0.20770  0.83940  Biso   1.000  C
  H31      1.0000 0.34220  0.83710  0.20120  Biso   1.000  H
  H32      1.0000 0.65780  0.16290  0.79880  Biso   1.000  H
  C29      1.0000 0.30400  0.59380  0.27180  Biso   1.000  C
  C30      1.0000 0.69600  0.40620  0.72820  Biso   1.000  C
  H33      1.0000 0.24140  0.55940  0.26190  Biso   1.000  H
  H34      1.0000 0.75860  0.44060  0.73810  Biso   1.000  H
  H35      1.0000 0.26160  0.63700  0.31620  Biso   1.000  H
  H36      1.0000 0.73840  0.36300  0.68380  Biso   1.000  H
  C31      1.0000 0.39240  0.49490  0.31310  Biso   1.000  C
  C32      1.0000 0.60760  0.50510  0.68690  Biso   1.000  C
  C33      1.0000 0.39480  0.37850  0.31210  Biso   1.000  C
  C34      1.0000 0.60520  0.62150  0.68790  Biso   1.000  C
  C35      1.0000 0.47100  0.28670  0.35810  Biso   1.000  C
  C36      1.0000 0.52900  0.71330  0.64190  Biso   1.000  C
  C37      1.0000 0.54810  0.31260  0.39970  Biso   1.000  C
  C38      1.0000 0.45190  0.68740  0.60030  Biso   1.000  C
  C39      1.0000 0.54810  0.42910  0.39540  Biso   1.000  C
  C40      1.0000 0.45190  0.57090  0.60460  Biso   1.000  C
  H37      1.0000 0.60200  0.44620  0.42140  Biso   1.000  H
  H38      1.0000 0.39800  0.55380  0.57860  Biso   1.000  H
  C41      1.0000 0.47170  0.52120  0.35430  Biso   1.000  C
  C42      1.0000 0.52830  0.47880  0.64570  Biso   1.000  C
  C43      1.0000 0.47420  0.64660  0.35370  Biso   1.000  C
  C44      1.0000 0.52580  0.35340  0.64630  Biso   1.000  C
  H39      1.0000 0.52340  0.64480  0.39310  Biso   1.000  H
  H40      1.0000 0.47660  0.35520  0.60690  Biso   1.000  H
  H41      1.0000 0.39060  0.67880  0.37710  Biso   1.000  H
  H42      1.0000 0.60940  0.32120  0.62290  Biso   1.000  H
  H43      1.0000 0.51010  0.69590  0.29060  Biso   1.000  H
  H44      1.0000 0.48990  0.30410  0.70940  Biso   1.000  H
  C45      1.0000 0.31650  0.35350  0.26140  Biso   1.000  C
  C46      1.0000 0.68350  0.64650  0.73860  Biso   1.000  C
  H45      1.0000 0.23210  0.34580  0.30080  Biso   1.000  H
  H46      1.0000 0.76790  0.65420  0.69920  Biso   1.000  H
  H47      1.0000 0.34970  0.28060  0.24710  Biso   1.000  H
  H48      1.0000 0.65030  0.71940  0.75290  Biso   1.000  H
  H49      1.0000 0.31800  0.41810  0.20400  Biso   1.000  H
  H50      1.0000 0.68200  0.58190  0.79600  Biso   1.000  H
  C47      1.0000 0.63180  0.21670  0.44980  Biso   1.000  C
  C48      1.0000 0.36820  0.78330  0.55020  Biso   1.000  C
  H51      1.0000 0.58290  0.15410  0.49690  Biso   1.000  H
  H52      1.0000 0.41710  0.84590  0.50310  Biso   1.000  H
  H53      1.0000 0.67070  0.25050  0.47910  Biso   1.000  H
  H54      1.0000 0.32930  0.74950  0.52090  Biso   1.000  H
  H55      1.0000 0.69490  0.18460  0.40510  Biso   1.000  H
  H56      1.0000 0.30510  0.81540  0.59490  Biso   1.000  H
  C49      1.0000 0.46820  0.15890  0.36450  Biso   1.000  C
  C50      1.0000 0.53180  0.84110  0.63550  Biso   1.000  C
  H57      1.0000 0.47760  0.15520  0.30250  Biso   1.000  H
  H58      1.0000 0.52240  0.84480  0.69750  Biso   1.000  H
  H59      1.0000 0.53740  0.11020  0.38640  Biso   1.000  H
  H60      1.0000 0.46260  0.88980  0.61360  Biso   1.000  H
  C51      1.0000 0.26120  0.07230  0.41270  Biso   1.000  C
  C52      1.0000 0.73880  0.92770  0.58730  Biso   1.000  C
  H61      1.0000 0.26560  0.06450  0.35560  Biso   1.000  H
  H62      1.0000 0.73440  0.93550  0.64440  Biso   1.000  H
  C53      1.0000 0.20240  0.06980  0.55360  Biso   1.000  C
  C54      1.0000 0.79760  0.93020  0.44640  Biso   1.000  C
  H63      1.0000 0.15300  0.05960  0.61520  Biso   1.000  H
  H64      1.0000 0.84700  0.94040  0.38480  Biso   1.000  H
  C55      1.0000 0.97710  0.18080  0.30990  Biso   1.000  C
  C56      1.0000 0.02290  0.81920  0.69010  Biso   1.000  C
  H65      1.0000 0.99060  0.12330  0.28040  Biso   1.000  H
  H66      1.0000 0.00940  0.87670  0.71960  Biso   1.000  H
  C57      1.0000 0.95550  0.26750  0.40770  Biso   1.000  C
  C58      1.0000 0.04450  0.73250  0.59230  Biso   1.000  C
  H67      1.0000 0.95130  0.27990  0.46320  Biso   1.000  H
  H68      1.0000 0.04870  0.72010  0.53680  Biso   1.000  H
  C59      1.0000 0.93430  0.36340  0.17640  Biso   1.000  C
  C60      1.0000 0.06570  0.63660  0.82360  Biso   1.000  C
  H69      1.0000 0.84560  0.38190  0.18300  Biso   1.000  H
  H70      1.0000 0.15440  0.61810  0.81700  Biso   1.000  H
  H71      1.0000 0.96670  0.31320  0.13630  Biso   1.000  H
  H72      1.0000 0.03330  0.68680  0.86370  Biso   1.000  H
  C61      1.0000 0.94540  0.72680  0.31780  Biso   1.000  C
  C62      1.0000 0.05460  0.27320  0.68220  Biso   1.000  C
  H73      1.0000 0.95510  0.71380  0.25960  Biso   1.000  H
  H74      1.0000 0.04490  0.28620  0.74040  Biso   1.000  H
  H75      1.0000 0.01090  0.77240  0.31000  Biso   1.000  H
  H76      1.0000 0.98910  0.22760  0.69000  Biso   1.000  H
  H77      1.0000 0.86600  0.76990  0.33560  Biso   1.000  H
  H78      1.0000 0.13400  0.23010  0.66440  Biso   1.000  H
  C63      1.0000 0.95200  0.61000  0.39220  Biso   1.000  C
  C64      1.0000 0.04800  0.39000  0.60780  Biso   1.000  C
  H79      1.0000 0.99950  0.61320  0.43180  Biso   1.000  H
  H80      1.0000 0.00050  0.38680  0.56820  Biso   1.000  H
  H81      1.0000 0.99120  0.54730  0.36450  Biso   1.000  H
  H82      1.0000 0.00880  0.45270  0.63550  Biso   1.000  H
  O1       1.0000 0.81860  0.58750  0.44840  Biso   1.000  O
  O2       1.0000 0.18140  0.41250  0.55160  Biso   1.000  O
  H83      1.0000 0.77180  0.62870  0.41710  Biso   1.000  H
  H84      1.0000 0.22820  0.37130  0.58290  Biso   1.000  H
  O3       1.0000 0.32560  0.10350  0.71470  Biso   1.000  O
  O4       1.0000 0.67440  0.89650  0.28530  Biso   1.000  O
  O5       1.0000 0.85890  0.05970  0.21690  Biso   1.000  O
  O6       1.0000 0.14110  0.94030  0.78310  Biso   1.000  O
