data_image0
_cell_length_a       21.965
_cell_length_b       8.016
_cell_length_c       23.359
_cell_angle_alpha    90
_cell_angle_beta     90.97
_cell_angle_gamma    90

_symmetry_space_group_name_H-M    "P 1"
_symmetry_int_tables_number       1

loop_
  _symmetry_equiv_pos_as_xyz
  'x, y, z'

loop_
  _atom_site_label
  _atom_site_occupancy
  _atom_site_fract_x
  _atom_site_fract_y
  _atom_site_fract_z
  _atom_site_thermal_displace_type
  _atom_site_B_iso_or_equiv
  _atom_site_type_symbol
  Cu1      1.0000 0.95676  0.61498  0.99457  Biso   1.000  Cu
  Cu2      1.0000 0.45676  0.11498  0.99457  Biso   1.000  Cu
  Cu3      1.0000 0.04324  0.61498  0.50543  Biso   1.000  Cu
  Cu4      1.0000 0.54324  0.11498  0.50543  Biso   1.000  Cu
  Cu5      1.0000 0.04324  0.38502  0.00543  Biso   1.000  Cu
  Cu6      1.0000 0.54324  0.88502  0.00543  Biso   1.000  Cu
  Cu7      1.0000 0.95676  0.38502  0.49457  Biso   1.000  Cu
  Cu8      1.0000 0.45676  0.88502  0.49457  Biso   1.000  Cu
  O1       1.0000 0.01238  0.73880  0.04525  Biso   1.000  O
  O2       1.0000 0.51238  0.23880  0.04525  Biso   1.000  O
  O3       1.0000 0.98762  0.73880  0.45475  Biso   1.000  O
  O4       1.0000 0.48762  0.23880  0.45475  Biso   1.000  O
  O5       1.0000 0.98762  0.26120  0.95475  Biso   1.000  O
  O6       1.0000 0.48762  0.76120  0.95475  Biso   1.000  O
  O7       1.0000 0.01238  0.26120  0.54525  Biso   1.000  O
  O8       1.0000 0.51238  0.76120  0.54525  Biso   1.000  O
  O9       1.0000 0.07668  0.50060  0.43778  Biso   1.000  O
  O10      1.0000 0.57668  0.00060  0.43778  Biso   1.000  O
  O11      1.0000 0.92332  0.50060  0.06222  Biso   1.000  O
  O12      1.0000 0.42332  0.00060  0.06222  Biso   1.000  O
  O13      1.0000 0.92332  0.49940  0.56222  Biso   1.000  O
  O14      1.0000 0.42332  0.99940  0.56222  Biso   1.000  O
  O15      1.0000 0.07668  0.49940  0.93778  Biso   1.000  O
  O16      1.0000 0.57668  0.99940  0.93778  Biso   1.000  O
  O17      1.0000 0.08516  0.54420  0.05612  Biso   1.000  O
  O18      1.0000 0.58516  0.04420  0.05612  Biso   1.000  O
  O19      1.0000 0.91484  0.54420  0.44388  Biso   1.000  O
  O20      1.0000 0.41484  0.04420  0.44388  Biso   1.000  O
  O21      1.0000 0.91484  0.45580  0.94388  Biso   1.000  O
  O22      1.0000 0.41484  0.95580  0.94388  Biso   1.000  O
  O23      1.0000 0.08516  0.45580  0.55612  Biso   1.000  O
  O24      1.0000 0.58516  0.95580  0.55612  Biso   1.000  O
  N1       1.0000 0.88450  0.79650  0.99405  Biso   1.000  N
  N2       1.0000 0.38450  0.29650  0.99405  Biso   1.000  N
  N3       1.0000 0.11550  0.79650  0.50595  Biso   1.000  N
  N4       1.0000 0.61550  0.29650  0.50595  Biso   1.000  N
  N5       1.0000 0.11550  0.20350  0.00595  Biso   1.000  N
  N6       1.0000 0.61550  0.70350  0.00595  Biso   1.000  N
  N7       1.0000 0.88450  0.20350  0.49405  Biso   1.000  N
  N8       1.0000 0.38450  0.70350  0.49405  Biso   1.000  N
  O25      1.0000 0.00310  0.30970  0.42788  Biso   1.000  O
  O26      1.0000 0.50310  0.80970  0.42788  Biso   1.000  O
  O27      1.0000 0.99690  0.30970  0.07212  Biso   1.000  O
  O28      1.0000 0.49690  0.80970  0.07212  Biso   1.000  O
  O29      1.0000 0.99690  0.69030  0.57212  Biso   1.000  O
  O30      1.0000 0.49690  0.19030  0.57212  Biso   1.000  O
  O31      1.0000 0.00310  0.69030  0.92788  Biso   1.000  O
  O32      1.0000 0.50310  0.19030  0.92788  Biso   1.000  O
  C1       1.0000 0.09350  0.79390  0.10930  Biso   1.000  C
  C2       1.0000 0.59350  0.29390  0.10930  Biso   1.000  C
  C3       1.0000 0.90650  0.79390  0.39070  Biso   1.000  C
  C4       1.0000 0.40650  0.29390  0.39070  Biso   1.000  C
  C5       1.0000 0.90650  0.20610  0.89070  Biso   1.000  C
  C6       1.0000 0.40650  0.70610  0.89070  Biso   1.000  C
  C7       1.0000 0.09350  0.20610  0.60930  Biso   1.000  C
  C8       1.0000 0.59350  0.70610  0.60930  Biso   1.000  C
  C9       1.0000 0.89020  0.93550  0.02460  Biso   1.000  C
  C10      1.0000 0.39020  0.43550  0.02460  Biso   1.000  C
  C11      1.0000 0.10980  0.93550  0.47540  Biso   1.000  C
  C12      1.0000 0.60980  0.43550  0.47540  Biso   1.000  C
  C13      1.0000 0.10980  0.06450  0.97540  Biso   1.000  C
  C14      1.0000 0.60980  0.56450  0.97540  Biso   1.000  C
  C15      1.0000 0.89020  0.06450  0.52460  Biso   1.000  C
  C16      1.0000 0.39020  0.56450  0.52460  Biso   1.000  C
  H1       1.0000 0.92530  0.94980  0.04690  Biso   1.000  H
  H2       1.0000 0.42530  0.44980  0.04690  Biso   1.000  H
  H3       1.0000 0.07470  0.94980  0.45310  Biso   1.000  H
  H4       1.0000 0.57470  0.44980  0.45310  Biso   1.000  H
  H5       1.0000 0.07470  0.05020  0.95310  Biso   1.000  H
  H6       1.0000 0.57470  0.55020  0.95310  Biso   1.000  H
  H7       1.0000 0.92530  0.05020  0.54690  Biso   1.000  H
  H8       1.0000 0.42530  0.55020  0.54690  Biso   1.000  H
  C17      1.0000 0.06160  0.68520  0.06650  Biso   1.000  C
  C18      1.0000 0.56160  0.18520  0.06650  Biso   1.000  C
  C19      1.0000 0.93840  0.68520  0.43350  Biso   1.000  C
  C20      1.0000 0.43840  0.18520  0.43350  Biso   1.000  C
  C21      1.0000 0.93840  0.31480  0.93350  Biso   1.000  C
  C22      1.0000 0.43840  0.81480  0.93350  Biso   1.000  C
  C23      1.0000 0.06160  0.31480  0.56650  Biso   1.000  C
  C24      1.0000 0.56160  0.81480  0.56650  Biso   1.000  C
  C25      1.0000 0.06540  0.15970  0.33810  Biso   1.000  C
  C26      1.0000 0.56540  0.65970  0.33810  Biso   1.000  C
  C27      1.0000 0.93460  0.15970  0.16190  Biso   1.000  C
  C28      1.0000 0.43460  0.65970  0.16190  Biso   1.000  C
  C29      1.0000 0.93460  0.84030  0.66190  Biso   1.000  C
  C30      1.0000 0.43460  0.34030  0.66190  Biso   1.000  C
  C31      1.0000 0.06540  0.84030  0.83810  Biso   1.000  C
  C32      1.0000 0.56540  0.34030  0.83810  Biso   1.000  C
  H9       1.0000 0.03230  0.10300  0.35310  Biso   1.000  H
  H10      1.0000 0.53230  0.60300  0.35310  Biso   1.000  H
  H11      1.0000 0.96770  0.10300  0.14690  Biso   1.000  H
  H12      1.0000 0.46770  0.60300  0.14690  Biso   1.000  H
  H13      1.0000 0.96770  0.89700  0.64690  Biso   1.000  H
  H14      1.0000 0.46770  0.39700  0.64690  Biso   1.000  H
  H15      1.0000 0.03230  0.89700  0.85310  Biso   1.000  H
  H16      1.0000 0.53230  0.39700  0.85310  Biso   1.000  H
  C33      1.0000 0.05170  0.37700  0.41300  Biso   1.000  C
  C34      1.0000 0.55170  0.87700  0.41300  Biso   1.000  C
  C35      1.0000 0.94830  0.37700  0.08700  Biso   1.000  C
  C36      1.0000 0.44830  0.87700  0.08700  Biso   1.000  C
  C37      1.0000 0.94830  0.62300  0.58700  Biso   1.000  C
  C38      1.0000 0.44830  0.12300  0.58700  Biso   1.000  C
  C39      1.0000 0.05170  0.62300  0.91300  Biso   1.000  C
  C40      1.0000 0.55170  0.12300  0.91300  Biso   1.000  C
  C41      1.0000 0.08320  0.31130  0.36200  Biso   1.000  C
  C42      1.0000 0.58320  0.81130  0.36200  Biso   1.000  C
  C43      1.0000 0.91680  0.31130  0.13800  Biso   1.000  C
  C44      1.0000 0.41680  0.81130  0.13800  Biso   1.000  C
  C45      1.0000 0.91680  0.68870  0.63800  Biso   1.000  C
  C46      1.0000 0.41680  0.18870  0.63800  Biso   1.000  C
  C47      1.0000 0.08320  0.68870  0.86200  Biso   1.000  C
  C48      1.0000 0.58320  0.18870  0.86200  Biso   1.000  C
  C49      1.0000 0.78850  0.89980  0.96080  Biso   1.000  C
  C50      1.0000 0.28850  0.39980  0.96080  Biso   1.000  C
  C51      1.0000 0.21150  0.89980  0.53920  Biso   1.000  C
  C52      1.0000 0.71150  0.39980  0.53920  Biso   1.000  C
  C53      1.0000 0.21150  0.10020  0.03920  Biso   1.000  C
  C54      1.0000 0.71150  0.60020  0.03920  Biso   1.000  C
  C55      1.0000 0.78850  0.10020  0.46080  Biso   1.000  C
  C56      1.0000 0.28850  0.60020  0.46080  Biso   1.000  C
  H17      1.0000 0.75400  0.88160  0.93810  Biso   1.000  H
  H18      1.0000 0.25400  0.38160  0.93810  Biso   1.000  H
  H19      1.0000 0.24600  0.88160  0.56190  Biso   1.000  H
  H20      1.0000 0.74600  0.38160  0.56190  Biso   1.000  H
  H21      1.0000 0.24600  0.11840  0.06190  Biso   1.000  H
  H22      1.0000 0.74600  0.61840  0.06190  Biso   1.000  H
  H23      1.0000 0.75400  0.11840  0.43810  Biso   1.000  H
  H24      1.0000 0.25400  0.61840  0.43810  Biso   1.000  H
  C57      1.0000 0.83410  0.78240  0.96340  Biso   1.000  C
  C58      1.0000 0.33410  0.28240  0.96340  Biso   1.000  C
  C59      1.0000 0.16590  0.78240  0.53660  Biso   1.000  C
  C60      1.0000 0.66590  0.28240  0.53660  Biso   1.000  C
  C61      1.0000 0.16590  0.21760  0.03660  Biso   1.000  C
  C62      1.0000 0.66590  0.71760  0.03660  Biso   1.000  C
  C63      1.0000 0.83410  0.21760  0.46340  Biso   1.000  C
  C64      1.0000 0.33410  0.71760  0.46340  Biso   1.000  C
  H25      1.0000 0.82890  0.68580  0.94180  Biso   1.000  H
  H26      1.0000 0.32890  0.18580  0.94180  Biso   1.000  H
  H27      1.0000 0.17110  0.68580  0.55820  Biso   1.000  H
  H28      1.0000 0.67110  0.18580  0.55820  Biso   1.000  H
  H29      1.0000 0.17110  0.31420  0.05820  Biso   1.000  H
  H30      1.0000 0.67110  0.81420  0.05820  Biso   1.000  H
  H31      1.0000 0.82890  0.31420  0.44180  Biso   1.000  H
  H32      1.0000 0.32890  0.81420  0.44180  Biso   1.000  H
  C65      1.0000 0.07530  0.95920  0.11450  Biso   1.000  C
  C66      1.0000 0.57530  0.45920  0.11450  Biso   1.000  C
  C67      1.0000 0.92470  0.95920  0.38550  Biso   1.000  C
  C68      1.0000 0.42470  0.45920  0.38550  Biso   1.000  C
  C69      1.0000 0.92470  0.04080  0.88550  Biso   1.000  C
  C70      1.0000 0.42470  0.54080  0.88550  Biso   1.000  C
  C71      1.0000 0.07530  0.04080  0.61450  Biso   1.000  C
  C72      1.0000 0.57530  0.54080  0.61450  Biso   1.000  C
  H33      1.0000 0.04420  0.00000  0.09100  Biso   1.000  H
  H34      1.0000 0.54420  0.50000  0.09100  Biso   1.000  H
  H35      1.0000 0.95580  0.00000  0.40900  Biso   1.000  H
  H36      1.0000 0.45580  0.50000  0.40900  Biso   1.000  H
  H37      1.0000 0.95580  0.00000  0.90900  Biso   1.000  H
  H38      1.0000 0.45580  0.50000  0.90900  Biso   1.000  H
  H39      1.0000 0.04420  0.00000  0.59100  Biso   1.000  H
  H40      1.0000 0.54420  0.50000  0.59100  Biso   1.000  H
  C73      1.0000 0.13250  0.38980  0.33850  Biso   1.000  C
  C74      1.0000 0.63250  0.88980  0.33850  Biso   1.000  C
  C75      1.0000 0.86750  0.38980  0.16150  Biso   1.000  C
  C76      1.0000 0.36750  0.88980  0.16150  Biso   1.000  C
  C77      1.0000 0.86750  0.61020  0.66150  Biso   1.000  C
  C78      1.0000 0.36750  0.11020  0.66150  Biso   1.000  C
  C79      1.0000 0.13250  0.61020  0.83850  Biso   1.000  C
  C80      1.0000 0.63250  0.11020  0.83850  Biso   1.000  C
  H41      1.0000 0.14580  0.49000  0.35440  Biso   1.000  H
  H42      1.0000 0.64580  0.99000  0.35440  Biso   1.000  H
  H43      1.0000 0.85420  0.49000  0.14560  Biso   1.000  H
  H44      1.0000 0.35420  0.99000  0.14560  Biso   1.000  H
  H45      1.0000 0.85420  0.51000  0.64560  Biso   1.000  H
  H46      1.0000 0.35420  0.01000  0.64560  Biso   1.000  H
  H47      1.0000 0.14580  0.51000  0.85440  Biso   1.000  H
  H48      1.0000 0.64580  0.01000  0.85440  Biso   1.000  H
  C81      1.0000 0.79430  0.04460  0.99230  Biso   1.000  C
  C82      1.0000 0.29430  0.54460  0.99230  Biso   1.000  C
  C83      1.0000 0.20570  0.04460  0.50770  Biso   1.000  C
  C84      1.0000 0.70570  0.54460  0.50770  Biso   1.000  C
  C85      1.0000 0.20570  0.95540  0.00770  Biso   1.000  C
  C86      1.0000 0.70570  0.45540  0.00770  Biso   1.000  C
  C87      1.0000 0.79430  0.95540  0.49230  Biso   1.000  C
  C88      1.0000 0.29430  0.45540  0.49230  Biso   1.000  C
  C89      1.0000 0.74780  0.17330  0.98980  Biso   1.000  C
  C90      1.0000 0.24780  0.67330  0.98980  Biso   1.000  C
  C91      1.0000 0.25220  0.17330  0.51020  Biso   1.000  C
  C92      1.0000 0.75220  0.67330  0.51020  Biso   1.000  C
  C93      1.0000 0.25220  0.82670  0.01020  Biso   1.000  C
  C94      1.0000 0.75220  0.32670  0.01020  Biso   1.000  C
  C95      1.0000 0.74780  0.82670  0.48980  Biso   1.000  C
  C96      1.0000 0.24780  0.32670  0.48980  Biso   1.000  C
  H49      1.0000 0.71100  0.14480  0.97210  Biso   1.000  H
  H50      1.0000 0.21100  0.64480  0.97210  Biso   1.000  H
  H51      1.0000 0.28900  0.14480  0.52790  Biso   1.000  H
  H52      1.0000 0.78900  0.64480  0.52790  Biso   1.000  H
  H53      1.0000 0.28900  0.85520  0.02790  Biso   1.000  H
  H54      1.0000 0.78900  0.35520  0.02790  Biso   1.000  H
  H55      1.0000 0.71100  0.85520  0.47210  Biso   1.000  H
  H56      1.0000 0.21100  0.35520  0.47210  Biso   1.000  H
  C97      1.0000 0.10290  0.06360  0.15420  Biso   1.000  C
  C98      1.0000 0.60290  0.56360  0.15420  Biso   1.000  C
  C99      1.0000 0.89710  0.06360  0.34580  Biso   1.000  C
  C100     1.0000 0.39710  0.56360  0.34580  Biso   1.000  C
  C101     1.0000 0.89710  0.93640  0.84580  Biso   1.000  C
  C102     1.0000 0.39710  0.43640  0.84580  Biso   1.000  C
  C103     1.0000 0.10290  0.93640  0.65420  Biso   1.000  C
  C104     1.0000 0.60290  0.43640  0.65420  Biso   1.000  C
  H57      1.0000 0.09050  0.17400  0.15780  Biso   1.000  H
  H58      1.0000 0.59050  0.67400  0.15780  Biso   1.000  H
  H59      1.0000 0.90950  0.17400  0.34220  Biso   1.000  H
  H60      1.0000 0.40950  0.67400  0.34220  Biso   1.000  H
  H61      1.0000 0.90950  0.82600  0.84220  Biso   1.000  H
  H62      1.0000 0.40950  0.32600  0.84220  Biso   1.000  H
  H63      1.0000 0.09050  0.82600  0.65780  Biso   1.000  H
  H64      1.0000 0.59050  0.32600  0.65780  Biso   1.000  H
  C105     1.0000 0.84670  0.06000  0.02510  Biso   1.000  C
  C106     1.0000 0.34670  0.56000  0.02510  Biso   1.000  C
  C107     1.0000 0.15330  0.06000  0.47490  Biso   1.000  C
  C108     1.0000 0.65330  0.56000  0.47490  Biso   1.000  C
  C109     1.0000 0.15330  0.94000  0.97490  Biso   1.000  C
  C110     1.0000 0.65330  0.44000  0.97490  Biso   1.000  C
  C111     1.0000 0.84670  0.94000  0.52510  Biso   1.000  C
  C112     1.0000 0.34670  0.44000  0.52510  Biso   1.000  C
  H65      1.0000 0.85280  0.15440  0.04760  Biso   1.000  H
  H66      1.0000 0.35280  0.65440  0.04760  Biso   1.000  H
  H67      1.0000 0.14720  0.15440  0.45240  Biso   1.000  H
  H68      1.0000 0.64720  0.65440  0.45240  Biso   1.000  H
  H69      1.0000 0.14720  0.84560  0.95240  Biso   1.000  H
  H70      1.0000 0.64720  0.34560  0.95240  Biso   1.000  H
  H71      1.0000 0.85280  0.84560  0.54760  Biso   1.000  H
  H72      1.0000 0.35280  0.34560  0.54760  Biso   1.000  H
  C113     1.0000 0.09620  0.09210  0.29230  Biso   1.000  C
  C114     1.0000 0.59620  0.59210  0.29230  Biso   1.000  C
  C115     1.0000 0.90380  0.09210  0.20770  Biso   1.000  C
  C116     1.0000 0.40380  0.59210  0.20770  Biso   1.000  C
  C117     1.0000 0.90380  0.90790  0.70770  Biso   1.000  C
  C118     1.0000 0.40380  0.40790  0.70770  Biso   1.000  C
  C119     1.0000 0.09620  0.90790  0.79230  Biso   1.000  C
  C120     1.0000 0.59620  0.40790  0.79230  Biso   1.000  C
  H73      1.0000 0.08340  0.99160  0.27630  Biso   1.000  H
  H74      1.0000 0.58340  0.49160  0.27630  Biso   1.000  H
  H75      1.0000 0.91660  0.99160  0.22370  Biso   1.000  H
  H76      1.0000 0.41660  0.49160  0.22370  Biso   1.000  H
  H77      1.0000 0.91660  0.00840  0.72370  Biso   1.000  H
  H78      1.0000 0.41660  0.50840  0.72370  Biso   1.000  H
  H79      1.0000 0.08340  0.00840  0.77630  Biso   1.000  H
  H80      1.0000 0.58340  0.50840  0.77630  Biso   1.000  H
  C121     1.0000 0.14900  0.00040  0.18810  Biso   1.000  C
  C122     1.0000 0.64900  0.50040  0.18810  Biso   1.000  C
  C123     1.0000 0.85100  0.00040  0.31190  Biso   1.000  C
  C124     1.0000 0.35100  0.50040  0.31190  Biso   1.000  C
  C125     1.0000 0.85100  0.99960  0.81190  Biso   1.000  C
  C126     1.0000 0.35100  0.49960  0.81190  Biso   1.000  C
  C127     1.0000 0.14900  0.99960  0.68810  Biso   1.000  C
  C128     1.0000 0.64900  0.49960  0.68810  Biso   1.000  C
  O33      1.0000 0.17950  0.10640  0.22740  Biso   1.000  O
  O34      1.0000 0.67950  0.60640  0.22740  Biso   1.000  O
  O35      1.0000 0.82050  0.10640  0.27260  Biso   1.000  O
  O36      1.0000 0.32050  0.60640  0.27260  Biso   1.000  O
  O37      1.0000 0.82050  0.89360  0.77260  Biso   1.000  O
  O38      1.0000 0.32050  0.39360  0.77260  Biso   1.000  O
  O39      1.0000 0.17950  0.89360  0.72740  Biso   1.000  O
  O40      1.0000 0.67950  0.39360  0.72740  Biso   1.000  O
  C129     1.0000 0.14100  0.73470  0.14270  Biso   1.000  C
  C130     1.0000 0.64100  0.23470  0.14270  Biso   1.000  C
  C131     1.0000 0.85900  0.73470  0.35730  Biso   1.000  C
  C132     1.0000 0.35900  0.23470  0.35730  Biso   1.000  C
  C133     1.0000 0.85900  0.26530  0.85730  Biso   1.000  C
  C134     1.0000 0.35900  0.76530  0.85730  Biso   1.000  C
  C135     1.0000 0.14100  0.26530  0.64270  Biso   1.000  C
  C136     1.0000 0.64100  0.76530  0.64270  Biso   1.000  C
  H81      1.0000 0.15470  0.62580  0.13800  Biso   1.000  H
  H82      1.0000 0.65470  0.12580  0.13800  Biso   1.000  H
  H83      1.0000 0.84530  0.62580  0.36200  Biso   1.000  H
  H84      1.0000 0.34530  0.12580  0.36200  Biso   1.000  H
  H85      1.0000 0.84530  0.37420  0.86200  Biso   1.000  H
  H86      1.0000 0.34530  0.87420  0.86200  Biso   1.000  H
  H87      1.0000 0.15470  0.37420  0.63800  Biso   1.000  H
  H88      1.0000 0.65470  0.87420  0.63800  Biso   1.000  H
  C137     1.0000 0.16260  0.32680  0.29270  Biso   1.000  C
  C138     1.0000 0.66260  0.82680  0.29270  Biso   1.000  C
  C139     1.0000 0.83740  0.32680  0.20730  Biso   1.000  C
  C140     1.0000 0.33740  0.82680  0.20730  Biso   1.000  C
  C141     1.0000 0.83740  0.67320  0.70730  Biso   1.000  C
  C142     1.0000 0.33740  0.17320  0.70730  Biso   1.000  C
  C143     1.0000 0.16260  0.67320  0.79270  Biso   1.000  C
  C144     1.0000 0.66260  0.17320  0.79270  Biso   1.000  C
  H89      1.0000 0.19440  0.38540  0.27620  Biso   1.000  H
  H90      1.0000 0.69440  0.88540  0.27620  Biso   1.000  H
  H91      1.0000 0.80560  0.38540  0.22380  Biso   1.000  H
  H92      1.0000 0.30560  0.88540  0.22380  Biso   1.000  H
  H93      1.0000 0.80560  0.61460  0.72380  Biso   1.000  H
  H94      1.0000 0.30560  0.11460  0.72380  Biso   1.000  H
  H95      1.0000 0.19440  0.61460  0.77620  Biso   1.000  H
  H96      1.0000 0.69440  0.11460  0.77620  Biso   1.000  H
  C145     1.0000 0.14450  0.17210  0.27140  Biso   1.000  C
  C146     1.0000 0.64450  0.67210  0.27140  Biso   1.000  C
  C147     1.0000 0.85550  0.17210  0.22860  Biso   1.000  C
  C148     1.0000 0.35550  0.67210  0.22860  Biso   1.000  C
  C149     1.0000 0.85550  0.82790  0.72860  Biso   1.000  C
  C150     1.0000 0.35550  0.32790  0.72860  Biso   1.000  C
  C151     1.0000 0.14450  0.82790  0.77140  Biso   1.000  C
  C152     1.0000 0.64450  0.32790  0.77140  Biso   1.000  C
  C153     1.0000 0.16850  0.83770  0.18320  Biso   1.000  C
  C154     1.0000 0.66850  0.33770  0.18320  Biso   1.000  C
  C155     1.0000 0.83150  0.83770  0.31680  Biso   1.000  C
  C156     1.0000 0.33150  0.33770  0.31680  Biso   1.000  C
  C157     1.0000 0.83150  0.16230  0.81680  Biso   1.000  C
  C158     1.0000 0.33150  0.66230  0.81680  Biso   1.000  C
  C159     1.0000 0.16850  0.16230  0.68320  Biso   1.000  C
  C160     1.0000 0.66850  0.66230  0.68320  Biso   1.000  C
  H97      1.0000 0.19960  0.79740  0.20680  Biso   1.000  H
  H98      1.0000 0.69960  0.29740  0.20680  Biso   1.000  H
  H99      1.0000 0.80040  0.79740  0.29320  Biso   1.000  H
  H100     1.0000 0.30040  0.29740  0.29320  Biso   1.000  H
  H101     1.0000 0.80040  0.20260  0.79320  Biso   1.000  H
  H102     1.0000 0.30040  0.70260  0.79320  Biso   1.000  H
  H103     1.0000 0.19960  0.20260  0.70680  Biso   1.000  H
  H104     1.0000 0.69960  0.70260  0.70680  Biso   1.000  H
