data_image0
_cell_length_a       9.764
_cell_length_b       9.764
_cell_length_c       14.996
_cell_angle_alpha    90
_cell_angle_beta     90
_cell_angle_gamma    90

_symmetry_space_group_name_H-M    "P 1"
_symmetry_int_tables_number       1

loop_
  _symmetry_equiv_pos_as_xyz
  'x, y, z'

loop_
  _atom_site_label
  _atom_site_occupancy
  _atom_site_fract_x
  _atom_site_fract_y
  _atom_site_fract_z
  _atom_site_thermal_displace_type
  _atom_site_B_iso_or_equiv
  _atom_site_type_symbol
  Cu1      1.0000 0.73519  0.06656  0.21600  Biso   1.000  Cu
  Cu2      1.0000 0.93344  0.23519  0.71600  Biso   1.000  Cu
  Cu3      1.0000 0.76481  0.43344  0.21600  Biso   1.000  Cu
  Cu4      1.0000 0.56656  0.26481  0.71600  Biso   1.000  Cu
  Cu5      1.0000 0.26481  0.93344  0.78400  Biso   1.000  Cu
  Cu6      1.0000 0.06656  0.76481  0.28400  Biso   1.000  Cu
  Cu7      1.0000 0.23519  0.56656  0.78400  Biso   1.000  Cu
  Cu8      1.0000 0.43344  0.73519  0.28400  Biso   1.000  Cu
  Cl1      1.0000 0.92717  0.27245  0.20290  Biso   1.000  Cl
  Cl2      1.0000 0.72755  0.42717  0.70290  Biso   1.000  Cl
  Cl3      1.0000 0.57283  0.22755  0.20290  Biso   1.000  Cl
  Cl4      1.0000 0.77245  0.07283  0.70290  Biso   1.000  Cl
  Cl5      1.0000 0.07283  0.72755  0.79710  Biso   1.000  Cl
  Cl6      1.0000 0.27245  0.57283  0.29710  Biso   1.000  Cl
  Cl7      1.0000 0.42717  0.77245  0.79710  Biso   1.000  Cl
  Cl8      1.0000 0.22755  0.92717  0.29710  Biso   1.000  Cl
  O1       1.0000 0.02612  0.79960  0.15433  Biso   1.000  O
  O2       1.0000 0.20040  0.52612  0.65433  Biso   1.000  O
  O3       1.0000 0.47388  0.70040  0.15433  Biso   1.000  O
  O4       1.0000 0.29960  0.97388  0.65433  Biso   1.000  O
  O5       1.0000 0.97388  0.20040  0.84567  Biso   1.000  O
  O6       1.0000 0.79960  0.47388  0.34567  Biso   1.000  O
  O7       1.0000 0.52612  0.29960  0.84567  Biso   1.000  O
  O8       1.0000 0.70040  0.02612  0.34567  Biso   1.000  O
  O9       1.0000 0.88445  0.93391  0.22796  Biso   1.000  O
  O10      1.0000 0.06609  0.38445  0.72796  Biso   1.000  O
  O11      1.0000 0.61555  0.56609  0.22796  Biso   1.000  O
  O12      1.0000 0.43391  0.11555  0.72796  Biso   1.000  O
  O13      1.0000 0.11555  0.06609  0.77204  Biso   1.000  O
  O14      1.0000 0.93391  0.61555  0.27204  Biso   1.000  O
  O15      1.0000 0.38445  0.43391  0.77204  Biso   1.000  O
  O16      1.0000 0.56609  0.88445  0.27204  Biso   1.000  O
  N1       1.0000 0.75350  0.01540  0.08821  Biso   1.000  N
  N2       1.0000 0.98460  0.25350  0.58821  Biso   1.000  N
  N3       1.0000 0.74650  0.48460  0.08821  Biso   1.000  N
  N4       1.0000 0.51540  0.24650  0.58821  Biso   1.000  N
  N5       1.0000 0.24650  0.98460  0.91179  Biso   1.000  N
  N6       1.0000 0.01540  0.74650  0.41179  Biso   1.000  N
  N7       1.0000 0.25350  0.51540  0.91179  Biso   1.000  N
  N8       1.0000 0.48460  0.75350  0.41179  Biso   1.000  N
  C1       1.0000 0.85390  0.92400  0.07279  Biso   1.000  C
  C2       1.0000 0.07600  0.35390  0.57279  Biso   1.000  C
  C3       1.0000 0.64610  0.57600  0.07279  Biso   1.000  C
  C4       1.0000 0.42400  0.14610  0.57279  Biso   1.000  C
  C5       1.0000 0.14610  0.07600  0.92721  Biso   1.000  C
  C6       1.0000 0.92400  0.64610  0.42721  Biso   1.000  C
  C7       1.0000 0.35390  0.42400  0.92721  Biso   1.000  C
  C8       1.0000 0.57600  0.85390  0.42721  Biso   1.000  C
  C9       1.0000 0.88060  0.87410  0.98880  Biso   1.000  C
  C10      1.0000 0.12590  0.38060  0.48880  Biso   1.000  C
  C11      1.0000 0.61940  0.62590  0.98880  Biso   1.000  C
  C12      1.0000 0.37410  0.11940  0.48880  Biso   1.000  C
  C13      1.0000 0.11940  0.12590  0.01120  Biso   1.000  C
  C14      1.0000 0.87410  0.61940  0.51120  Biso   1.000  C
  C15      1.0000 0.38060  0.37410  0.01120  Biso   1.000  C
  C16      1.0000 0.62590  0.88060  0.51120  Biso   1.000  C
  C17      1.0000 0.80360  0.91960  0.91700  Biso   1.000  C
  C18      1.0000 0.08040  0.30360  0.41700  Biso   1.000  C
  C19      1.0000 0.69640  0.58040  0.91700  Biso   1.000  C
  C20      1.0000 0.41960  0.19640  0.41700  Biso   1.000  C
  C21      1.0000 0.19640  0.08040  0.08300  Biso   1.000  C
  C22      1.0000 0.91960  0.69640  0.58300  Biso   1.000  C
  C23      1.0000 0.30360  0.41960  0.08300  Biso   1.000  C
  C24      1.0000 0.58040  0.80360  0.58300  Biso   1.000  C
  C25      1.0000 0.69980  0.01260  0.93010  Biso   1.000  C
  C26      1.0000 0.98740  0.19980  0.43010  Biso   1.000  C
  C27      1.0000 0.80020  0.48740  0.93010  Biso   1.000  C
  C28      1.0000 0.51260  0.30020  0.43010  Biso   1.000  C
  C29      1.0000 0.30020  0.98740  0.06990  Biso   1.000  C
  C30      1.0000 0.01260  0.80020  0.56990  Biso   1.000  C
  C31      1.0000 0.19980  0.51260  0.06990  Biso   1.000  C
  C32      1.0000 0.48740  0.69980  0.56990  Biso   1.000  C
  C33      1.0000 0.67810  0.05880  0.01790  Biso   1.000  C
  C34      1.0000 0.94120  0.17810  0.51790  Biso   1.000  C
  C35      1.0000 0.82190  0.44120  0.01790  Biso   1.000  C
  C36      1.0000 0.55880  0.32190  0.51790  Biso   1.000  C
  C37      1.0000 0.32190  0.94120  0.98210  Biso   1.000  C
  C38      1.0000 0.05880  0.82190  0.48210  Biso   1.000  C
  C39      1.0000 0.17810  0.55880  0.98210  Biso   1.000  C
  C40      1.0000 0.44120  0.67810  0.48210  Biso   1.000  C
  C41      1.0000 0.92600  0.88040  0.15545  Biso   1.000  C
  C42      1.0000 0.11960  0.42600  0.65545  Biso   1.000  C
  C43      1.0000 0.57400  0.61960  0.15545  Biso   1.000  C
  C44      1.0000 0.38040  0.07400  0.65545  Biso   1.000  C
  C45      1.0000 0.07400  0.11960  0.84455  Biso   1.000  C
  C46      1.0000 0.88040  0.57400  0.34455  Biso   1.000  C
  C47      1.0000 0.42600  0.38040  0.84455  Biso   1.000  C
  C48      1.0000 0.61960  0.92600  0.34455  Biso   1.000  C
  H1       1.0000 0.96080  0.79950  0.97870  Biso   1.000  H
  H2       1.0000 0.20050  0.46080  0.47870  Biso   1.000  H
  H3       1.0000 0.53920  0.70050  0.97870  Biso   1.000  H
  H4       1.0000 0.29950  0.03920  0.47870  Biso   1.000  H
  H5       1.0000 0.03920  0.20050  0.02130  Biso   1.000  H
  H6       1.0000 0.79950  0.53920  0.52130  Biso   1.000  H
  H7       1.0000 0.46080  0.29950  0.02130  Biso   1.000  H
  H8       1.0000 0.70050  0.96080  0.52130  Biso   1.000  H
  H9       1.0000 0.82500  0.88220  0.85070  Biso   1.000  H
  H10      1.0000 0.11780  0.32500  0.35070  Biso   1.000  H
  H11      1.0000 0.67500  0.61780  0.85070  Biso   1.000  H
  H12      1.0000 0.38220  0.17500  0.35070  Biso   1.000  H
  H13      1.0000 0.17500  0.11780  0.14930  Biso   1.000  H
  H14      1.0000 0.88220  0.67500  0.64930  Biso   1.000  H
  H15      1.0000 0.32500  0.38220  0.14930  Biso   1.000  H
  H16      1.0000 0.61780  0.82500  0.64930  Biso   1.000  H
  H17      1.0000 0.63800  0.04940  0.87540  Biso   1.000  H
  H18      1.0000 0.95060  0.13800  0.37540  Biso   1.000  H
  H19      1.0000 0.86200  0.45060  0.87540  Biso   1.000  H
  H20      1.0000 0.54940  0.36200  0.37540  Biso   1.000  H
  H21      1.0000 0.36200  0.95060  0.12460  Biso   1.000  H
  H22      1.0000 0.04940  0.86200  0.62460  Biso   1.000  H
  H23      1.0000 0.13800  0.54940  0.12460  Biso   1.000  H
  H24      1.0000 0.45060  0.63800  0.62460  Biso   1.000  H
  H25      1.0000 0.59750  0.13220  0.03000  Biso   1.000  H
  H26      1.0000 0.86780  0.09750  0.53000  Biso   1.000  H
  H27      1.0000 0.90250  0.36780  0.03000  Biso   1.000  H
  H28      1.0000 0.63220  0.40250  0.53000  Biso   1.000  H
  H29      1.0000 0.40250  0.86780  0.97000  Biso   1.000  H
  H30      1.0000 0.13220  0.90250  0.47000  Biso   1.000  H
  H31      1.0000 0.09750  0.63220  0.97000  Biso   1.000  H
  H32      1.0000 0.36780  0.59750  0.47000  Biso   1.000  H
