data_image0
_cell_length_a       9.483
_cell_length_b       14.08
_cell_length_c       17.688
_cell_angle_alpha    90
_cell_angle_beta     90
_cell_angle_gamma    90

_symmetry_space_group_name_H-M    "P 1"
_symmetry_int_tables_number       1

loop_
  _symmetry_equiv_pos_as_xyz
  'x, y, z'

loop_
  _atom_site_label
  _atom_site_occupancy
  _atom_site_fract_x
  _atom_site_fract_y
  _atom_site_fract_z
  _atom_site_thermal_displace_type
  _atom_site_B_iso_or_equiv
  _atom_site_type_symbol
  Cu1      1.0000 0.25000  0.75000  0.35520  Biso   1.000  Cu
  Cu2      1.0000 0.75000  0.25000  0.14480  Biso   1.000  Cu
  Cu3      1.0000 0.75000  0.25000  0.64480  Biso   1.000  Cu
  Cu4      1.0000 0.25000  0.75000  0.85520  Biso   1.000  Cu
  B1       1.0000 0.40830  0.53300  0.10450  Biso   1.000  B
  B2       1.0000 0.09170  0.96700  0.10450  Biso   1.000  B
  B3       1.0000 0.90830  0.46700  0.39550  Biso   1.000  B
  B4       1.0000 0.59170  0.03300  0.39550  Biso   1.000  B
  B5       1.0000 0.59170  0.46700  0.89550  Biso   1.000  B
  B6       1.0000 0.90830  0.03300  0.89550  Biso   1.000  B
  B7       1.0000 0.09170  0.53300  0.60450  Biso   1.000  B
  B8       1.0000 0.40830  0.96700  0.60450  Biso   1.000  B
  N1       1.0000 0.32580  0.56580  0.17800  Biso   1.000  N
  N2       1.0000 0.17420  0.93420  0.17800  Biso   1.000  N
  N3       1.0000 0.82580  0.43420  0.32200  Biso   1.000  N
  N4       1.0000 0.67420  0.06580  0.32200  Biso   1.000  N
  N5       1.0000 0.67420  0.43420  0.82200  Biso   1.000  N
  N6       1.0000 0.82580  0.06580  0.82200  Biso   1.000  N
  N7       1.0000 0.17420  0.56580  0.67800  Biso   1.000  N
  N8       1.0000 0.32580  0.93420  0.67800  Biso   1.000  N
  N9       1.0000 0.21940  0.51550  0.21180  Biso   1.000  N
  N10      1.0000 0.28060  0.98450  0.21180  Biso   1.000  N
  N11      1.0000 0.71940  0.48450  0.28820  Biso   1.000  N
  N12      1.0000 0.78060  0.01550  0.28820  Biso   1.000  N
  N13      1.0000 0.78060  0.48450  0.78820  Biso   1.000  N
  N14      1.0000 0.71940  0.01550  0.78820  Biso   1.000  N
  N15      1.0000 0.28060  0.51550  0.71180  Biso   1.000  N
  N16      1.0000 0.21940  0.98450  0.71180  Biso   1.000  N
  C1       1.0000 0.18450  0.56700  0.26840  Biso   1.000  C
  C2       1.0000 0.31550  0.93300  0.26840  Biso   1.000  C
  C3       1.0000 0.68450  0.43300  0.23160  Biso   1.000  C
  C4       1.0000 0.81550  0.06700  0.23160  Biso   1.000  C
  C5       1.0000 0.81550  0.43300  0.73160  Biso   1.000  C
  C6       1.0000 0.68450  0.06700  0.73160  Biso   1.000  C
  C7       1.0000 0.31550  0.56700  0.76840  Biso   1.000  C
  C8       1.0000 0.18450  0.93300  0.76840  Biso   1.000  C
  N17      1.0000 0.25510  0.64900  0.27470  Biso   1.000  N
  N18      1.0000 0.24490  0.85100  0.27470  Biso   1.000  N
  N19      1.0000 0.75510  0.35100  0.22530  Biso   1.000  N
  N20      1.0000 0.74490  0.14900  0.22530  Biso   1.000  N
  N21      1.0000 0.74490  0.35100  0.72530  Biso   1.000  N
  N22      1.0000 0.75510  0.14900  0.72530  Biso   1.000  N
  N23      1.0000 0.24490  0.64900  0.77470  Biso   1.000  N
  N24      1.0000 0.25510  0.85100  0.77470  Biso   1.000  N
  C9       1.0000 0.33960  0.64500  0.21690  Biso   1.000  C
  C10      1.0000 0.16040  0.85500  0.21690  Biso   1.000  C
  C11      1.0000 0.83960  0.35500  0.28310  Biso   1.000  C
  C12      1.0000 0.66040  0.14500  0.28310  Biso   1.000  C
  C13      1.0000 0.66040  0.35500  0.78310  Biso   1.000  C
  C14      1.0000 0.83960  0.14500  0.78310  Biso   1.000  C
  C15      1.0000 0.16040  0.64500  0.71690  Biso   1.000  C
  C16      1.0000 0.33960  0.85500  0.71690  Biso   1.000  C
  N25      1.0000 0.32570  0.56710  0.03420  Biso   1.000  N
  N26      1.0000 0.17430  0.93290  0.03420  Biso   1.000  N
  N27      1.0000 0.82570  0.43290  0.46580  Biso   1.000  N
  N28      1.0000 0.67430  0.06710  0.46580  Biso   1.000  N
  N29      1.0000 0.67430  0.43290  0.96580  Biso   1.000  N
  N30      1.0000 0.82570  0.06710  0.96580  Biso   1.000  N
  N31      1.0000 0.17430  0.56710  0.53420  Biso   1.000  N
  N32      1.0000 0.32570  0.93290  0.53420  Biso   1.000  N
  N33      1.0000 0.21050  0.52100  0.00510  Biso   1.000  N
  N34      1.0000 0.28950  0.97900  0.00510  Biso   1.000  N
  N35      1.0000 0.71050  0.47900  0.49490  Biso   1.000  N
  N36      1.0000 0.78950  0.02100  0.49490  Biso   1.000  N
  N37      1.0000 0.78950  0.47900  0.99490  Biso   1.000  N
  N38      1.0000 0.71050  0.02100  0.99490  Biso   1.000  N
  N39      1.0000 0.28950  0.52100  0.50510  Biso   1.000  N
  N40      1.0000 0.21050  0.97900  0.50510  Biso   1.000  N
  C17      1.0000 0.17380  0.57160  0.94750  Biso   1.000  C
  C18      1.0000 0.32620  0.92840  0.94750  Biso   1.000  C
  C19      1.0000 0.67380  0.42840  0.55250  Biso   1.000  C
  C20      1.0000 0.82620  0.07160  0.55250  Biso   1.000  C
  C21      1.0000 0.82620  0.42840  0.05250  Biso   1.000  C
  C22      1.0000 0.67380  0.07160  0.05250  Biso   1.000  C
  C23      1.0000 0.32620  0.57160  0.44750  Biso   1.000  C
  C24      1.0000 0.17380  0.92840  0.44750  Biso   1.000  C
  N41      1.0000 0.24440  0.64880  0.43590  Biso   1.000  N
  N42      1.0000 0.25560  0.85120  0.43590  Biso   1.000  N
  N43      1.0000 0.74440  0.35120  0.06410  Biso   1.000  N
  N44      1.0000 0.75560  0.14880  0.06410  Biso   1.000  N
  N45      1.0000 0.75560  0.35120  0.56410  Biso   1.000  N
  N46      1.0000 0.74440  0.14880  0.56410  Biso   1.000  N
  N47      1.0000 0.25560  0.64880  0.93590  Biso   1.000  N
  N48      1.0000 0.24440  0.85120  0.93590  Biso   1.000  N
  C25      1.0000 0.34540  0.64300  0.99250  Biso   1.000  C
  C26      1.0000 0.15460  0.85700  0.99250  Biso   1.000  C
  C27      1.0000 0.84540  0.35700  0.50750  Biso   1.000  C
  C28      1.0000 0.65460  0.14300  0.50750  Biso   1.000  C
  C29      1.0000 0.65460  0.35700  0.00750  Biso   1.000  C
  C30      1.0000 0.84540  0.14300  0.00750  Biso   1.000  C
  C31      1.0000 0.15460  0.64300  0.49250  Biso   1.000  C
  C32      1.0000 0.34540  0.85700  0.49250  Biso   1.000  C
  O1       1.0000 0.50190  0.74020  0.35700  Biso   1.000  O
  O2       1.0000 0.99810  0.75980  0.35700  Biso   1.000  O
  O3       1.0000 0.00190  0.25980  0.14300  Biso   1.000  O
  O4       1.0000 0.49810  0.24020  0.14300  Biso   1.000  O
  O5       1.0000 0.49810  0.25980  0.64300  Biso   1.000  O
  O6       1.0000 0.00190  0.24020  0.64300  Biso   1.000  O
  O7       1.0000 0.99810  0.74020  0.85700  Biso   1.000  O
  O8       1.0000 0.50190  0.75980  0.85700  Biso   1.000  O
  H1       1.0000 0.52400  0.56740  0.10020  Biso   1.000  H
  H2       1.0000 0.97600  0.93260  0.10020  Biso   1.000  H
  H3       1.0000 0.02400  0.43260  0.39980  Biso   1.000  H
  H4       1.0000 0.47600  0.06740  0.39980  Biso   1.000  H
  H5       1.0000 0.47600  0.43260  0.89980  Biso   1.000  H
  H6       1.0000 0.02400  0.06740  0.89980  Biso   1.000  H
  H7       1.0000 0.97600  0.56740  0.60020  Biso   1.000  H
  H8       1.0000 0.52400  0.93260  0.60020  Biso   1.000  H
  H9       1.0000 0.41200  0.46580  0.11310  Biso   1.000  H
  H10      1.0000 0.08800  0.03420  0.11310  Biso   1.000  H
  H11      1.0000 0.91200  0.53420  0.38690  Biso   1.000  H
  H12      1.0000 0.58800  0.96580  0.38690  Biso   1.000  H
  H13      1.0000 0.58800  0.53420  0.88690  Biso   1.000  H
  H14      1.0000 0.91200  0.96580  0.88690  Biso   1.000  H
  H15      1.0000 0.08800  0.46580  0.61310  Biso   1.000  H
  H16      1.0000 0.41200  0.03420  0.61310  Biso   1.000  H
  H17      1.0000 0.12800  0.54750  0.31030  Biso   1.000  H
  H18      1.0000 0.37200  0.95250  0.31030  Biso   1.000  H
  H19      1.0000 0.62800  0.45250  0.18970  Biso   1.000  H
  H20      1.0000 0.87200  0.04750  0.18970  Biso   1.000  H
  H21      1.0000 0.87200  0.45250  0.68970  Biso   1.000  H
  H22      1.0000 0.62800  0.04750  0.68970  Biso   1.000  H
  H23      1.0000 0.37200  0.54750  0.81030  Biso   1.000  H
  H24      1.0000 0.12800  0.95250  0.81030  Biso   1.000  H
  H25      1.0000 0.43100  0.67670  0.19900  Biso   1.000  H
  H26      1.0000 0.06900  0.82330  0.19900  Biso   1.000  H
  H27      1.0000 0.93100  0.32330  0.30100  Biso   1.000  H
  H28      1.0000 0.56900  0.17670  0.30100  Biso   1.000  H
  H29      1.0000 0.56900  0.32330  0.80100  Biso   1.000  H
  H30      1.0000 0.93100  0.17670  0.80100  Biso   1.000  H
  H31      1.0000 0.06900  0.67670  0.69900  Biso   1.000  H
  H32      1.0000 0.43100  0.82330  0.69900  Biso   1.000  H
  H33      1.0000 0.10380  0.54610  0.91190  Biso   1.000  H
  H34      1.0000 0.39620  0.95390  0.91190  Biso   1.000  H
  H35      1.0000 0.60380  0.45390  0.58810  Biso   1.000  H
  H36      1.0000 0.89620  0.04610  0.58810  Biso   1.000  H
  H37      1.0000 0.89620  0.45390  0.08810  Biso   1.000  H
  H38      1.0000 0.60380  0.04610  0.08810  Biso   1.000  H
  H39      1.0000 0.39620  0.54610  0.41190  Biso   1.000  H
  H40      1.0000 0.10380  0.95390  0.41190  Biso   1.000  H
  H41      1.0000 0.42800  0.67370  0.99970  Biso   1.000  H
  H42      1.0000 0.07200  0.82630  0.99970  Biso   1.000  H
  H43      1.0000 0.92800  0.32630  0.50030  Biso   1.000  H
  H44      1.0000 0.57200  0.17370  0.50030  Biso   1.000  H
  H45      1.0000 0.57200  0.32630  0.00030  Biso   1.000  H
  H46      1.0000 0.92800  0.17370  0.00030  Biso   1.000  H
  H47      1.0000 0.07200  0.67370  0.49970  Biso   1.000  H
  H48      1.0000 0.42800  0.82630  0.49970  Biso   1.000  H
  H49      1.0000 0.56300  0.69450  0.37980  Biso   1.000  H
  H50      1.0000 0.93700  0.80550  0.37980  Biso   1.000  H
  H51      1.0000 0.06300  0.30550  0.12020  Biso   1.000  H
  H52      1.0000 0.43700  0.19450  0.12020  Biso   1.000  H
  H53      1.0000 0.43700  0.30550  0.62020  Biso   1.000  H
  H54      1.0000 0.06300  0.19450  0.62020  Biso   1.000  H
  H55      1.0000 0.93700  0.69450  0.87980  Biso   1.000  H
  H56      1.0000 0.56300  0.80550  0.87980  Biso   1.000  H
  H57      1.0000 0.56400  0.77980  0.33110  Biso   1.000  H
  H58      1.0000 0.93600  0.72020  0.33110  Biso   1.000  H
  H59      1.0000 0.06400  0.22020  0.16890  Biso   1.000  H
  H60      1.0000 0.43600  0.27980  0.16890  Biso   1.000  H
  H61      1.0000 0.43600  0.22020  0.66890  Biso   1.000  H
  H62      1.0000 0.06400  0.27980  0.66890  Biso   1.000  H
  H63      1.0000 0.93600  0.77980  0.83110  Biso   1.000  H
  H64      1.0000 0.56400  0.72020  0.83110  Biso   1.000  H
  O9       1.0000 0.64960  0.68080  0.48660  Biso   1.000  O
  O10      1.0000 0.85040  0.81920  0.48660  Biso   1.000  O
  O11      1.0000 0.14960  0.31920  0.01340  Biso   1.000  O
  O12      1.0000 0.35040  0.18080  0.01340  Biso   1.000  O
  O13      1.0000 0.35040  0.31920  0.51340  Biso   1.000  O
  O14      1.0000 0.14960  0.18080  0.51340  Biso   1.000  O
  O15      1.0000 0.85040  0.68080  0.98660  Biso   1.000  O
  O16      1.0000 0.64960  0.81920  0.98660  Biso   1.000  O
  H65      1.0000 0.60000  0.70860  0.52420  Biso   1.000  H
  H66      1.0000 0.90000  0.79140  0.52420  Biso   1.000  H
  H67      1.0000 0.10000  0.29140  0.97580  Biso   1.000  H
  H68      1.0000 0.40000  0.20860  0.97580  Biso   1.000  H
  H69      1.0000 0.40000  0.29140  0.47580  Biso   1.000  H
  H70      1.0000 0.10000  0.20860  0.47580  Biso   1.000  H
  H71      1.0000 0.90000  0.70860  0.02420  Biso   1.000  H
  H72      1.0000 0.60000  0.79140  0.02420  Biso   1.000  H
  H73      1.0000 0.68300  0.63020  0.48370  Biso   1.000  H
  H74      1.0000 0.81700  0.86980  0.48370  Biso   1.000  H
  H75      1.0000 0.18300  0.36980  0.01630  Biso   1.000  H
  H76      1.0000 0.31700  0.13020  0.01630  Biso   1.000  H
  H77      1.0000 0.31700  0.36980  0.51630  Biso   1.000  H
  H78      1.0000 0.18300  0.13020  0.51630  Biso   1.000  H
  H79      1.0000 0.81700  0.63020  0.98370  Biso   1.000  H
  H80      1.0000 0.68300  0.86980  0.98370  Biso   1.000  H
  O17      1.0000 0.66490  0.83060  0.24520  Biso   1.000  O
  O18      1.0000 0.83510  0.66940  0.24520  Biso   1.000  O
  O19      1.0000 0.16490  0.16940  0.25480  Biso   1.000  O
  O20      1.0000 0.33510  0.33060  0.25480  Biso   1.000  O
  O21      1.0000 0.33510  0.16940  0.75480  Biso   1.000  O
  O22      1.0000 0.16490  0.33060  0.75480  Biso   1.000  O
  O23      1.0000 0.83510  0.83060  0.74520  Biso   1.000  O
  O24      1.0000 0.66490  0.66940  0.74520  Biso   1.000  O
  H81      1.0000 0.71600  0.87370  0.22370  Biso   1.000  H
  H82      1.0000 0.78400  0.62630  0.22370  Biso   1.000  H
  H83      1.0000 0.21600  0.12630  0.27630  Biso   1.000  H
  H84      1.0000 0.28400  0.37370  0.27630  Biso   1.000  H
  H85      1.0000 0.28400  0.12630  0.77630  Biso   1.000  H
  H86      1.0000 0.21600  0.37370  0.77630  Biso   1.000  H
  H87      1.0000 0.78400  0.87370  0.72370  Biso   1.000  H
  H88      1.0000 0.71600  0.62630  0.72370  Biso   1.000  H
  H89      1.0000 0.69700  0.77390  0.24100  Biso   1.000  H
  H90      1.0000 0.80300  0.72610  0.24100  Biso   1.000  H
  H91      1.0000 0.19700  0.22610  0.25900  Biso   1.000  H
  H92      1.0000 0.30300  0.27390  0.25900  Biso   1.000  H
  H93      1.0000 0.30300  0.22610  0.75900  Biso   1.000  H
  H94      1.0000 0.19700  0.27390  0.75900  Biso   1.000  H
  H95      1.0000 0.80300  0.77390  0.74100  Biso   1.000  H
  H96      1.0000 0.69700  0.72610  0.74100  Biso   1.000  H
  O25      1.0000 0.49580  0.65950  0.61940  Biso   1.000  O
  O26      1.0000 0.00420  0.84050  0.61940  Biso   1.000  O
  O27      1.0000 0.99580  0.34050  0.88060  Biso   1.000  O
  O28      1.0000 0.50420  0.15950  0.88060  Biso   1.000  O
  O29      1.0000 0.50420  0.34050  0.38060  Biso   1.000  O
  O30      1.0000 0.99580  0.15950  0.38060  Biso   1.000  O
  O31      1.0000 0.00420  0.65950  0.11940  Biso   1.000  O
  O32      1.0000 0.49580  0.84050  0.11940  Biso   1.000  O
  H97      1.0000 0.50200  0.59700  0.63530  Biso   1.000  H
  H98      1.0000 0.99800  0.90300  0.63530  Biso   1.000  H
  H99      1.0000 0.00200  0.40300  0.86470  Biso   1.000  H
  H100     1.0000 0.49800  0.09700  0.86470  Biso   1.000  H
  H101     1.0000 0.49800  0.40300  0.36470  Biso   1.000  H
  H102     1.0000 0.00200  0.09700  0.36470  Biso   1.000  H
  H103     1.0000 0.99800  0.59700  0.13530  Biso   1.000  H
  H104     1.0000 0.50200  0.90300  0.13530  Biso   1.000  H
  H105     1.0000 0.54600  0.66290  0.57090  Biso   1.000  H
  H106     1.0000 0.95400  0.83710  0.57090  Biso   1.000  H
  H107     1.0000 0.04600  0.33710  0.92910  Biso   1.000  H
  H108     1.0000 0.45400  0.16290  0.92910  Biso   1.000  H
  H109     1.0000 0.45400  0.33710  0.42910  Biso   1.000  H
  H110     1.0000 0.04600  0.16290  0.42910  Biso   1.000  H
  H111     1.0000 0.95400  0.66290  0.07090  Biso   1.000  H
  H112     1.0000 0.54600  0.83710  0.07090  Biso   1.000  H
