data_image0
_cell_length_a       18.2664
_cell_length_b       19.1141
_cell_length_c       11.0179
_cell_angle_alpha    90
_cell_angle_beta     119.647
_cell_angle_gamma    90

_symmetry_space_group_name_H-M    "P 1"
_symmetry_int_tables_number       1

loop_
  _symmetry_equiv_pos_as_xyz
  'x, y, z'

loop_
  _atom_site_label
  _atom_site_occupancy
  _atom_site_fract_x
  _atom_site_fract_y
  _atom_site_fract_z
  _atom_site_thermal_displace_type
  _atom_site_B_iso_or_equiv
  _atom_site_type_symbol
  Cu1      1.0000 0.50000  0.92134  0.25000  Biso   1.000  Cu
  Cu2      1.0000 0.00000  0.42134  0.25000  Biso   1.000  Cu
  Cu3      1.0000 0.50000  0.07866  0.75000  Biso   1.000  Cu
  Cu4      1.0000 0.00000  0.57866  0.75000  Biso   1.000  Cu
  Cu5      1.0000 0.39878  0.06521  0.99268  Biso   1.000  Cu
  Cu6      1.0000 0.89878  0.56521  0.99268  Biso   1.000  Cu
  Cu7      1.0000 0.60122  0.06521  0.50732  Biso   1.000  Cu
  Cu8      1.0000 0.10122  0.56521  0.50732  Biso   1.000  Cu
  Cu9      1.0000 0.60122  0.93479  0.00732  Biso   1.000  Cu
  Cu10     1.0000 0.10122  0.43479  0.00732  Biso   1.000  Cu
  Cu11     1.0000 0.39878  0.93479  0.49268  Biso   1.000  Cu
  Cu12     1.0000 0.89878  0.43479  0.49268  Biso   1.000  Cu
  O1       1.0000 0.39720  0.91190  0.07330  Biso   1.000  O
  O2       1.0000 0.89720  0.41190  0.07330  Biso   1.000  O
  O3       1.0000 0.60280  0.91190  0.42670  Biso   1.000  O
  O4       1.0000 0.10280  0.41190  0.42670  Biso   1.000  O
  O5       1.0000 0.60280  0.08810  0.92670  Biso   1.000  O
  O6       1.0000 0.10280  0.58810  0.92670  Biso   1.000  O
  O7       1.0000 0.39720  0.08810  0.57330  Biso   1.000  O
  O8       1.0000 0.89720  0.58810  0.57330  Biso   1.000  O
  N1       1.0000 0.35700  0.96860  0.00610  Biso   1.000  N
  N2       1.0000 0.85700  0.46860  0.00610  Biso   1.000  N
  N3       1.0000 0.64300  0.96860  0.49390  Biso   1.000  N
  N4       1.0000 0.14300  0.46860  0.49390  Biso   1.000  N
  N5       1.0000 0.64300  0.03140  0.99390  Biso   1.000  N
  N6       1.0000 0.14300  0.53140  0.99390  Biso   1.000  N
  N7       1.0000 0.35700  0.03140  0.50610  Biso   1.000  N
  N8       1.0000 0.85700  0.53140  0.50610  Biso   1.000  N
  C1       1.0000 0.27690  0.96420  0.92110  Biso   1.000  C
  C2       1.0000 0.77690  0.46420  0.92110  Biso   1.000  C
  C3       1.0000 0.72310  0.96420  0.57890  Biso   1.000  C
  C4       1.0000 0.22310  0.46420  0.57890  Biso   1.000  C
  C5       1.0000 0.72310  0.03580  0.07890  Biso   1.000  C
  C6       1.0000 0.22310  0.53580  0.07890  Biso   1.000  C
  C7       1.0000 0.27690  0.03580  0.42110  Biso   1.000  C
  C8       1.0000 0.77690  0.53580  0.42110  Biso   1.000  C
  C9       1.0000 0.23350  0.89920  0.91020  Biso   1.000  C
  C10      1.0000 0.73350  0.39920  0.91020  Biso   1.000  C
  C11      1.0000 0.76650  0.89920  0.58980  Biso   1.000  C
  C12      1.0000 0.26650  0.39920  0.58980  Biso   1.000  C
  C13      1.0000 0.76650  0.10080  0.08980  Biso   1.000  C
  C14      1.0000 0.26650  0.60080  0.08980  Biso   1.000  C
  C15      1.0000 0.23350  0.10080  0.41020  Biso   1.000  C
  C16      1.0000 0.73350  0.60080  0.41020  Biso   1.000  C
  N9       1.0000 0.20170  0.84690  0.90190  Biso   1.000  N
  N10      1.0000 0.70170  0.34690  0.90190  Biso   1.000  N
  N11      1.0000 0.79830  0.84690  0.59810  Biso   1.000  N
  N12      1.0000 0.29830  0.34690  0.59810  Biso   1.000  N
  N13      1.0000 0.79830  0.15310  0.09810  Biso   1.000  N
  N14      1.0000 0.29830  0.65310  0.09810  Biso   1.000  N
  N15      1.0000 0.20170  0.15310  0.40190  Biso   1.000  N
  N16      1.0000 0.70170  0.65310  0.40190  Biso   1.000  N
  C17      1.0000 0.23140  0.02760  0.83940  Biso   1.000  C
  C18      1.0000 0.73140  0.52760  0.83940  Biso   1.000  C
  C19      1.0000 0.76860  0.02760  0.66060  Biso   1.000  C
  C20      1.0000 0.26860  0.52760  0.66060  Biso   1.000  C
  C21      1.0000 0.76860  0.97240  0.16060  Biso   1.000  C
  C22      1.0000 0.26860  0.47240  0.16060  Biso   1.000  C
  C23      1.0000 0.23140  0.97240  0.33940  Biso   1.000  C
  C24      1.0000 0.73140  0.47240  0.33940  Biso   1.000  C
  O9       1.0000 0.15090  0.02380  0.76120  Biso   1.000  O
  O10      1.0000 0.65090  0.52380  0.76120  Biso   1.000  O
  O11      1.0000 0.84910  0.02380  0.73880  Biso   1.000  O
  O12      1.0000 0.34910  0.52380  0.73880  Biso   1.000  O
  O13      1.0000 0.84910  0.97620  0.23880  Biso   1.000  O
  O14      1.0000 0.34910  0.47620  0.23880  Biso   1.000  O
  O15      1.0000 0.15090  0.97620  0.26120  Biso   1.000  O
  O16      1.0000 0.65090  0.47620  0.26120  Biso   1.000  O
  N17      1.0000 0.27950  0.08100  0.86030  Biso   1.000  N
  N18      1.0000 0.77950  0.58100  0.86030  Biso   1.000  N
  N19      1.0000 0.72050  0.08100  0.63970  Biso   1.000  N
  N20      1.0000 0.22050  0.58100  0.63970  Biso   1.000  N
  N21      1.0000 0.72050  0.91900  0.13970  Biso   1.000  N
  N22      1.0000 0.22050  0.41900  0.13970  Biso   1.000  N
  N23      1.0000 0.27950  0.91900  0.36030  Biso   1.000  N
  N24      1.0000 0.77950  0.41900  0.36030  Biso   1.000  N
  C25      1.0000 0.24200  0.14670  0.79410  Biso   1.000  C
  C26      1.0000 0.74200  0.64670  0.79410  Biso   1.000  C
  C27      1.0000 0.75800  0.14670  0.70590  Biso   1.000  C
  C28      1.0000 0.25800  0.64670  0.70590  Biso   1.000  C
  C29      1.0000 0.75800  0.85330  0.20590  Biso   1.000  C
  C30      1.0000 0.25800  0.35330  0.20590  Biso   1.000  C
  C31      1.0000 0.24200  0.85330  0.29410  Biso   1.000  C
  C32      1.0000 0.74200  0.35330  0.29410  Biso   1.000  C
  H1       1.0000 0.21520  0.16850  0.84380  Biso   1.000  H
  H2       1.0000 0.71520  0.66850  0.84380  Biso   1.000  H
  H3       1.0000 0.78480  0.16850  0.65620  Biso   1.000  H
  H4       1.0000 0.28480  0.66850  0.65620  Biso   1.000  H
  H5       1.0000 0.78480  0.83150  0.15620  Biso   1.000  H
  H6       1.0000 0.28480  0.33150  0.15620  Biso   1.000  H
  H7       1.0000 0.21520  0.83150  0.34380  Biso   1.000  H
  H8       1.0000 0.71520  0.33150  0.34380  Biso   1.000  H
  H9       1.0000 0.19740  0.13770  0.69670  Biso   1.000  H
  H10      1.0000 0.69740  0.63770  0.69670  Biso   1.000  H
  H11      1.0000 0.80260  0.13770  0.80330  Biso   1.000  H
  H12      1.0000 0.30260  0.63770  0.80330  Biso   1.000  H
  H13      1.0000 0.80260  0.86230  0.30330  Biso   1.000  H
  H14      1.0000 0.30260  0.36230  0.30330  Biso   1.000  H
  H15      1.0000 0.19740  0.86230  0.19670  Biso   1.000  H
  H16      1.0000 0.69740  0.36230  0.19670  Biso   1.000  H
  C33      1.0000 0.30500  0.19670  0.79330  Biso   1.000  C
  C34      1.0000 0.80500  0.69670  0.79330  Biso   1.000  C
  C35      1.0000 0.69500  0.19670  0.70670  Biso   1.000  C
  C36      1.0000 0.19500  0.69670  0.70670  Biso   1.000  C
  C37      1.0000 0.69500  0.80330  0.20670  Biso   1.000  C
  C38      1.0000 0.19500  0.30330  0.20670  Biso   1.000  C
  C39      1.0000 0.30500  0.80330  0.29330  Biso   1.000  C
  C40      1.0000 0.80500  0.30330  0.29330  Biso   1.000  C
  H17      1.0000 0.27400  0.23830  0.73820  Biso   1.000  H
  H18      1.0000 0.77400  0.73830  0.73820  Biso   1.000  H
  H19      1.0000 0.72600  0.23830  0.76180  Biso   1.000  H
  H20      1.0000 0.22600  0.73830  0.76180  Biso   1.000  H
  H21      1.0000 0.72600  0.76170  0.26180  Biso   1.000  H
  H22      1.0000 0.22600  0.26170  0.26180  Biso   1.000  H
  H23      1.0000 0.27400  0.76170  0.23820  Biso   1.000  H
  H24      1.0000 0.77400  0.26170  0.23820  Biso   1.000  H
  H25      1.0000 0.33120  0.17400  0.74330  Biso   1.000  H
  H26      1.0000 0.83120  0.67400  0.74330  Biso   1.000  H
  H27      1.0000 0.66880  0.17400  0.75670  Biso   1.000  H
  H28      1.0000 0.16880  0.67400  0.75670  Biso   1.000  H
  H29      1.0000 0.66880  0.82600  0.25670  Biso   1.000  H
  H30      1.0000 0.16880  0.32600  0.25670  Biso   1.000  H
  H31      1.0000 0.33120  0.82600  0.24330  Biso   1.000  H
  H32      1.0000 0.83120  0.32600  0.24330  Biso   1.000  H
  C41      1.0000 0.37660  0.22240  0.93660  Biso   1.000  C
  C42      1.0000 0.87660  0.72240  0.93660  Biso   1.000  C
  C43      1.0000 0.62340  0.22240  0.56340  Biso   1.000  C
  C44      1.0000 0.12340  0.72240  0.56340  Biso   1.000  C
  C45      1.0000 0.62340  0.77760  0.06340  Biso   1.000  C
  C46      1.0000 0.12340  0.27760  0.06340  Biso   1.000  C
  C47      1.0000 0.37660  0.77760  0.43660  Biso   1.000  C
  C48      1.0000 0.87660  0.27760  0.43660  Biso   1.000  C
  H33      1.0000 0.40990  0.25910  0.92280  Biso   1.000  H
  H34      1.0000 0.90990  0.75910  0.92280  Biso   1.000  H
  H35      1.0000 0.59010  0.25910  0.57720  Biso   1.000  H
  H36      1.0000 0.09010  0.75910  0.57720  Biso   1.000  H
  H37      1.0000 0.59010  0.74090  0.07720  Biso   1.000  H
  H38      1.0000 0.09010  0.24090  0.07720  Biso   1.000  H
  H39      1.0000 0.40990  0.74090  0.42280  Biso   1.000  H
  H40      1.0000 0.90990  0.24090  0.42280  Biso   1.000  H
  H41      1.0000 0.35240  0.24240  0.99200  Biso   1.000  H
  H42      1.0000 0.85240  0.74240  0.99200  Biso   1.000  H
  H43      1.0000 0.64760  0.24240  0.50800  Biso   1.000  H
  H44      1.0000 0.14760  0.74240  0.50800  Biso   1.000  H
  H45      1.0000 0.64760  0.75760  0.00800  Biso   1.000  H
  H46      1.0000 0.14760  0.25760  0.00800  Biso   1.000  H
  H47      1.0000 0.35240  0.75760  0.49200  Biso   1.000  H
  H48      1.0000 0.85240  0.25760  0.49200  Biso   1.000  H
  N25      1.0000 0.43140  0.16170  0.01150  Biso   1.000  N
  N26      1.0000 0.93140  0.66170  0.01150  Biso   1.000  N
  N27      1.0000 0.56860  0.16170  0.48850  Biso   1.000  N
  N28      1.0000 0.06860  0.66170  0.48850  Biso   1.000  N
  N29      1.0000 0.56860  0.83830  0.98850  Biso   1.000  N
  N30      1.0000 0.06860  0.33830  0.98850  Biso   1.000  N
  N31      1.0000 0.43140  0.83830  0.51150  Biso   1.000  N
  N32      1.0000 0.93140  0.33830  0.51150  Biso   1.000  N
  C49      1.0000 0.51240  0.17640  0.10310  Biso   1.000  C
  C50      1.0000 0.01240  0.67640  0.10310  Biso   1.000  C
  C51      1.0000 0.48760  0.17640  0.39690  Biso   1.000  C
  C52      1.0000 0.98760  0.67640  0.39690  Biso   1.000  C
  C53      1.0000 0.48760  0.82360  0.89690  Biso   1.000  C
  C54      1.0000 0.98760  0.32360  0.89690  Biso   1.000  C
  C55      1.0000 0.51240  0.82360  0.60310  Biso   1.000  C
  C56      1.0000 0.01240  0.32360  0.60310  Biso   1.000  C
  O17      1.0000 0.55010  0.23220  0.13930  Biso   1.000  O
  O18      1.0000 0.05010  0.73220  0.13930  Biso   1.000  O
  O19      1.0000 0.44990  0.23220  0.36070  Biso   1.000  O
  O20      1.0000 0.94990  0.73220  0.36070  Biso   1.000  O
  O21      1.0000 0.44990  0.76780  0.86070  Biso   1.000  O
  O22      1.0000 0.94990  0.26780  0.86070  Biso   1.000  O
  O23      1.0000 0.55010  0.76780  0.63930  Biso   1.000  O
  O24      1.0000 0.05010  0.26780  0.63930  Biso   1.000  O
  C57      1.0000 0.56140  0.11000  0.16660  Biso   1.000  C
  C58      1.0000 0.06140  0.61000  0.16660  Biso   1.000  C
  C59      1.0000 0.43860  0.11000  0.33340  Biso   1.000  C
  C60      1.0000 0.93860  0.61000  0.33340  Biso   1.000  C
  C61      1.0000 0.43860  0.89000  0.83340  Biso   1.000  C
  C62      1.0000 0.93860  0.39000  0.83340  Biso   1.000  C
  C63      1.0000 0.56140  0.89000  0.66660  Biso   1.000  C
  C64      1.0000 0.06140  0.39000  0.66660  Biso   1.000  C
  C65      1.0000 0.65090  0.11300  0.26520  Biso   1.000  C
  C66      1.0000 0.15090  0.61300  0.26520  Biso   1.000  C
  C67      1.0000 0.34910  0.11300  0.23480  Biso   1.000  C
  C68      1.0000 0.84910  0.61300  0.23480  Biso   1.000  C
  C69      1.0000 0.34910  0.88700  0.73480  Biso   1.000  C
  C70      1.0000 0.84910  0.38700  0.73480  Biso   1.000  C
  C71      1.0000 0.65090  0.88700  0.76520  Biso   1.000  C
  C72      1.0000 0.15090  0.38700  0.76520  Biso   1.000  C
  N33      1.0000 0.72100  0.11790  0.34470  Biso   1.000  N
  N34      1.0000 0.22100  0.61790  0.34470  Biso   1.000  N
  N35      1.0000 0.27900  0.11790  0.15530  Biso   1.000  N
  N36      1.0000 0.77900  0.61790  0.15530  Biso   1.000  N
  N37      1.0000 0.27900  0.88210  0.65530  Biso   1.000  N
  N38      1.0000 0.77900  0.38210  0.65530  Biso   1.000  N
  N39      1.0000 0.72100  0.88210  0.84470  Biso   1.000  N
  N40      1.0000 0.22100  0.38210  0.84470  Biso   1.000  N
  N41      1.0000 0.51840  0.05120  0.13160  Biso   1.000  N
  N42      1.0000 0.01840  0.55120  0.13160  Biso   1.000  N
  N43      1.0000 0.48160  0.05120  0.36840  Biso   1.000  N
  N44      1.0000 0.98160  0.55120  0.36840  Biso   1.000  N
  N45      1.0000 0.48160  0.94880  0.86840  Biso   1.000  N
  N46      1.0000 0.98160  0.44880  0.86840  Biso   1.000  N
  N47      1.0000 0.51840  0.94880  0.63160  Biso   1.000  N
  N48      1.0000 0.01840  0.44880  0.63160  Biso   1.000  N
  O25      1.0000 0.56210  0.99200  0.18390  Biso   1.000  O
  O26      1.0000 0.06210  0.49200  0.18390  Biso   1.000  O
  O27      1.0000 0.43790  0.99200  0.31610  Biso   1.000  O
  O28      1.0000 0.93790  0.49200  0.31610  Biso   1.000  O
  O29      1.0000 0.43790  0.00800  0.81610  Biso   1.000  O
  O30      1.0000 0.93790  0.50800  0.81610  Biso   1.000  O
  O31      1.0000 0.56210  0.00800  0.68390  Biso   1.000  O
  O32      1.0000 0.06210  0.50800  0.68390  Biso   1.000  O
  O33      1.0000 0.50000  0.81900  0.25000  Biso   1.000  O
  O34      1.0000 0.00000  0.31900  0.25000  Biso   1.000  O
  O35      1.0000 0.50000  0.18100  0.75000  Biso   1.000  O
  O36      1.0000 0.00000  0.68100  0.75000  Biso   1.000  O
  Ba1      1.0000 0.00000  0.02165  0.75000  Biso   1.000  Ba
  Ba2      1.0000 0.50000  0.52165  0.75000  Biso   1.000  Ba
  Ba3      1.0000 0.00000  0.97835  0.25000  Biso   1.000  Ba
  Ba4      1.0000 0.50000  0.47835  0.25000  Biso   1.000  Ba
  O37      1.0000 0.11570  0.05260  0.02230  Biso   1.000  O
  O38      1.0000 0.61570  0.55260  0.02230  Biso   1.000  O
  O39      1.0000 0.88430  0.05260  0.47770  Biso   1.000  O
  O40      1.0000 0.38430  0.55260  0.47770  Biso   1.000  O
  O41      1.0000 0.88430  0.94740  0.97770  Biso   1.000  O
  O42      1.0000 0.38430  0.44740  0.97770  Biso   1.000  O
  O43      1.0000 0.11570  0.94740  0.52230  Biso   1.000  O
  O44      1.0000 0.61570  0.44740  0.52230  Biso   1.000  O
  H49      1.0000 0.12620  0.02960  0.09520  Biso   1.000  H
  H50      1.0000 0.62620  0.52960  0.09520  Biso   1.000  H
  H51      1.0000 0.87380  0.02960  0.40480  Biso   1.000  H
  H52      1.0000 0.37380  0.52960  0.40480  Biso   1.000  H
  H53      1.0000 0.87380  0.97040  0.90480  Biso   1.000  H
  H54      1.0000 0.37380  0.47040  0.90480  Biso   1.000  H
  H55      1.0000 0.12620  0.97040  0.59520  Biso   1.000  H
  H56      1.0000 0.62620  0.47040  0.59520  Biso   1.000  H
  H57      1.0000 0.13210  0.03630  0.97110  Biso   1.000  H
  H58      1.0000 0.63210  0.53630  0.97110  Biso   1.000  H
  H59      1.0000 0.86790  0.03630  0.52890  Biso   1.000  H
  H60      1.0000 0.36790  0.53630  0.52890  Biso   1.000  H
  H61      1.0000 0.86790  0.96370  0.02890  Biso   1.000  H
  H62      1.0000 0.36790  0.46370  0.02890  Biso   1.000  H
  H63      1.0000 0.13210  0.96370  0.47110  Biso   1.000  H
  H64      1.0000 0.63210  0.46370  0.47110  Biso   1.000  H
  O45      1.0000 0.00000  0.15990  0.75000  Biso   1.000  O
  O46      1.0000 0.50000  0.65990  0.75000  Biso   1.000  O
  O47      1.0000 0.00000  0.84010  0.25000  Biso   1.000  O
  O48      1.0000 0.50000  0.34010  0.25000  Biso   1.000  O
  H65      1.0000 0.01550  0.19290  0.71590  Biso   1.000  H
  H66      1.0000 0.51550  0.69290  0.71590  Biso   1.000  H
  H67      1.0000 0.98450  0.19290  0.78410  Biso   1.000  H
  H68      1.0000 0.48450  0.69290  0.78410  Biso   1.000  H
  H69      1.0000 0.98450  0.80710  0.28410  Biso   1.000  H
  H70      1.0000 0.48450  0.30710  0.28410  Biso   1.000  H
  H71      1.0000 0.01550  0.80710  0.21590  Biso   1.000  H
  H72      1.0000 0.51550  0.30710  0.21590  Biso   1.000  H
  O49      1.0000 0.99210  0.90790  0.58780  Biso   1.000  O
  O50      1.0000 0.49210  0.40790  0.58780  Biso   1.000  O
  O51      1.0000 0.00790  0.90790  0.91220  Biso   1.000  O
  O52      1.0000 0.50790  0.40790  0.91220  Biso   1.000  O
  O53      1.0000 0.00790  0.09210  0.41220  Biso   1.000  O
  O54      1.0000 0.50790  0.59210  0.41220  Biso   1.000  O
  O55      1.0000 0.99210  0.09210  0.08780  Biso   1.000  O
  O56      1.0000 0.49210  0.59210  0.08780  Biso   1.000  O
  H73      1.0000 0.96460  0.94590  0.56280  Biso   1.000  H
  H74      1.0000 0.46460  0.44590  0.56280  Biso   1.000  H
  H75      1.0000 0.03540  0.94590  0.93720  Biso   1.000  H
  H76      1.0000 0.53540  0.44590  0.93720  Biso   1.000  H
  H77      1.0000 0.03540  0.05410  0.43720  Biso   1.000  H
  H78      1.0000 0.53540  0.55410  0.43720  Biso   1.000  H
  H79      1.0000 0.96460  0.05410  0.06280  Biso   1.000  H
  H80      1.0000 0.46460  0.55410  0.06280  Biso   1.000  H
  H81      1.0000 0.03720  0.90230  0.58980  Biso   1.000  H
  H82      1.0000 0.53720  0.40230  0.58980  Biso   1.000  H
  H83      1.0000 0.96280  0.90230  0.91020  Biso   1.000  H
  H84      1.0000 0.46280  0.40230  0.91020  Biso   1.000  H
  H85      1.0000 0.96280  0.09770  0.41020  Biso   1.000  H
  H86      1.0000 0.46280  0.59770  0.41020  Biso   1.000  H
  H87      1.0000 0.03720  0.09770  0.08980  Biso   1.000  H
  H88      1.0000 0.53720  0.59770  0.08980  Biso   1.000  H
  O57      1.0000 0.91770  0.77670  0.55810  Biso   1.000  O
  O58      1.0000 0.41770  0.27670  0.55810  Biso   1.000  O
  O59      1.0000 0.08230  0.77670  0.94190  Biso   1.000  O
  O60      1.0000 0.58230  0.27670  0.94190  Biso   1.000  O
  O61      1.0000 0.08230  0.22330  0.44190  Biso   1.000  O
  O62      1.0000 0.58230  0.72330  0.44190  Biso   1.000  O
  O63      1.0000 0.91770  0.22330  0.05810  Biso   1.000  O
  O64      1.0000 0.41770  0.72330  0.05810  Biso   1.000  O
  H89      1.0000 0.92640  0.81890  0.56880  Biso   1.000  H
  H90      1.0000 0.42640  0.31890  0.56880  Biso   1.000  H
  H91      1.0000 0.07360  0.81890  0.93120  Biso   1.000  H
  H92      1.0000 0.57360  0.31890  0.93120  Biso   1.000  H
  H93      1.0000 0.07360  0.18110  0.43120  Biso   1.000  H
  H94      1.0000 0.57360  0.68110  0.43120  Biso   1.000  H
  H95      1.0000 0.92640  0.18110  0.06880  Biso   1.000  H
  H96      1.0000 0.42640  0.68110  0.06880  Biso   1.000  H
  H97      1.0000 0.92770  0.76230  0.49470  Biso   1.000  H
  H98      1.0000 0.42770  0.26230  0.49470  Biso   1.000  H
  H99      1.0000 0.07230  0.76230  0.00530  Biso   1.000  H
  H100     1.0000 0.57230  0.26230  0.00530  Biso   1.000  H
  H101     1.0000 0.07230  0.23770  0.50530  Biso   1.000  H
  H102     1.0000 0.57230  0.73770  0.50530  Biso   1.000  H
  H103     1.0000 0.92770  0.23770  0.99470  Biso   1.000  H
  H104     1.0000 0.42770  0.73770  0.99470  Biso   1.000  H
