data_image0
_cell_length_a       8.1564
_cell_length_b       12.4746
_cell_length_c       14.7296
_cell_angle_alpha    90
_cell_angle_beta     90
_cell_angle_gamma    90

_symmetry_space_group_name_H-M    "P 1"
_symmetry_int_tables_number       1

loop_
  _symmetry_equiv_pos_as_xyz
  'x, y, z'

loop_
  _atom_site_label
  _atom_site_occupancy
  _atom_site_fract_x
  _atom_site_fract_y
  _atom_site_fract_z
  _atom_site_thermal_displace_type
  _atom_site_B_iso_or_equiv
  _atom_site_type_symbol
  Cu1      1.0000 0.00000  0.00000  0.50000  Biso   1.000  Cu
  Cu2      1.0000 0.50000  0.00000  0.00000  Biso   1.000  Cu
  Cu3      1.0000 0.00000  0.50000  0.00000  Biso   1.000  Cu
  Cu4      1.0000 0.50000  0.50000  0.50000  Biso   1.000  Cu
  C1       1.0000 0.63970  0.91630  0.43110  Biso   1.000  C
  C2       1.0000 0.86030  0.08370  0.93110  Biso   1.000  C
  C3       1.0000 0.36030  0.41630  0.06890  Biso   1.000  C
  C4       1.0000 0.13970  0.58370  0.56890  Biso   1.000  C
  C5       1.0000 0.36030  0.08370  0.56890  Biso   1.000  C
  C6       1.0000 0.13970  0.91630  0.06890  Biso   1.000  C
  C7       1.0000 0.63970  0.58370  0.93110  Biso   1.000  C
  C8       1.0000 0.86030  0.41630  0.43110  Biso   1.000  C
  C9       1.0000 0.69290  0.02030  0.40480  Biso   1.000  C
  C10      1.0000 0.80710  0.97970  0.90480  Biso   1.000  C
  C11      1.0000 0.30710  0.52030  0.09520  Biso   1.000  C
  C12      1.0000 0.19290  0.47970  0.59520  Biso   1.000  C
  C13      1.0000 0.30710  0.97970  0.59520  Biso   1.000  C
  C14      1.0000 0.19290  0.02030  0.09520  Biso   1.000  C
  C15      1.0000 0.69290  0.47970  0.90480  Biso   1.000  C
  C16      1.0000 0.80710  0.52030  0.40480  Biso   1.000  C
  C17      1.0000 0.58070  0.07930  0.35140  Biso   1.000  C
  C18      1.0000 0.91930  0.92070  0.85140  Biso   1.000  C
  C19      1.0000 0.41930  0.57930  0.14860  Biso   1.000  C
  C20      1.0000 0.08070  0.42070  0.64860  Biso   1.000  C
  C21      1.0000 0.41930  0.92070  0.64860  Biso   1.000  C
  C22      1.0000 0.08070  0.07930  0.14860  Biso   1.000  C
  C23      1.0000 0.58070  0.42070  0.85140  Biso   1.000  C
  C24      1.0000 0.91930  0.57930  0.35140  Biso   1.000  C
  C25      1.0000 0.42810  0.04100  0.32850  Biso   1.000  C
  C26      1.0000 0.07190  0.95900  0.82850  Biso   1.000  C
  C27      1.0000 0.57190  0.54100  0.17150  Biso   1.000  C
  C28      1.0000 0.92810  0.45900  0.67150  Biso   1.000  C
  C29      1.0000 0.57190  0.95900  0.67150  Biso   1.000  C
  C30      1.0000 0.92810  0.04100  0.17150  Biso   1.000  C
  C31      1.0000 0.42810  0.45900  0.82850  Biso   1.000  C
  C32      1.0000 0.07190  0.54100  0.32850  Biso   1.000  C
  H1       1.0000 0.35690  0.08290  0.29430  Biso   1.000  H
  H2       1.0000 0.14310  0.91710  0.79430  Biso   1.000  H
  H3       1.0000 0.64310  0.58290  0.20570  Biso   1.000  H
  H4       1.0000 0.85690  0.41710  0.70570  Biso   1.000  H
  H5       1.0000 0.64310  0.91710  0.70570  Biso   1.000  H
  H6       1.0000 0.85690  0.08290  0.20570  Biso   1.000  H
  H7       1.0000 0.35690  0.41710  0.79430  Biso   1.000  H
  H8       1.0000 0.14310  0.58290  0.29430  Biso   1.000  H
  C33      1.0000 0.38070  0.93900  0.35690  Biso   1.000  C
  C34      1.0000 0.11930  0.06100  0.85690  Biso   1.000  C
  C35      1.0000 0.61930  0.43900  0.14310  Biso   1.000  C
  C36      1.0000 0.88070  0.56100  0.64310  Biso   1.000  C
  C37      1.0000 0.61930  0.06100  0.64310  Biso   1.000  C
  C38      1.0000 0.88070  0.93900  0.14310  Biso   1.000  C
  C39      1.0000 0.38070  0.56100  0.85690  Biso   1.000  C
  C40      1.0000 0.11930  0.43900  0.35690  Biso   1.000  C
  C41      1.0000 0.48440  0.87700  0.40610  Biso   1.000  C
  C42      1.0000 0.01560  0.12300  0.90610  Biso   1.000  C
  C43      1.0000 0.51560  0.37700  0.09390  Biso   1.000  C
  C44      1.0000 0.98440  0.62300  0.59390  Biso   1.000  C
  C45      1.0000 0.51560  0.12300  0.59390  Biso   1.000  C
  C46      1.0000 0.98440  0.87700  0.09390  Biso   1.000  C
  C47      1.0000 0.48440  0.62300  0.90610  Biso   1.000  C
  C48      1.0000 0.01560  0.37700  0.40610  Biso   1.000  C
  H9       1.0000 0.45280  0.80830  0.42330  Biso   1.000  H
  H10      1.0000 0.04720  0.19170  0.92330  Biso   1.000  H
  H11      1.0000 0.54720  0.30830  0.07670  Biso   1.000  H
  H12      1.0000 0.95280  0.69170  0.57670  Biso   1.000  H
  H13      1.0000 0.54720  0.19170  0.57670  Biso   1.000  H
  H14      1.0000 0.95280  0.80830  0.07670  Biso   1.000  H
  H15      1.0000 0.45280  0.69170  0.92330  Biso   1.000  H
  H16      1.0000 0.04720  0.30830  0.42330  Biso   1.000  H
  C49      1.0000 0.73960  0.84780  0.48590  Biso   1.000  C
  C50      1.0000 0.76040  0.15220  0.98590  Biso   1.000  C
  C51      1.0000 0.26040  0.34780  0.01410  Biso   1.000  C
  C52      1.0000 0.23960  0.65220  0.51410  Biso   1.000  C
  C53      1.0000 0.26040  0.15220  0.51410  Biso   1.000  C
  C54      1.0000 0.23960  0.84780  0.01410  Biso   1.000  C
  C55      1.0000 0.73960  0.65220  0.98590  Biso   1.000  C
  C56      1.0000 0.76040  0.34780  0.48590  Biso   1.000  C
  H17      1.0000 0.69690  0.78050  0.49930  Biso   1.000  H
  H18      1.0000 0.80310  0.21950  0.99930  Biso   1.000  H
  H19      1.0000 0.30310  0.28050  0.00070  Biso   1.000  H
  H20      1.0000 0.19690  0.71950  0.50070  Biso   1.000  H
  H21      1.0000 0.30310  0.21950  0.50070  Biso   1.000  H
  H22      1.0000 0.19690  0.78050  0.00070  Biso   1.000  H
  H23      1.0000 0.69690  0.71950  0.99930  Biso   1.000  H
  H24      1.0000 0.80310  0.28050  0.49930  Biso   1.000  H
  Cl1      1.0000 0.64045  0.20455  0.31242  Biso   1.000  Cl
  Cl2      1.0000 0.85955  0.79545  0.81242  Biso   1.000  Cl
  Cl3      1.0000 0.35955  0.70455  0.18758  Biso   1.000  Cl
  Cl4      1.0000 0.14045  0.29545  0.68758  Biso   1.000  Cl
  Cl5      1.0000 0.35955  0.79545  0.68758  Biso   1.000  Cl
  Cl6      1.0000 0.14045  0.20455  0.18758  Biso   1.000  Cl
  Cl7      1.0000 0.64045  0.29545  0.81242  Biso   1.000  Cl
  Cl8      1.0000 0.85955  0.70455  0.31242  Biso   1.000  Cl
  Cl9      1.0000 0.18463  0.89331  0.33032  Biso   1.000  Cl
  Cl10     1.0000 0.31537  0.10669  0.83032  Biso   1.000  Cl
  Cl11     1.0000 0.81537  0.39331  0.16968  Biso   1.000  Cl
  Cl12     1.0000 0.68463  0.60669  0.66968  Biso   1.000  Cl
  Cl13     1.0000 0.81537  0.10669  0.66968  Biso   1.000  Cl
  Cl14     1.0000 0.68463  0.89331  0.16968  Biso   1.000  Cl
  Cl15     1.0000 0.18463  0.60669  0.83032  Biso   1.000  Cl
  Cl16     1.0000 0.31537  0.39331  0.33032  Biso   1.000  Cl
  O1       1.0000 0.83300  0.06231  0.42655  Biso   1.000  O
  O2       1.0000 0.66700  0.93769  0.92655  Biso   1.000  O
  O3       1.0000 0.16700  0.56231  0.07345  Biso   1.000  O
  O4       1.0000 0.33300  0.43769  0.57345  Biso   1.000  O
  O5       1.0000 0.16700  0.93769  0.57345  Biso   1.000  O
  O6       1.0000 0.33300  0.06231  0.07345  Biso   1.000  O
  O7       1.0000 0.83300  0.43769  0.92655  Biso   1.000  O
  O8       1.0000 0.66700  0.56231  0.42655  Biso   1.000  O
  O9       1.0000 0.87670  0.86838  0.51754  Biso   1.000  O
  O10      1.0000 0.62330  0.13162  0.01754  Biso   1.000  O
  O11      1.0000 0.12330  0.36838  0.98246  Biso   1.000  O
  O12      1.0000 0.37670  0.63162  0.48246  Biso   1.000  O
  O13      1.0000 0.12330  0.13162  0.48246  Biso   1.000  O
  O14      1.0000 0.37670  0.86838  0.98246  Biso   1.000  O
  O15      1.0000 0.87670  0.63162  0.01754  Biso   1.000  O
  O16      1.0000 0.62330  0.36838  0.51754  Biso   1.000  O
