data_image0
_cell_length_a       11.334
_cell_length_b       14.266
_cell_length_c       13.299
_cell_angle_alpha    90
_cell_angle_beta     96.55
_cell_angle_gamma    90

_symmetry_space_group_name_H-M    "P 1"
_symmetry_int_tables_number       1

loop_
  _symmetry_equiv_pos_as_xyz
  'x, y, z'

loop_
  _atom_site_label
  _atom_site_occupancy
  _atom_site_fract_x
  _atom_site_fract_y
  _atom_site_fract_z
  _atom_site_thermal_displace_type
  _atom_site_B_iso_or_equiv
  _atom_site_type_symbol
  Cu1      1.0000 0.59615  0.21166  0.34471  Biso   1.000  Cu
  Cu2      1.0000 0.90385  0.71166  0.15529  Biso   1.000  Cu
  Cu3      1.0000 0.40385  0.78834  0.65529  Biso   1.000  Cu
  Cu4      1.0000 0.09615  0.28834  0.84471  Biso   1.000  Cu
  Cl1      1.0000 0.73943  0.14413  0.10813  Biso   1.000  Cl
  Cl2      1.0000 0.76057  0.64413  0.39187  Biso   1.000  Cl
  Cl3      1.0000 0.26057  0.85587  0.89187  Biso   1.000  Cl
  Cl4      1.0000 0.23943  0.35587  0.60813  Biso   1.000  Cl
  Cl5      1.0000 0.62782  0.18070  0.60732  Biso   1.000  Cl
  Cl6      1.0000 0.87218  0.68070  0.89268  Biso   1.000  Cl
  Cl7      1.0000 0.37218  0.81930  0.39268  Biso   1.000  Cl
  Cl8      1.0000 0.12782  0.31930  0.10732  Biso   1.000  Cl
  N1       1.0000 0.67740  0.08760  0.37090  Biso   1.000  N
  N2       1.0000 0.82260  0.58760  0.12910  Biso   1.000  N
  N3       1.0000 0.32260  0.91240  0.62910  Biso   1.000  N
  N4       1.0000 0.17740  0.41240  0.87090  Biso   1.000  N
  N5       1.0000 0.76380  0.25750  0.37590  Biso   1.000  N
  N6       1.0000 0.73620  0.75750  0.12410  Biso   1.000  N
  N7       1.0000 0.23620  0.74250  0.62410  Biso   1.000  N
  N8       1.0000 0.26380  0.24250  0.87590  Biso   1.000  N
  N9       1.0000 0.86530  0.02330  0.43120  Biso   1.000  N
  N10      1.0000 0.63470  0.52330  0.06880  Biso   1.000  N
  N11      1.0000 0.13470  0.97670  0.56880  Biso   1.000  N
  N12      1.0000 0.36530  0.47670  0.93120  Biso   1.000  N
  N13      1.0000 0.96120  0.20150  0.41000  Biso   1.000  N
  N14      1.0000 0.53880  0.70150  0.09000  Biso   1.000  N
  N15      1.0000 0.03880  0.79850  0.59000  Biso   1.000  N
  N16      1.0000 0.46120  0.29850  0.91000  Biso   1.000  N
  N17      1.0000 0.43870  0.15670  0.29010  Biso   1.000  N
  N18      1.0000 0.06130  0.65670  0.20990  Biso   1.000  N
  N19      1.0000 0.56130  0.84330  0.70990  Biso   1.000  N
  N20      1.0000 0.93870  0.34330  0.79010  Biso   1.000  N
  N21      1.0000 0.97650  0.83910  0.17220  Biso   1.000  N
  N22      1.0000 0.52350  0.33910  0.32780  Biso   1.000  N
  N23      1.0000 0.02350  0.16090  0.82780  Biso   1.000  N
  N24      1.0000 0.47650  0.66090  0.67220  Biso   1.000  N
  C1       1.0000 0.62830  0.00240  0.37410  Biso   1.000  C
  C2       1.0000 0.87170  0.50240  0.12590  Biso   1.000  C
  C3       1.0000 0.37170  0.99760  0.62590  Biso   1.000  C
  C4       1.0000 0.12830  0.49760  0.87410  Biso   1.000  C
  H1       1.0000 0.54710  0.99540  0.35570  Biso   1.000  H
  H2       1.0000 0.95290  0.49540  0.14430  Biso   1.000  H
  H3       1.0000 0.45290  0.00460  0.64430  Biso   1.000  H
  H4       1.0000 0.04710  0.50460  0.85570  Biso   1.000  H
  C5       1.0000 0.69610  0.92500  0.40430  Biso   1.000  C
  C6       1.0000 0.80390  0.42500  0.09570  Biso   1.000  C
  C7       1.0000 0.30390  0.07500  0.59570  Biso   1.000  C
  C8       1.0000 0.19610  0.57500  0.90430  Biso   1.000  C
  H5       1.0000 0.66290  0.86540  0.40500  Biso   1.000  H
  H6       1.0000 0.83710  0.36540  0.09500  Biso   1.000  H
  H7       1.0000 0.33710  0.13460  0.59500  Biso   1.000  H
  H8       1.0000 0.16290  0.63460  0.90500  Biso   1.000  H
  C9       1.0000 0.81440  0.93980  0.43320  Biso   1.000  C
  C10      1.0000 0.68560  0.43980  0.06680  Biso   1.000  C
  C11      1.0000 0.18560  0.06020  0.56680  Biso   1.000  C
  C12      1.0000 0.31440  0.56020  0.93320  Biso   1.000  C
  H9       1.0000 0.86140  0.88870  0.45530  Biso   1.000  H
  H10      1.0000 0.63860  0.38870  0.04470  Biso   1.000  H
  H11      1.0000 0.13860  0.11130  0.54470  Biso   1.000  H
  H12      1.0000 0.36140  0.61130  0.95530  Biso   1.000  H
  C13      1.0000 0.79460  0.09380  0.39960  Biso   1.000  C
  C14      1.0000 0.70540  0.59380  0.10040  Biso   1.000  C
  C15      1.0000 0.20540  0.90620  0.60040  Biso   1.000  C
  C16      1.0000 0.29460  0.40620  0.89960  Biso   1.000  C
  C17      1.0000 0.84420  0.18890  0.39580  Biso   1.000  C
  C18      1.0000 0.65580  0.68890  0.10420  Biso   1.000  C
  C19      1.0000 0.15580  0.81110  0.60420  Biso   1.000  C
  C20      1.0000 0.34420  0.31110  0.89580  Biso   1.000  C
  C21      1.0000 0.99850  0.28950  0.40550  Biso   1.000  C
  C22      1.0000 0.50150  0.78950  0.09450  Biso   1.000  C
  C23      1.0000 0.00150  0.71050  0.59450  Biso   1.000  C
  C24      1.0000 0.49850  0.21050  0.90550  Biso   1.000  C
  H13      1.0000 0.07980  0.30090  0.41470  Biso   1.000  H
  H14      1.0000 0.42020  0.80090  0.08530  Biso   1.000  H
  H15      1.0000 0.92020  0.69910  0.58530  Biso   1.000  H
  H16      1.0000 0.57980  0.19910  0.91470  Biso   1.000  H
  C25      1.0000 0.92330  0.36440  0.38800  Biso   1.000  C
  C26      1.0000 0.57670  0.86440  0.11200  Biso   1.000  C
  C27      1.0000 0.07670  0.63560  0.61200  Biso   1.000  C
  C28      1.0000 0.42330  0.13560  0.88800  Biso   1.000  C
  H17      1.0000 0.95160  0.42550  0.38580  Biso   1.000  H
  H18      1.0000 0.54840  0.92550  0.11420  Biso   1.000  H
  H19      1.0000 0.04840  0.57450  0.61420  Biso   1.000  H
  H20      1.0000 0.45160  0.07450  0.88580  Biso   1.000  H
  C29      1.0000 0.80370  0.34460  0.37370  Biso   1.000  C
  C30      1.0000 0.69630  0.84460  0.12630  Biso   1.000  C
  C31      1.0000 0.19630  0.65540  0.62630  Biso   1.000  C
  C32      1.0000 0.30370  0.15540  0.87370  Biso   1.000  C
  H21      1.0000 0.74960  0.39350  0.36230  Biso   1.000  H
  H22      1.0000 0.75040  0.89350  0.13770  Biso   1.000  H
  H23      1.0000 0.25040  0.60650  0.63770  Biso   1.000  H
  H24      1.0000 0.24960  0.10650  0.86230  Biso   1.000  H
  C33      1.0000 0.42800  0.10420  0.20510  Biso   1.000  C
  C34      1.0000 0.07200  0.60420  0.29490  Biso   1.000  C
  C35      1.0000 0.57200  0.89580  0.79490  Biso   1.000  C
  C36      1.0000 0.92800  0.39580  0.70510  Biso   1.000  C
  H25      1.0000 0.49100  0.10290  0.16610  Biso   1.000  H
  H26      1.0000 0.00900  0.60290  0.33390  Biso   1.000  H
  H27      1.0000 0.50900  0.89710  0.83390  Biso   1.000  H
  H28      1.0000 0.99100  0.39710  0.66610  Biso   1.000  H
  C37      1.0000 0.32810  0.05260  0.17370  Biso   1.000  C
  C38      1.0000 0.17190  0.55260  0.32630  Biso   1.000  C
  C39      1.0000 0.67190  0.94740  0.82630  Biso   1.000  C
  C40      1.0000 0.82810  0.44740  0.67370  Biso   1.000  C
  H29      1.0000 0.32430  0.01660  0.11510  Biso   1.000  H
  H30      1.0000 0.17570  0.51660  0.38490  Biso   1.000  H
  H31      1.0000 0.67570  0.98340  0.88490  Biso   1.000  H
  H32      1.0000 0.82430  0.48340  0.61510  Biso   1.000  H
  C41      1.0000 0.34440  0.16390  0.33960  Biso   1.000  C
  C42      1.0000 0.15560  0.66390  0.16040  Biso   1.000  C
  C43      1.0000 0.65560  0.83610  0.66040  Biso   1.000  C
  C44      1.0000 0.84440  0.33610  0.83960  Biso   1.000  C
  H33      1.0000 0.34860  0.20390  0.39510  Biso   1.000  H
  H34      1.0000 0.15140  0.70390  0.10490  Biso   1.000  H
  H35      1.0000 0.65140  0.79610  0.60490  Biso   1.000  H
  H36      1.0000 0.84860  0.29610  0.89510  Biso   1.000  H
  C45      1.0000 0.23990  0.11530  0.31320  Biso   1.000  C
  C46      1.0000 0.26010  0.61530  0.18680  Biso   1.000  C
  C47      1.0000 0.76010  0.88470  0.68680  Biso   1.000  C
  C48      1.0000 0.73990  0.38470  0.81320  Biso   1.000  C
  H37      1.0000 0.17560  0.12280  0.35010  Biso   1.000  H
  H38      1.0000 0.32440  0.62280  0.14990  Biso   1.000  H
  H39      1.0000 0.82440  0.87720  0.64990  Biso   1.000  H
  H40      1.0000 0.67560  0.37720  0.85010  Biso   1.000  H
  C49      1.0000 0.23240  0.05510  0.23100  Biso   1.000  C
  C50      1.0000 0.26760  0.55510  0.26900  Biso   1.000  C
  C51      1.0000 0.76760  0.94490  0.76900  Biso   1.000  C
  C52      1.0000 0.73240  0.44490  0.73100  Biso   1.000  C
  C53      1.0000 0.13260  0.98830  0.20770  Biso   1.000  C
  C54      1.0000 0.36740  0.48830  0.29230  Biso   1.000  C
  C55      1.0000 0.86740  0.01170  0.79230  Biso   1.000  C
  C56      1.0000 0.63260  0.51170  0.70770  Biso   1.000  C
  C57      1.0000 0.08020  0.94740  0.28570  Biso   1.000  C
  C58      1.0000 0.41980  0.44740  0.21430  Biso   1.000  C
  C59      1.0000 0.91980  0.05260  0.71430  Biso   1.000  C
  C60      1.0000 0.58020  0.55260  0.78570  Biso   1.000  C
  H41      1.0000 0.09560  0.97040  0.35140  Biso   1.000  H
  H42      1.0000 0.40440  0.47040  0.14860  Biso   1.000  H
  H43      1.0000 0.90440  0.02960  0.64860  Biso   1.000  H
  H44      1.0000 0.59560  0.52960  0.85140  Biso   1.000  H
  C61      1.0000 0.00500  0.87240  0.26540  Biso   1.000  C
  C62      1.0000 0.49500  0.37240  0.23460  Biso   1.000  C
  C63      1.0000 0.99500  0.12760  0.73460  Biso   1.000  C
  C64      1.0000 0.50500  0.62760  0.76540  Biso   1.000  C
  H45      1.0000 0.97270  0.84380  0.31880  Biso   1.000  H
  H46      1.0000 0.52730  0.34380  0.18120  Biso   1.000  H
  H47      1.0000 0.02730  0.15620  0.68120  Biso   1.000  H
  H48      1.0000 0.47270  0.65620  0.81880  Biso   1.000  H
  C65      1.0000 0.01930  0.88300  0.09460  Biso   1.000  C
  C66      1.0000 0.48070  0.38300  0.40540  Biso   1.000  C
  C67      1.0000 0.98070  0.11700  0.90540  Biso   1.000  C
  C68      1.0000 0.51930  0.61700  0.59460  Biso   1.000  C
  H49      1.0000 0.99590  0.86320  0.02870  Biso   1.000  H
  H50      1.0000 0.50410  0.36320  0.47130  Biso   1.000  H
  H51      1.0000 0.00410  0.13680  0.97130  Biso   1.000  H
  H52      1.0000 0.49590  0.63680  0.52870  Biso   1.000  H
  C69      1.0000 0.09760  0.95720  0.11130  Biso   1.000  C
  C70      1.0000 0.40240  0.45720  0.38870  Biso   1.000  C
  C71      1.0000 0.90240  0.04280  0.88870  Biso   1.000  C
  C72      1.0000 0.59760  0.54280  0.61130  Biso   1.000  C
  H53      1.0000 0.12690  0.98630  0.05670  Biso   1.000  H
  H54      1.0000 0.37310  0.48630  0.44330  Biso   1.000  H
  H55      1.0000 0.87310  0.01370  0.94330  Biso   1.000  H
  H56      1.0000 0.62690  0.51370  0.55670  Biso   1.000  H
  O1       1.0000 0.83320  0.10610  0.17350  Biso   1.000  O
  O2       1.0000 0.66680  0.60610  0.32650  Biso   1.000  O
  O3       1.0000 0.16680  0.89390  0.82650  Biso   1.000  O
  O4       1.0000 0.33320  0.39390  0.67350  Biso   1.000  O
  O5       1.0000 0.78070  0.19650  0.02790  Biso   1.000  O
  O6       1.0000 0.71930  0.69650  0.47210  Biso   1.000  O
  O7       1.0000 0.21930  0.80350  0.97210  Biso   1.000  O
  O8       1.0000 0.28070  0.30350  0.52790  Biso   1.000  O
  O9       1.0000 0.66460  0.07020  0.06370  Biso   1.000  O
  O10      1.0000 0.83540  0.57020  0.43630  Biso   1.000  O
  O11      1.0000 0.33540  0.92980  0.93630  Biso   1.000  O
  O12      1.0000 0.16460  0.42980  0.56370  Biso   1.000  O
  O13      1.0000 0.66840  0.20500  0.16350  Biso   1.000  O
  O14      1.0000 0.83160  0.70500  0.33650  Biso   1.000  O
  O15      1.0000 0.33160  0.79500  0.83650  Biso   1.000  O
  O16      1.0000 0.16840  0.29500  0.66350  Biso   1.000  O
  O17      1.0000 0.57630  0.19340  0.69330  Biso   1.000  O
  O18      1.0000 0.92370  0.69340  0.80670  Biso   1.000  O
  O19      1.0000 0.42370  0.80660  0.30670  Biso   1.000  O
  O20      1.0000 0.07630  0.30660  0.19330  Biso   1.000  O
  O21      1.0000 0.65070  0.07980  0.60440  Biso   1.000  O
  O22      1.0000 0.84930  0.57980  0.89560  Biso   1.000  O
  O23      1.0000 0.34930  0.92020  0.39560  Biso   1.000  O
  O24      1.0000 0.15070  0.42020  0.10440  Biso   1.000  O
  O25      1.0000 0.73990  0.22090  0.60420  Biso   1.000  O
  O26      1.0000 0.76010  0.72090  0.89580  Biso   1.000  O
  O27      1.0000 0.26010  0.77910  0.39580  Biso   1.000  O
  O28      1.0000 0.23990  0.27910  0.10420  Biso   1.000  O
  O29      1.0000 0.55030  0.19860  0.51750  Biso   1.000  O
  O30      1.0000 0.94970  0.69860  0.98250  Biso   1.000  O
  O31      1.0000 0.44970  0.80140  0.48250  Biso   1.000  O
  O32      1.0000 0.05030  0.30140  0.01750  Biso   1.000  O
