data_image0
_cell_length_a       8.4859
_cell_length_b       12.304
_cell_length_c       21.667
_cell_angle_alpha    90.6
_cell_angle_beta     99.36
_cell_angle_gamma    94.79

_symmetry_space_group_name_H-M    "P 1"
_symmetry_int_tables_number       1

loop_
  _symmetry_equiv_pos_as_xyz
  'x, y, z'

loop_
  _atom_site_label
  _atom_site_occupancy
  _atom_site_fract_x
  _atom_site_fract_y
  _atom_site_fract_z
  _atom_site_thermal_displace_type
  _atom_site_B_iso_or_equiv
  _atom_site_type_symbol
  W1       1.0000 0.03162  0.24561  0.16151  Biso   1.000  W
  W2       1.0000 0.96838  0.75439  0.83849  Biso   1.000  W
  W3       1.0000 0.63864  0.24317  0.16077  Biso   1.000  W
  W4       1.0000 0.36136  0.75683  0.83923  Biso   1.000  W
  W5       1.0000 0.74431  0.44763  0.26052  Biso   1.000  W
  W6       1.0000 0.25569  0.55237  0.73948  Biso   1.000  W
  W7       1.0000 0.52874  0.20916  0.30206  Biso   1.000  W
  W8       1.0000 0.47126  0.79084  0.69794  Biso   1.000  W
  W9       1.0000 0.90560  0.21269  0.30241  Biso   1.000  W
  W10      1.0000 0.09440  0.78731  0.69759  Biso   1.000  W
  W11      1.0000 0.35201  0.43736  0.25801  Biso   1.000  W
  W12      1.0000 0.64799  0.56264  0.74199  Biso   1.000  W
  Cu1      1.0000 0.51300  0.62115  0.15322  Biso   1.000  Cu
  Cu2      1.0000 0.48700  0.37885  0.84678  Biso   1.000  Cu
  Cu3      1.0000 0.33090  0.04334  0.17592  Biso   1.000  Cu
  Cu4      1.0000 0.66910  0.95666  0.82408  Biso   1.000  Cu
  Cu5      1.0000 0.08040  0.45585  0.37647  Biso   1.000  Cu
  Cu6      1.0000 0.91960  0.54415  0.62353  Biso   1.000  Cu
  O1       1.0000 0.48270  0.13730  0.13790  Biso   1.000  O
  O2       1.0000 0.51730  0.86270  0.86210  Biso   1.000  O
  O3       1.0000 0.91230  0.10870  0.35520  Biso   1.000  O
  O4       1.0000 0.08770  0.89130  0.64480  Biso   1.000  O
  O5       1.0000 0.54970  0.13750  0.37080  Biso   1.000  O
  O6       1.0000 0.45030  0.86250  0.62920  Biso   1.000  O
  O7       1.0000 0.74110  0.31030  0.32510  Biso   1.000  O
  O8       1.0000 0.25890  0.68970  0.67490  Biso   1.000  O
  O9       1.0000 0.57790  0.49440  0.29690  Biso   1.000  O
  O10      1.0000 0.42210  0.50560  0.70310  Biso   1.000  O
  O11      1.0000 0.81360  0.17700  0.13820  Biso   1.000  O
  O12      1.0000 0.18640  0.82300  0.86180  Biso   1.000  O
  O13      1.0000 0.05320  0.31330  0.34150  Biso   1.000  O
  O14      1.0000 0.94680  0.68670  0.65850  Biso   1.000  O
  O15      1.0000 0.25350  0.51100  0.30630  Biso   1.000  O
  O16      1.0000 0.74650  0.48900  0.69370  Biso   1.000  O
  O17      1.0000 0.91200  0.50500  0.31340  Biso   1.000  O
  O18      1.0000 0.08800  0.49500  0.68660  Biso   1.000  O
  O19      1.0000 0.13480  0.14980  0.13000  Biso   1.000  O
  O20      1.0000 0.86520  0.85020  0.87000  Biso   1.000  O
  O21      1.0000 0.41090  0.31970  0.32100  Biso   1.000  O
  O22      1.0000 0.58910  0.68030  0.67900  Biso   1.000  O
  O23      1.0000 0.00990  0.16380  0.24220  Biso   1.000  O
  O24      1.0000 0.99010  0.83620  0.75780  Biso   1.000  O
  O25      1.0000 0.37030  0.53000  0.19630  Biso   1.000  O
  O26      1.0000 0.62970  0.47000  0.80370  Biso   1.000  O
  O27      1.0000 0.84300  0.33400  0.21840  Biso   1.000  O
  O28      1.0000 0.15700  0.66600  0.78160  Biso   1.000  O
  O29      1.0000 0.61150  0.33260  0.09910  Biso   1.000  O
  O30      1.0000 0.38850  0.66740  0.90090  Biso   1.000  O
  O31      1.0000 0.54270  0.33230  0.21950  Biso   1.000  O
  O32      1.0000 0.45730  0.66770  0.78050  Biso   1.000  O
  O33      1.0000 0.37840  0.12760  0.25110  Biso   1.000  O
  O34      1.0000 0.62160  0.87240  0.74890  Biso   1.000  O
  O35      1.0000 0.19330  0.33770  0.21460  Biso   1.000  O
  O36      1.0000 0.80670  0.66230  0.78540  Biso   1.000  O
  O37      1.0000 0.00820  0.34400  0.10320  Biso   1.000  O
  O38      1.0000 0.99180  0.65600  0.89680  Biso   1.000  O
  O39      1.0000 0.73050  0.53760  0.19840  Biso   1.000  O
  O40      1.0000 0.26950  0.46240  0.80160  Biso   1.000  O
  O41      1.0000 0.68850  0.15620  0.25150  Biso   1.000  O
  O42      1.0000 0.31150  0.84380  0.74850  Biso   1.000  O
  N1       1.0000 0.63560  0.73340  0.10790  Biso   1.000  N
  N2       1.0000 0.36440  0.26660  0.89210  Biso   1.000  N
  N3       1.0000 0.54610  0.74120  0.21740  Biso   1.000  N
  N4       1.0000 0.45390  0.25880  0.78260  Biso   1.000  N
  N5       1.0000 0.20540  0.92590  0.21520  Biso   1.000  N
  N6       1.0000 0.79460  0.07410  0.78480  Biso   1.000  N
  N7       1.0000 0.30450  0.92800  0.10870  Biso   1.000  N
  N8       1.0000 0.69550  0.07200  0.89130  Biso   1.000  N
  N9       1.0000 0.23790  0.41470  0.44840  Biso   1.000  N
  N10      1.0000 0.76210  0.58530  0.55160  Biso   1.000  N
  N11      1.0000 0.07620  0.58600  0.43220  Biso   1.000  N
  N12      1.0000 0.92380  0.41400  0.56780  Biso   1.000  N
  C1       1.0000 0.66300  0.72720  0.04900  Biso   1.000  C
  C2       1.0000 0.33700  0.27280  0.95100  Biso   1.000  C
  H1       1.0000 0.61680  0.66760  0.02380  Biso   1.000  H
  H2       1.0000 0.38320  0.33240  0.97620  Biso   1.000  H
  C3       1.0000 0.75800  0.80690  0.02440  Biso   1.000  C
  C4       1.0000 0.24200  0.19310  0.97560  Biso   1.000  C
  H3       1.0000 0.77710  0.80030  0.98350  Biso   1.000  H
  H4       1.0000 0.22290  0.19970  0.01650  Biso   1.000  H
  C5       1.0000 0.82600  0.89800  0.06240  Biso   1.000  C
  C6       1.0000 0.17400  0.10200  0.93760  Biso   1.000  C
  H5       1.0000 0.89520  0.95110  0.04790  Biso   1.000  H
  H6       1.0000 0.10480  0.04890  0.95210  Biso   1.000  H
  C7       1.0000 0.79000  0.90550  0.11830  Biso   1.000  C
  C8       1.0000 0.21000  0.09450  0.88170  Biso   1.000  C
  H7       1.0000 0.82980  0.96750  0.14260  Biso   1.000  H
  H8       1.0000 0.17020  0.03250  0.85740  Biso   1.000  H
  C9       1.0000 0.69440  0.82570  0.14400  Biso   1.000  C
  C10      1.0000 0.30560  0.17430  0.85600  Biso   1.000  C
  C11      1.0000 0.64800  0.82900  0.20590  Biso   1.000  C
  C12      1.0000 0.35200  0.17100  0.79410  Biso   1.000  C
  C13      1.0000 0.69800  0.91110  0.24840  Biso   1.000  C
  C14      1.0000 0.30200  0.08890  0.75160  Biso   1.000  C
  H9       1.0000 0.76570  0.96980  0.23920  Biso   1.000  H
  H10      1.0000 0.23430  0.03020  0.76080  Biso   1.000  H
  C15      1.0000 0.64600  0.90670  0.30500  Biso   1.000  C
  C16      1.0000 0.35400  0.09330  0.69500  Biso   1.000  C
  H11      1.0000 0.68490  0.96100  0.33520  Biso   1.000  H
  H12      1.0000 0.31510  0.03900  0.66480  Biso   1.000  H
  C17      1.0000 0.53800  0.82260  0.31850  Biso   1.000  C
  C18      1.0000 0.46200  0.17740  0.68150  Biso   1.000  C
  H13      1.0000 0.49820  0.82180  0.35600  Biso   1.000  H
  H14      1.0000 0.50180  0.17820  0.64400  Biso   1.000  H
  C19      1.0000 0.49300  0.74020  0.27380  Biso   1.000  C
  C20      1.0000 0.50700  0.25980  0.72620  Biso   1.000  C
  H15      1.0000 0.42310  0.68190  0.28230  Biso   1.000  H
  H16      1.0000 0.57690  0.31810  0.71770  Biso   1.000  H
  C21      1.0000 0.16600  0.93270  0.27290  Biso   1.000  C
  C22      1.0000 0.83400  0.06730  0.72710  Biso   1.000  C
  H17      1.0000 0.19300  0.99760  0.29600  Biso   1.000  H
  H18      1.0000 0.80700  0.00240  0.70400  Biso   1.000  H
  C23      1.0000 0.08800  0.84750  0.29840  Biso   1.000  C
  C24      1.0000 0.91200  0.15250  0.70160  Biso   1.000  C
  H19      1.0000 0.05710  0.85550  0.33740  Biso   1.000  H
  H20      1.0000 0.94290  0.14450  0.66260  Biso   1.000  H
  C25      1.0000 0.05500  0.74920  0.26560  Biso   1.000  C
  C26      1.0000 0.94500  0.25080  0.73440  Biso   1.000  C
  H21      1.0000 0.00590  0.68910  0.28280  Biso   1.000  H
  H22      1.0000 0.99410  0.31090  0.71720  Biso   1.000  H
  C27      1.0000 0.09700  0.74130  0.20620  Biso   1.000  C
  C28      1.0000 0.90300  0.25870  0.79380  Biso   1.000  C
  H23      1.0000 0.07470  0.67620  0.18300  Biso   1.000  H
  H24      1.0000 0.92530  0.32380  0.81700  Biso   1.000  H
  C29      1.0000 0.17270  0.83120  0.18220  Biso   1.000  C
  C30      1.0000 0.82730  0.16880  0.81780  Biso   1.000  C
  C31      1.0000 0.22240  0.83210  0.12110  Biso   1.000  C
  C32      1.0000 0.77760  0.16790  0.87890  Biso   1.000  C
  C33      1.0000 0.19450  0.74460  0.07800  Biso   1.000  C
  C34      1.0000 0.80550  0.25540  0.92200  Biso   1.000  C
  H25      1.0000 0.14340  0.67830  0.08700  Biso   1.000  H
  H26      1.0000 0.85660  0.32170  0.91300  Biso   1.000  H
  C35      1.0000 0.24680  0.76140  0.02060  Biso   1.000  C
  C36      1.0000 0.75320  0.23860  0.97940  Biso   1.000  C
  H27      1.0000 0.22850  0.70530  0.99050  Biso   1.000  H
  H28      1.0000 0.77150  0.29470  0.00950  Biso   1.000  H
  C37      1.0000 0.32400  0.85850  0.00780  Biso   1.000  C
  C38      1.0000 0.67600  0.14150  0.99220  Biso   1.000  C
  H29      1.0000 0.35780  0.86920  0.96930  Biso   1.000  H
  H30      1.0000 0.64220  0.13080  0.03070  Biso   1.000  H
  C39      1.0000 0.35100  0.93870  0.05240  Biso   1.000  C
  C40      1.0000 0.64900  0.06130  0.94760  Biso   1.000  C
  H31      1.0000 0.40360  0.00470  0.04360  Biso   1.000  H
  H32      1.0000 0.59640  0.99530  0.95640  Biso   1.000  H
  C41      1.0000 0.31130  0.32230  0.45310  Biso   1.000  C
  C42      1.0000 0.68870  0.67770  0.54690  Biso   1.000  C
  H33      1.0000 0.29290  0.27180  0.42000  Biso   1.000  H
  H34      1.0000 0.70710  0.72820  0.58000  Biso   1.000  H
  C43      1.0000 0.41500  0.30140  0.50720  Biso   1.000  C
  C44      1.0000 0.58500  0.69860  0.49280  Biso   1.000  C
  H35      1.0000 0.46760  0.23800  0.50940  Biso   1.000  H
  H36      1.0000 0.53240  0.76200  0.49060  Biso   1.000  H
  C45      1.0000 0.44000  0.37330  0.55790  Biso   1.000  C
  C46      1.0000 0.56000  0.62670  0.44210  Biso   1.000  C
  H37      1.0000 0.50550  0.35720  0.59480  Biso   1.000  H
  H38      1.0000 0.49450  0.64280  0.40520  Biso   1.000  H
  C47      1.0000 0.36600  0.46950  0.55280  Biso   1.000  C
  C48      1.0000 0.63400  0.53050  0.44720  Biso   1.000  C
  H39      1.0000 0.38520  0.52110  0.58550  Biso   1.000  H
  H40      1.0000 0.61480  0.47890  0.41450  Biso   1.000  H
  C49      1.0000 0.26420  0.48730  0.49800  Biso   1.000  C
  C50      1.0000 0.73580  0.51270  0.50200  Biso   1.000  C
  C51      1.0000 0.17710  0.58810  0.48640  Biso   1.000  C
  C52      1.0000 0.82290  0.41190  0.51360  Biso   1.000  C
  C53      1.0000 0.19800  0.67490  0.52780  Biso   1.000  C
  C54      1.0000 0.80200  0.32510  0.47220  Biso   1.000  C
  H41      1.0000 0.27110  0.67560  0.56470  Biso   1.000  H
  H42      1.0000 0.72890  0.32440  0.43530  Biso   1.000  H
  C55      1.0000 0.10400  0.76260  0.51300  Biso   1.000  C
  C56      1.0000 0.89600  0.23740  0.48700  Biso   1.000  C
  H43      1.0000 0.11430  0.82300  0.53990  Biso   1.000  H
  H44      1.0000 0.88570  0.17700  0.46010  Biso   1.000  H
  C57      1.0000 0.00100  0.75740  0.45920  Biso   1.000  C
  C58      1.0000 0.99900  0.24260  0.54080  Biso   1.000  C
  H45      1.0000 0.93970  0.81580  0.44900  Biso   1.000  H
  H46      1.0000 0.06030  0.18420  0.55100  Biso   1.000  H
  C59      1.0000 0.98200  0.66890  0.41840  Biso   1.000  C
  C60      1.0000 0.01800  0.33110  0.58160  Biso   1.000  C
  H47      1.0000 0.90560  0.66620  0.38220  Biso   1.000  H
  H48      1.0000 0.09440  0.33380  0.61780  Biso   1.000  H
  O43      1.0000 0.47900  0.52340  0.07910  Biso   1.000  O
  O44      1.0000 0.52100  0.47660  0.92090  Biso   1.000  O
  O45      1.0000 0.18610  0.46800  0.02710  Biso   1.000  O
  O46      1.0000 0.81390  0.53200  0.97290  Biso   1.000  O
  O47      1.0000 0.10200  0.02330  0.45570  Biso   1.000  O
  O48      1.0000 0.89800  0.97670  0.54430  Biso   1.000  O
  O49      1.0000 0.90740  0.54910  0.10130  Biso   1.000  O
  O50      1.0000 0.09260  0.45090  0.89870  Biso   1.000  O
  O51      1.0000 0.41500  0.97370  0.43940  Biso   1.000  O
  O52      1.0000 0.58500  0.02630  0.56060  Biso   1.000  O
