data_image0
_cell_length_a       7.4911
_cell_length_b       12.0515
_cell_length_c       20.3869
_cell_angle_alpha    90
_cell_angle_beta     90
_cell_angle_gamma    90

_symmetry_space_group_name_H-M    "P 1"
_symmetry_int_tables_number       1

loop_
  _symmetry_equiv_pos_as_xyz
  'x, y, z'

loop_
  _atom_site_label
  _atom_site_occupancy
  _atom_site_fract_x
  _atom_site_fract_y
  _atom_site_fract_z
  _atom_site_thermal_displace_type
  _atom_site_B_iso_or_equiv
  _atom_site_type_symbol
  Cu1      1.0000 0.81876  0.45858  0.13168  Biso   1.000  Cu
  Cu2      1.0000 0.68124  0.04142  0.13168  Biso   1.000  Cu
  Cu3      1.0000 0.81876  0.54142  0.36832  Biso   1.000  Cu
  Cu4      1.0000 0.68124  0.95858  0.36832  Biso   1.000  Cu
  Cu5      1.0000 0.18124  0.54142  0.86832  Biso   1.000  Cu
  Cu6      1.0000 0.31876  0.95858  0.86832  Biso   1.000  Cu
  Cu7      1.0000 0.18124  0.45858  0.63168  Biso   1.000  Cu
  Cu8      1.0000 0.31876  0.04142  0.63168  Biso   1.000  Cu
  O1       1.0000 0.67910  0.56750  0.18265  Biso   1.000  O
  O2       1.0000 0.82090  0.93250  0.18265  Biso   1.000  O
  O3       1.0000 0.67910  0.43250  0.31735  Biso   1.000  O
  O4       1.0000 0.82090  0.06750  0.31735  Biso   1.000  O
  O5       1.0000 0.32090  0.43250  0.81735  Biso   1.000  O
  O6       1.0000 0.17910  0.06750  0.81735  Biso   1.000  O
  O7       1.0000 0.32090  0.56750  0.68265  Biso   1.000  O
  O8       1.0000 0.17910  0.93250  0.68265  Biso   1.000  O
  O9       1.0000 0.51890  0.72200  0.17325  Biso   1.000  O
  O10      1.0000 0.98110  0.77800  0.17325  Biso   1.000  O
  O11      1.0000 0.51890  0.27800  0.32675  Biso   1.000  O
  O12      1.0000 0.98110  0.22200  0.32675  Biso   1.000  O
  O13      1.0000 0.48110  0.27800  0.82675  Biso   1.000  O
  O14      1.0000 0.01890  0.22200  0.82675  Biso   1.000  O
  O15      1.0000 0.48110  0.72200  0.67325  Biso   1.000  O
  O16      1.0000 0.01890  0.77800  0.67325  Biso   1.000  O
  O17      1.0000 0.88720  0.38300  0.21173  Biso   1.000  O
  O18      1.0000 0.61280  0.11700  0.21173  Biso   1.000  O
  O19      1.0000 0.88720  0.61700  0.28827  Biso   1.000  O
  O20      1.0000 0.61280  0.88300  0.28827  Biso   1.000  O
  O21      1.0000 0.11280  0.61700  0.78827  Biso   1.000  O
  O22      1.0000 0.38720  0.88300  0.78827  Biso   1.000  O
  O23      1.0000 0.11280  0.38300  0.71173  Biso   1.000  O
  O24      1.0000 0.38720  0.11700  0.71173  Biso   1.000  O
  H1       1.0000 0.81200  0.32580  0.22940  Biso   1.000  H
  H2       1.0000 0.68800  0.17420  0.22940  Biso   1.000  H
  H3       1.0000 0.81200  0.67420  0.27060  Biso   1.000  H
  H4       1.0000 0.68800  0.82580  0.27060  Biso   1.000  H
  H5       1.0000 0.18800  0.67420  0.77060  Biso   1.000  H
  H6       1.0000 0.31200  0.82580  0.77060  Biso   1.000  H
  H7       1.0000 0.18800  0.32580  0.72940  Biso   1.000  H
  H8       1.0000 0.31200  0.17420  0.72940  Biso   1.000  H
  H9       1.0000 0.99580  0.40280  0.23380  Biso   1.000  H
  H10      1.0000 0.50420  0.09720  0.23380  Biso   1.000  H
  H11      1.0000 0.99580  0.59720  0.26620  Biso   1.000  H
  H12      1.0000 0.50420  0.90280  0.26620  Biso   1.000  H
  H13      1.0000 0.00420  0.59720  0.76620  Biso   1.000  H
  H14      1.0000 0.49580  0.90280  0.76620  Biso   1.000  H
  H15      1.0000 0.00420  0.40280  0.73380  Biso   1.000  H
  H16      1.0000 0.49580  0.09720  0.73380  Biso   1.000  H
  O25      1.0000 0.08130  0.56400  0.14192  Biso   1.000  O
  O26      1.0000 0.41870  0.93600  0.14192  Biso   1.000  O
  O27      1.0000 0.08130  0.43600  0.35808  Biso   1.000  O
  O28      1.0000 0.41870  0.06400  0.35808  Biso   1.000  O
  O29      1.0000 0.91870  0.43600  0.85808  Biso   1.000  O
  O30      1.0000 0.58130  0.06400  0.85808  Biso   1.000  O
  O31      1.0000 0.91870  0.56400  0.64192  Biso   1.000  O
  O32      1.0000 0.58130  0.93600  0.64192  Biso   1.000  O
  H17      1.0000 0.19040  0.53790  0.12260  Biso   1.000  H
  H18      1.0000 0.30960  0.96210  0.12260  Biso   1.000  H
  H19      1.0000 0.19040  0.46210  0.37740  Biso   1.000  H
  H20      1.0000 0.30960  0.03790  0.37740  Biso   1.000  H
  H21      1.0000 0.80960  0.46210  0.87740  Biso   1.000  H
  H22      1.0000 0.69040  0.03790  0.87740  Biso   1.000  H
  H23      1.0000 0.80960  0.53790  0.62260  Biso   1.000  H
  H24      1.0000 0.69040  0.96210  0.62260  Biso   1.000  H
  H25      1.0000 0.07950  0.63310  0.16530  Biso   1.000  H
  H26      1.0000 0.42050  0.86690  0.16530  Biso   1.000  H
  H27      1.0000 0.07950  0.36690  0.33470  Biso   1.000  H
  H28      1.0000 0.42050  0.13310  0.33470  Biso   1.000  H
  H29      1.0000 0.92050  0.36690  0.83470  Biso   1.000  H
  H30      1.0000 0.57950  0.13310  0.83470  Biso   1.000  H
  H31      1.0000 0.92050  0.63310  0.66530  Biso   1.000  H
  H32      1.0000 0.57950  0.86690  0.66530  Biso   1.000  H
  O33      1.0000 0.41770  0.84520  0.92749  Biso   1.000  O
  O34      1.0000 0.08230  0.65480  0.92749  Biso   1.000  O
  O35      1.0000 0.41770  0.15480  0.57251  Biso   1.000  O
  O36      1.0000 0.08230  0.34520  0.57251  Biso   1.000  O
  O37      1.0000 0.58230  0.15480  0.07251  Biso   1.000  O
  O38      1.0000 0.91770  0.34520  0.07251  Biso   1.000  O
  O39      1.0000 0.58230  0.84520  0.42749  Biso   1.000  O
  O40      1.0000 0.91770  0.65480  0.42749  Biso   1.000  O
  O41      1.0000 0.45410  0.70390  0.85655  Biso   1.000  O
  O42      1.0000 0.04590  0.79610  0.85655  Biso   1.000  O
  O43      1.0000 0.45410  0.29610  0.64345  Biso   1.000  O
  O44      1.0000 0.04590  0.20390  0.64345  Biso   1.000  O
  O45      1.0000 0.54590  0.29610  0.14345  Biso   1.000  O
  O46      1.0000 0.95410  0.20390  0.14345  Biso   1.000  O
  O47      1.0000 0.54590  0.70390  0.35655  Biso   1.000  O
  O48      1.0000 0.95410  0.79610  0.35655  Biso   1.000  O
  N1       1.0000 0.72120  0.54630  0.05701  Biso   1.000  N
  N2       1.0000 0.77880  0.95370  0.05701  Biso   1.000  N
  N3       1.0000 0.72120  0.45370  0.44299  Biso   1.000  N
  N4       1.0000 0.77880  0.04630  0.44299  Biso   1.000  N
  N5       1.0000 0.27880  0.45370  0.94299  Biso   1.000  N
  N6       1.0000 0.22120  0.04630  0.94299  Biso   1.000  N
  N7       1.0000 0.27880  0.54630  0.55701  Biso   1.000  N
  N8       1.0000 0.22120  0.95370  0.55701  Biso   1.000  N
  C1       1.0000 0.59960  0.64350  0.14950  Biso   1.000  C
  C2       1.0000 0.90040  0.85650  0.14950  Biso   1.000  C
  C3       1.0000 0.59960  0.35650  0.35050  Biso   1.000  C
  C4       1.0000 0.90040  0.14350  0.35050  Biso   1.000  C
  C5       1.0000 0.40040  0.35650  0.85050  Biso   1.000  C
  C6       1.0000 0.09960  0.14350  0.85050  Biso   1.000  C
  C7       1.0000 0.40040  0.64350  0.64950  Biso   1.000  C
  C8       1.0000 0.09960  0.85650  0.64950  Biso   1.000  C
  C9       1.0000 0.61630  0.63180  0.07577  Biso   1.000  C
  C10      1.0000 0.88370  0.86820  0.07577  Biso   1.000  C
  C11      1.0000 0.61630  0.36820  0.42423  Biso   1.000  C
  C12      1.0000 0.88370  0.13180  0.42423  Biso   1.000  C
  C13      1.0000 0.38370  0.36820  0.92423  Biso   1.000  C
  C14      1.0000 0.11630  0.13180  0.92423  Biso   1.000  C
  C15      1.0000 0.38370  0.63180  0.57577  Biso   1.000  C
  C16      1.0000 0.11630  0.86820  0.57577  Biso   1.000  C
  C17      1.0000 0.53200  0.70010  0.03108  Biso   1.000  C
  C18      1.0000 0.96800  0.79990  0.03108  Biso   1.000  C
  C19      1.0000 0.53200  0.29990  0.46892  Biso   1.000  C
  C20      1.0000 0.96800  0.20010  0.46892  Biso   1.000  C
  C21      1.0000 0.46800  0.29990  0.96892  Biso   1.000  C
  C22      1.0000 0.03200  0.20010  0.96892  Biso   1.000  C
  C23      1.0000 0.46800  0.70010  0.53108  Biso   1.000  C
  C24      1.0000 0.03200  0.79990  0.53108  Biso   1.000  C
  H33      1.0000 0.45690  0.76050  0.04460  Biso   1.000  H
  H34      1.0000 0.04310  0.73950  0.04460  Biso   1.000  H
  H35      1.0000 0.45690  0.23950  0.45540  Biso   1.000  H
  H36      1.0000 0.04310  0.26050  0.45540  Biso   1.000  H
  H37      1.0000 0.54310  0.23950  0.95540  Biso   1.000  H
  H38      1.0000 0.95690  0.26050  0.95540  Biso   1.000  H
  H39      1.0000 0.54310  0.76050  0.54460  Biso   1.000  H
  H40      1.0000 0.95690  0.73950  0.54460  Biso   1.000  H
  C25      1.0000 0.55460  0.67940  0.96465  Biso   1.000  C
  C26      1.0000 0.94540  0.82060  0.96465  Biso   1.000  C
  C27      1.0000 0.55460  0.32060  0.53535  Biso   1.000  C
  C28      1.0000 0.94540  0.17940  0.53535  Biso   1.000  C
  C29      1.0000 0.44540  0.32060  0.03535  Biso   1.000  C
  C30      1.0000 0.05460  0.17940  0.03535  Biso   1.000  C
  C31      1.0000 0.44540  0.67940  0.46465  Biso   1.000  C
  C32      1.0000 0.05460  0.82060  0.46465  Biso   1.000  C
  C33      1.0000 0.66220  0.59120  0.94570  Biso   1.000  C
  C34      1.0000 0.83780  0.90880  0.94570  Biso   1.000  C
  C35      1.0000 0.66220  0.40880  0.55430  Biso   1.000  C
  C36      1.0000 0.83780  0.09120  0.55430  Biso   1.000  C
  C37      1.0000 0.33780  0.40880  0.05430  Biso   1.000  C
  C38      1.0000 0.16220  0.09120  0.05430  Biso   1.000  C
  C39      1.0000 0.33780  0.59120  0.44570  Biso   1.000  C
  C40      1.0000 0.16220  0.90880  0.44570  Biso   1.000  C
  H41      1.0000 0.67960  0.57540  0.90000  Biso   1.000  H
  H42      1.0000 0.82040  0.92460  0.90000  Biso   1.000  H
  H43      1.0000 0.67960  0.42460  0.60000  Biso   1.000  H
  H44      1.0000 0.82040  0.07540  0.60000  Biso   1.000  H
  H45      1.0000 0.32040  0.42460  0.10000  Biso   1.000  H
  H46      1.0000 0.17960  0.07540  0.10000  Biso   1.000  H
  H47      1.0000 0.32040  0.57540  0.40000  Biso   1.000  H
  H48      1.0000 0.17960  0.92460  0.40000  Biso   1.000  H
  C41      1.0000 0.74570  0.52740  0.99279  Biso   1.000  C
  C42      1.0000 0.75430  0.97260  0.99279  Biso   1.000  C
  C43      1.0000 0.74570  0.47260  0.50721  Biso   1.000  C
  C44      1.0000 0.75430  0.02740  0.50721  Biso   1.000  C
  C45      1.0000 0.25430  0.47260  0.00721  Biso   1.000  C
  C46      1.0000 0.24570  0.02740  0.00721  Biso   1.000  C
  C47      1.0000 0.25430  0.52740  0.49279  Biso   1.000  C
  C48      1.0000 0.24570  0.97260  0.49279  Biso   1.000  C
  H49      1.0000 0.82240  0.46800  0.97890  Biso   1.000  H
  H50      1.0000 0.67760  0.03200  0.97890  Biso   1.000  H
  H51      1.0000 0.82240  0.53200  0.52110  Biso   1.000  H
  H52      1.0000 0.67760  0.96800  0.52110  Biso   1.000  H
  H53      1.0000 0.17760  0.53200  0.02110  Biso   1.000  H
  H54      1.0000 0.32240  0.96800  0.02110  Biso   1.000  H
  H55      1.0000 0.17760  0.46800  0.47890  Biso   1.000  H
  H56      1.0000 0.32240  0.03200  0.47890  Biso   1.000  H
  C49      1.0000 0.46760  0.74750  0.91111  Biso   1.000  C
  C50      1.0000 0.03240  0.75250  0.91111  Biso   1.000  C
  C51      1.0000 0.46760  0.25250  0.58889  Biso   1.000  C
  C52      1.0000 0.03240  0.24750  0.58889  Biso   1.000  C
  C53      1.0000 0.53240  0.25250  0.08889  Biso   1.000  C
  C54      1.0000 0.96760  0.24750  0.08889  Biso   1.000  C
  C55      1.0000 0.53240  0.74750  0.41111  Biso   1.000  C
  C56      1.0000 0.96760  0.75250  0.41111  Biso   1.000  C
  O49      1.0000 0.25000  0.25000  0.22440  Biso   1.000  O
  O50      1.0000 0.25000  0.75000  0.27560  Biso   1.000  O
  O51      1.0000 0.75000  0.75000  0.77560  Biso   1.000  O
  O52      1.0000 0.75000  0.25000  0.72440  Biso   1.000  O
  O53      1.0000 0.18460  0.02620  0.23980  Biso   1.000  O
  O54      1.0000 0.31540  0.47380  0.23980  Biso   1.000  O
  O55      1.0000 0.18460  0.97380  0.26020  Biso   1.000  O
  O56      1.0000 0.31540  0.52620  0.26020  Biso   1.000  O
  O57      1.0000 0.81540  0.97380  0.76020  Biso   1.000  O
  O58      1.0000 0.68460  0.52620  0.76020  Biso   1.000  O
  O59      1.0000 0.81540  0.02620  0.73980  Biso   1.000  O
  O60      1.0000 0.68460  0.47380  0.73980  Biso   1.000  O
