data_image0
_cell_length_a       10.002
_cell_length_b       8.949
_cell_length_c       20.27
_cell_angle_alpha    90
_cell_angle_beta     99.694
_cell_angle_gamma    90

_symmetry_space_group_name_H-M    "P 1"
_symmetry_int_tables_number       1

loop_
  _symmetry_equiv_pos_as_xyz
  'x, y, z'

loop_
  _atom_site_label
  _atom_site_occupancy
  _atom_site_fract_x
  _atom_site_fract_y
  _atom_site_fract_z
  _atom_site_thermal_displace_type
  _atom_site_B_iso_or_equiv
  _atom_site_type_symbol
  Cu1      1.0000 0.20059  0.93290  0.10934  Biso   1.000  Cu
  Cu2      1.0000 0.79941  0.43290  0.39066  Biso   1.000  Cu
  Cu3      1.0000 0.79941  0.06710  0.89066  Biso   1.000  Cu
  Cu4      1.0000 0.20059  0.56710  0.60934  Biso   1.000  Cu
  N1       1.0000 0.28890  0.90640  0.02720  Biso   1.000  N
  N2       1.0000 0.71110  0.40640  0.47280  Biso   1.000  N
  N3       1.0000 0.71110  0.09360  0.97280  Biso   1.000  N
  N4       1.0000 0.28890  0.59360  0.52720  Biso   1.000  N
  N5       1.0000 0.36380  0.80900  0.15099  Biso   1.000  N
  N6       1.0000 0.63620  0.30900  0.34901  Biso   1.000  N
  N7       1.0000 0.63620  0.19100  0.84901  Biso   1.000  N
  N8       1.0000 0.36380  0.69100  0.65099  Biso   1.000  N
  O1       1.0000 0.08997  0.11388  0.07375  Biso   1.000  O
  O2       1.0000 0.91003  0.61388  0.42625  Biso   1.000  O
  O3       1.0000 0.91003  0.88612  0.92625  Biso   1.000  O
  O4       1.0000 0.08997  0.38612  0.57375  Biso   1.000  O
  O5       1.0000 0.28287  0.19580  0.13001  Biso   1.000  O
  O6       1.0000 0.71713  0.69580  0.36999  Biso   1.000  O
  O7       1.0000 0.71713  0.80420  0.86999  Biso   1.000  O
  O8       1.0000 0.28287  0.30420  0.63001  Biso   1.000  O
  O9       1.0000 0.07290  0.35340  0.33755  Biso   1.000  O
  O10      1.0000 0.92710  0.85340  0.16245  Biso   1.000  O
  O11      1.0000 0.92710  0.64660  0.66245  Biso   1.000  O
  O12      1.0000 0.07290  0.14660  0.83755  Biso   1.000  O
  O13      1.0000 0.86244  0.43870  0.30505  Biso   1.000  O
  O14      1.0000 0.13756  0.93870  0.19495  Biso   1.000  O
  O15      1.0000 0.13756  0.56130  0.69495  Biso   1.000  O
  O16      1.0000 0.86244  0.06130  0.80505  Biso   1.000  O
  O17      1.0000 0.03520  0.77320  0.05670  Biso   1.000  O
  O18      1.0000 0.96480  0.27320  0.44330  Biso   1.000  O
  O19      1.0000 0.96480  0.22680  0.94330  Biso   1.000  O
  O20      1.0000 0.03520  0.72680  0.55670  Biso   1.000  O
  C1       1.0000 0.10740  0.37730  0.09769  Biso   1.000  C
  C2       1.0000 0.89260  0.87730  0.40231  Biso   1.000  C
  C3       1.0000 0.89260  0.62270  0.90231  Biso   1.000  C
  C4       1.0000 0.10740  0.12270  0.59769  Biso   1.000  C
  H1       1.0000 0.11680  0.41780  0.05380  Biso   1.000  H
  H2       1.0000 0.88320  0.91780  0.44620  Biso   1.000  H
  H3       1.0000 0.88320  0.58220  0.94620  Biso   1.000  H
  H4       1.0000 0.11680  0.08220  0.55380  Biso   1.000  H
  C5       1.0000 0.95630  0.38150  0.10261  Biso   1.000  C
  C6       1.0000 0.04370  0.88150  0.39739  Biso   1.000  C
  C7       1.0000 0.04370  0.61850  0.89739  Biso   1.000  C
  C8       1.0000 0.95630  0.11850  0.60261  Biso   1.000  C
  H5       1.0000 0.92090  0.48060  0.09080  Biso   1.000  H
  H6       1.0000 0.07910  0.98060  0.40920  Biso   1.000  H
  H7       1.0000 0.07910  0.51940  0.90920  Biso   1.000  H
  H8       1.0000 0.92090  0.01940  0.59080  Biso   1.000  H
  H9       1.0000 0.90770  0.31120  0.07080  Biso   1.000  H
  H10      1.0000 0.09230  0.81120  0.42920  Biso   1.000  H
  H11      1.0000 0.09230  0.68880  0.92920  Biso   1.000  H
  H12      1.0000 0.90770  0.18880  0.57080  Biso   1.000  H
  C9       1.0000 0.93200  0.34260  0.17270  Biso   1.000  C
  C10      1.0000 0.06800  0.84260  0.32730  Biso   1.000  C
  C11      1.0000 0.06800  0.65740  0.82730  Biso   1.000  C
  C12      1.0000 0.93200  0.15740  0.67270  Biso   1.000  C
  H13      1.0000 0.96030  0.24040  0.18310  Biso   1.000  H
  H14      1.0000 0.03970  0.74040  0.31690  Biso   1.000  H
  H15      1.0000 0.03970  0.75960  0.81690  Biso   1.000  H
  H16      1.0000 0.96030  0.25960  0.68310  Biso   1.000  H
  H17      1.0000 0.83580  0.34950  0.17420  Biso   1.000  H
  H18      1.0000 0.16420  0.84950  0.32580  Biso   1.000  H
  H19      1.0000 0.16420  0.65050  0.82580  Biso   1.000  H
  H20      1.0000 0.83580  0.15050  0.67420  Biso   1.000  H
  C13      1.0000 0.01030  0.44770  0.22540  Biso   1.000  C
  C14      1.0000 0.98970  0.94770  0.27460  Biso   1.000  C
  C15      1.0000 0.98970  0.55230  0.77460  Biso   1.000  C
  C16      1.0000 0.01030  0.05230  0.72540  Biso   1.000  C
  H21      1.0000 0.97750  0.54950  0.21480  Biso   1.000  H
  H22      1.0000 0.02250  0.04950  0.28520  Biso   1.000  H
  H23      1.0000 0.02250  0.45050  0.78520  Biso   1.000  H
  H24      1.0000 0.97750  0.95050  0.71480  Biso   1.000  H
  C17      1.0000 0.16080  0.44400  0.22087  Biso   1.000  C
  C18      1.0000 0.83920  0.94400  0.27913  Biso   1.000  C
  C19      1.0000 0.83920  0.55600  0.77913  Biso   1.000  C
  C20      1.0000 0.16080  0.05600  0.72087  Biso   1.000  C
  H25      1.0000 0.20870  0.51560  0.25220  Biso   1.000  H
  H26      1.0000 0.79130  0.01560  0.24780  Biso   1.000  H
  H27      1.0000 0.79130  0.48440  0.74780  Biso   1.000  H
  H28      1.0000 0.20870  0.98440  0.75220  Biso   1.000  H
  H29      1.0000 0.19670  0.34550  0.23350  Biso   1.000  H
  H30      1.0000 0.80330  0.84550  0.26650  Biso   1.000  H
  H31      1.0000 0.80330  0.65450  0.76650  Biso   1.000  H
  H32      1.0000 0.19670  0.15450  0.73350  Biso   1.000  H
  C21      1.0000 0.18610  0.48050  0.15077  Biso   1.000  C
  C22      1.0000 0.81390  0.98050  0.34923  Biso   1.000  C
  C23      1.0000 0.81390  0.51950  0.84923  Biso   1.000  C
  C24      1.0000 0.18610  0.01950  0.65077  Biso   1.000  C
  H33      1.0000 0.28230  0.47160  0.14960  Biso   1.000  H
  H34      1.0000 0.71770  0.97160  0.35040  Biso   1.000  H
  H35      1.0000 0.71770  0.52840  0.85040  Biso   1.000  H
  H36      1.0000 0.28230  0.02840  0.64960  Biso   1.000  H
  H37      1.0000 0.15970  0.58320  0.14020  Biso   1.000  H
  H38      1.0000 0.84030  0.08320  0.35980  Biso   1.000  H
  H39      1.0000 0.84030  0.41680  0.85980  Biso   1.000  H
  H40      1.0000 0.15970  0.91680  0.64020  Biso   1.000  H
  C25      1.0000 0.16610  0.21900  0.10175  Biso   1.000  C
  C26      1.0000 0.83390  0.71900  0.39825  Biso   1.000  C
  C27      1.0000 0.83390  0.78100  0.89825  Biso   1.000  C
  C28      1.0000 0.16610  0.28100  0.60175  Biso   1.000  C
  C29      1.0000 0.98260  0.40930  0.29540  Biso   1.000  C
  C30      1.0000 0.01740  0.90930  0.20460  Biso   1.000  C
  C31      1.0000 0.01740  0.59070  0.70460  Biso   1.000  C
  C32      1.0000 0.98260  0.09070  0.79540  Biso   1.000  C
  C33      1.0000 0.24900  0.95640  0.96555  Biso   1.000  C
  C34      1.0000 0.75100  0.45640  0.53445  Biso   1.000  C
  C35      1.0000 0.75100  0.04360  0.03445  Biso   1.000  C
  C36      1.0000 0.24900  0.54360  0.46555  Biso   1.000  C
  H41      1.0000 0.17120  0.01510  0.95680  Biso   1.000  H
  H42      1.0000 0.82880  0.51510  0.54320  Biso   1.000  H
  H43      1.0000 0.82880  0.98490  0.04320  Biso   1.000  H
  H44      1.0000 0.17120  0.48490  0.45680  Biso   1.000  H
  C37      1.0000 0.31910  0.92440  0.91313  Biso   1.000  C
  C38      1.0000 0.68090  0.42440  0.58687  Biso   1.000  C
  C39      1.0000 0.68090  0.07560  0.08687  Biso   1.000  C
  C40      1.0000 0.31910  0.57560  0.41313  Biso   1.000  C
  H45      1.0000 0.28950  0.96360  0.87070  Biso   1.000  H
  H46      1.0000 0.71050  0.46360  0.62930  Biso   1.000  H
  H47      1.0000 0.71050  0.03640  0.12930  Biso   1.000  H
  H48      1.0000 0.28950  0.53640  0.37070  Biso   1.000  H
  C41      1.0000 0.43030  0.83590  0.92450  Biso   1.000  C
  C42      1.0000 0.56970  0.33590  0.57550  Biso   1.000  C
  C43      1.0000 0.56970  0.16410  0.07550  Biso   1.000  C
  C44      1.0000 0.43030  0.66410  0.42450  Biso   1.000  C
  H49      1.0000 0.47700  0.81320  0.88980  Biso   1.000  H
  H50      1.0000 0.52300  0.31320  0.61020  Biso   1.000  H
  H51      1.0000 0.52300  0.18680  0.11020  Biso   1.000  H
  H52      1.0000 0.47700  0.68680  0.38980  Biso   1.000  H
  C45      1.0000 0.47480  0.77860  0.98889  Biso   1.000  C
  C46      1.0000 0.52520  0.27860  0.51111  Biso   1.000  C
  C47      1.0000 0.52520  0.22140  0.01111  Biso   1.000  C
  C48      1.0000 0.47480  0.72140  0.48889  Biso   1.000  C
  C49      1.0000 0.40040  0.81820  0.03870  Biso   1.000  C
  C50      1.0000 0.59960  0.31820  0.46130  Biso   1.000  C
  C51      1.0000 0.59960  0.18180  0.96130  Biso   1.000  C
  C52      1.0000 0.40040  0.68180  0.53870  Biso   1.000  C
  C53      1.0000 0.44250  0.76710  0.10576  Biso   1.000  C
  C54      1.0000 0.55750  0.26710  0.39424  Biso   1.000  C
  C55      1.0000 0.55750  0.23290  0.89424  Biso   1.000  C
  C56      1.0000 0.44250  0.73290  0.60576  Biso   1.000  C
  C57      1.0000 0.55980  0.68090  0.12278  Biso   1.000  C
  C58      1.0000 0.44020  0.18090  0.37722  Biso   1.000  C
  C59      1.0000 0.44020  0.31910  0.87722  Biso   1.000  C
  C60      1.0000 0.55980  0.81910  0.62278  Biso   1.000  C
  C61      1.0000 0.59680  0.64060  0.19035  Biso   1.000  C
  C62      1.0000 0.40320  0.14060  0.30965  Biso   1.000  C
  C63      1.0000 0.40320  0.35940  0.80965  Biso   1.000  C
  C64      1.0000 0.59680  0.85940  0.69035  Biso   1.000  C
  H53      1.0000 0.67510  0.58510  0.20430  Biso   1.000  H
  H54      1.0000 0.32490  0.08510  0.29570  Biso   1.000  H
  H55      1.0000 0.32490  0.41490  0.79570  Biso   1.000  H
  H56      1.0000 0.67510  0.91490  0.70430  Biso   1.000  H
  C65      1.0000 0.51770  0.68310  0.23509  Biso   1.000  C
  C66      1.0000 0.48230  0.18310  0.26491  Biso   1.000  C
  C67      1.0000 0.48230  0.31690  0.76491  Biso   1.000  C
  C68      1.0000 0.51770  0.81690  0.73509  Biso   1.000  C
  H57      1.0000 0.54150  0.65650  0.27990  Biso   1.000  H
  H58      1.0000 0.45850  0.15650  0.22010  Biso   1.000  H
  H59      1.0000 0.45850  0.34350  0.72010  Biso   1.000  H
  H60      1.0000 0.54150  0.84350  0.77990  Biso   1.000  H
  C69      1.0000 0.40140  0.76650  0.21412  Biso   1.000  C
  C70      1.0000 0.59860  0.26650  0.28588  Biso   1.000  C
  C71      1.0000 0.59860  0.23350  0.78588  Biso   1.000  C
  C72      1.0000 0.40140  0.73350  0.71412  Biso   1.000  C
  H61      1.0000 0.34770  0.79360  0.24550  Biso   1.000  H
  H62      1.0000 0.65230  0.29360  0.25450  Biso   1.000  H
  H63      1.0000 0.65230  0.20640  0.75450  Biso   1.000  H
  H64      1.0000 0.34770  0.70640  0.74550  Biso   1.000  H
  C73      1.0000 0.59290  0.68700  0.00739  Biso   1.000  C
  C74      1.0000 0.40710  0.18700  0.49261  Biso   1.000  C
  C75      1.0000 0.40710  0.31300  0.99261  Biso   1.000  C
  C76      1.0000 0.59290  0.81300  0.50739  Biso   1.000  C
  H65      1.0000 0.64270  0.65840  0.97470  Biso   1.000  H
  H66      1.0000 0.35730  0.15840  0.52530  Biso   1.000  H
  H67      1.0000 0.35730  0.34160  0.02530  Biso   1.000  H
  H68      1.0000 0.64270  0.84160  0.47470  Biso   1.000  H
  C77      1.0000 0.63350  0.64150  0.07077  Biso   1.000  C
  C78      1.0000 0.36650  0.14150  0.42923  Biso   1.000  C
  C79      1.0000 0.36650  0.35850  0.92923  Biso   1.000  C
  C80      1.0000 0.63350  0.85850  0.57077  Biso   1.000  C
  H69      1.0000 0.71110  0.58310  0.08100  Biso   1.000  H
  H70      1.0000 0.28890  0.08310  0.41900  Biso   1.000  H
  H71      1.0000 0.28890  0.41690  0.91900  Biso   1.000  H
  H72      1.0000 0.71110  0.91690  0.58100  Biso   1.000  H
  H73      1.0000 0.99700  0.80600  0.01690  Biso   1.000  H
  H74      1.0000 0.00300  0.30600  0.48310  Biso   1.000  H
  H75      1.0000 0.00300  0.19400  0.98310  Biso   1.000  H
  H76      1.0000 0.99700  0.69400  0.51690  Biso   1.000  H
  H77      1.0000 0.96700  0.77000  0.07980  Biso   1.000  H
  H78      1.0000 0.03300  0.27000  0.42020  Biso   1.000  H
  H79      1.0000 0.03300  0.23000  0.92020  Biso   1.000  H
  H80      1.0000 0.96700  0.73000  0.57980  Biso   1.000  H
