data_image0
_cell_length_a       7.804
_cell_length_b       24.686
_cell_length_c       34.376
_cell_angle_alpha    90
_cell_angle_beta     90
_cell_angle_gamma    90

_symmetry_space_group_name_H-M    "P 1"
_symmetry_int_tables_number       1

loop_
  _symmetry_equiv_pos_as_xyz
  'x, y, z'

loop_
  _atom_site_label
  _atom_site_occupancy
  _atom_site_fract_x
  _atom_site_fract_y
  _atom_site_fract_z
  _atom_site_thermal_displace_type
  _atom_site_B_iso_or_equiv
  _atom_site_type_symbol
  Cu1      1.0000 0.34430  0.45580  0.44883  Biso   1.000  Cu
  Cu2      1.0000 0.34430  0.95580  0.05117  Biso   1.000  Cu
  Cu3      1.0000 0.65570  0.45580  0.94883  Biso   1.000  Cu
  Cu4      1.0000 0.65570  0.95580  0.55117  Biso   1.000  Cu
  Cl1      1.0000 0.14300  0.38990  0.44580  Biso   1.000  Cl
  Cl2      1.0000 0.14300  0.88990  0.05420  Biso   1.000  Cl
  Cl3      1.0000 0.85700  0.38990  0.94580  Biso   1.000  Cl
  Cl4      1.0000 0.85700  0.88990  0.55420  Biso   1.000  Cl
  N1       1.0000 0.44300  0.53380  0.44500  Biso   1.000  N
  N2       1.0000 0.44300  0.03380  0.05500  Biso   1.000  N
  N3       1.0000 0.55700  0.53380  0.94500  Biso   1.000  N
  N4       1.0000 0.55700  0.03380  0.55500  Biso   1.000  N
  C1       1.0000 0.46700  0.54700  0.41040  Biso   1.000  C
  C2       1.0000 0.46700  0.04700  0.08960  Biso   1.000  C
  C3       1.0000 0.53300  0.54700  0.91040  Biso   1.000  C
  C4       1.0000 0.53300  0.04700  0.58960  Biso   1.000  C
  C5       1.0000 0.47900  0.56900  0.48000  Biso   1.000  C
  C6       1.0000 0.47900  0.06900  0.02000  Biso   1.000  C
  C7       1.0000 0.52100  0.56900  0.98000  Biso   1.000  C
  C8       1.0000 0.52100  0.06900  0.52000  Biso   1.000  C
  C9       1.0000 0.32800  0.55990  0.50810  Biso   1.000  C
  C10      1.0000 0.32800  0.05990  0.99190  Biso   1.000  C
  C11      1.0000 0.67200  0.55990  0.00810  Biso   1.000  C
  C12      1.0000 0.67200  0.05990  0.49190  Biso   1.000  C
  N5       1.0000 0.35300  0.45970  0.50670  Biso   1.000  N
  N6       1.0000 0.35300  0.95970  0.99330  Biso   1.000  N
  N7       1.0000 0.64700  0.45970  0.00670  Biso   1.000  N
  N8       1.0000 0.64700  0.95970  0.49330  Biso   1.000  N
  C13      1.0000 0.36400  0.41000  0.52530  Biso   1.000  C
  C14      1.0000 0.36400  0.91000  0.97470  Biso   1.000  C
  C15      1.0000 0.63600  0.41000  0.02530  Biso   1.000  C
  C16      1.0000 0.63600  0.91000  0.47470  Biso   1.000  C
  C17      1.0000 0.37000  0.40400  0.56570  Biso   1.000  C
  C18      1.0000 0.37000  0.90400  0.93430  Biso   1.000  C
  C19      1.0000 0.63000  0.40400  0.06570  Biso   1.000  C
  C20      1.0000 0.63000  0.90400  0.43430  Biso   1.000  C
  C21      1.0000 0.36800  0.45500  0.58870  Biso   1.000  C
  C22      1.0000 0.36800  0.95500  0.91130  Biso   1.000  C
  C23      1.0000 0.63200  0.45500  0.08870  Biso   1.000  C
  C24      1.0000 0.63200  0.95500  0.41130  Biso   1.000  C
  C25      1.0000 0.35900  0.50400  0.56890  Biso   1.000  C
  C26      1.0000 0.35900  0.00400  0.93110  Biso   1.000  C
  C27      1.0000 0.64100  0.50400  0.06890  Biso   1.000  C
  C28      1.0000 0.64100  0.00400  0.43110  Biso   1.000  C
  C29      1.0000 0.33700  0.50670  0.52900  Biso   1.000  C
  C30      1.0000 0.33700  0.00670  0.97100  Biso   1.000  C
  C31      1.0000 0.66300  0.50670  0.02900  Biso   1.000  C
  C32      1.0000 0.66300  0.00670  0.47100  Biso   1.000  C
  N9       1.0000 0.35700  0.46180  0.38860  Biso   1.000  N
  N10      1.0000 0.35700  0.96180  0.11140  Biso   1.000  N
  N11      1.0000 0.64300  0.46180  0.88860  Biso   1.000  N
  N12      1.0000 0.64300  0.96180  0.61140  Biso   1.000  N
  C33      1.0000 0.32100  0.42100  0.36270  Biso   1.000  C
  C34      1.0000 0.32100  0.92100  0.13730  Biso   1.000  C
  C35      1.0000 0.67900  0.42100  0.86270  Biso   1.000  C
  C36      1.0000 0.67900  0.92100  0.63730  Biso   1.000  C
  C37      1.0000 0.35900  0.43130  0.32330  Biso   1.000  C
  C38      1.0000 0.35900  0.93130  0.17670  Biso   1.000  C
  C39      1.0000 0.64100  0.43130  0.82330  Biso   1.000  C
  C40      1.0000 0.64100  0.93130  0.67670  Biso   1.000  C
  C41      1.0000 0.41900  0.48100  0.31340  Biso   1.000  C
  C42      1.0000 0.41900  0.98100  0.18660  Biso   1.000  C
  C43      1.0000 0.58100  0.48100  0.81340  Biso   1.000  C
  C44      1.0000 0.58100  0.98100  0.68660  Biso   1.000  C
  C45      1.0000 0.43100  0.50860  0.37870  Biso   1.000  C
  C46      1.0000 0.43100  0.00860  0.12130  Biso   1.000  C
  C47      1.0000 0.56900  0.50860  0.87870  Biso   1.000  C
  C48      1.0000 0.56900  0.00860  0.62130  Biso   1.000  C
  C49      1.0000 0.46000  0.52000  0.33800  Biso   1.000  C
  C50      1.0000 0.46000  0.02000  0.16200  Biso   1.000  C
  C51      1.0000 0.54000  0.52000  0.83800  Biso   1.000  C
  C52      1.0000 0.54000  0.02000  0.66200  Biso   1.000  C
  Cu5      1.0000 0.84180  0.35910  0.48597  Biso   1.000  Cu
  Cu6      1.0000 0.84180  0.85910  0.01403  Biso   1.000  Cu
  Cu7      1.0000 0.15820  0.35910  0.98597  Biso   1.000  Cu
  Cu8      1.0000 0.15820  0.85910  0.51403  Biso   1.000  Cu
  Cl5      1.0000 0.64530  0.39460  0.44420  Biso   1.000  Cl
  Cl6      1.0000 0.64530  0.89460  0.05580  Biso   1.000  Cl
  Cl7      1.0000 0.35470  0.39460  0.94420  Biso   1.000  Cl
  Cl8      1.0000 0.35470  0.89460  0.55580  Biso   1.000  Cl
  N13      1.0000 0.93700  0.31220  0.52980  Biso   1.000  N
  N14      1.0000 0.93700  0.81220  0.97020  Biso   1.000  N
  N15      1.0000 0.06300  0.31220  0.02980  Biso   1.000  N
  N16      1.0000 0.06300  0.81220  0.47020  Biso   1.000  N
  C53      1.0000 0.95100  0.26000  0.52010  Biso   1.000  C
  C54      1.0000 0.95100  0.76000  0.97990  Biso   1.000  C
  C55      1.0000 0.04900  0.26000  0.02010  Biso   1.000  C
  C56      1.0000 0.04900  0.76000  0.47990  Biso   1.000  C
  C57      1.0000 0.95700  0.33290  0.56960  Biso   1.000  C
  C58      1.0000 0.95700  0.83290  0.93040  Biso   1.000  C
  C59      1.0000 0.04300  0.33290  0.06960  Biso   1.000  C
  C60      1.0000 0.04300  0.83290  0.43040  Biso   1.000  C
  C61      1.0000 0.81900  0.37100  0.57970  Biso   1.000  C
  C62      1.0000 0.81900  0.87100  0.92030  Biso   1.000  C
  C63      1.0000 0.18100  0.37100  0.07970  Biso   1.000  C
  C64      1.0000 0.18100  0.87100  0.42030  Biso   1.000  C
  N17      1.0000 0.85500  0.42690  0.51840  Biso   1.000  N
  N18      1.0000 0.85500  0.92690  0.98160  Biso   1.000  N
  N19      1.0000 0.14500  0.42690  0.01840  Biso   1.000  N
  N20      1.0000 0.14500  0.92690  0.48160  Biso   1.000  N
  C65      1.0000 0.83900  0.28600  0.41850  Biso   1.000  C
  C66      1.0000 0.83900  0.78600  0.08150  Biso   1.000  C
  C67      1.0000 0.16100  0.28600  0.91850  Biso   1.000  C
  C68      1.0000 0.16100  0.78600  0.58150  Biso   1.000  C
  C69      1.0000 0.85700  0.23200  0.40220  Biso   1.000  C
  C70      1.0000 0.85700  0.73200  0.09780  Biso   1.000  C
  C71      1.0000 0.14300  0.23200  0.90220  Biso   1.000  C
  C72      1.0000 0.14300  0.73200  0.59780  Biso   1.000  C
  C73      1.0000 0.91600  0.19200  0.42600  Biso   1.000  C
  C74      1.0000 0.91600  0.69200  0.07400  Biso   1.000  C
  C75      1.0000 0.08400  0.19200  0.92600  Biso   1.000  C
  C76      1.0000 0.08400  0.69200  0.57400  Biso   1.000  C
  C77      1.0000 0.95700  0.19760  0.46460  Biso   1.000  C
  C78      1.0000 0.95700  0.69760  0.03540  Biso   1.000  C
  C79      1.0000 0.04300  0.19760  0.96460  Biso   1.000  C
  C80      1.0000 0.04300  0.69760  0.53540  Biso   1.000  C
  C81      1.0000 0.92000  0.25100  0.47690  Biso   1.000  C
  C82      1.0000 0.92000  0.75100  0.02310  Biso   1.000  C
  C83      1.0000 0.08000  0.25100  0.97690  Biso   1.000  C
  C84      1.0000 0.08000  0.75100  0.52310  Biso   1.000  C
  N21      1.0000 0.86300  0.29070  0.45620  Biso   1.000  N
  N22      1.0000 0.86300  0.79070  0.04380  Biso   1.000  N
  N23      1.0000 0.13700  0.29070  0.95620  Biso   1.000  N
  N24      1.0000 0.13700  0.79070  0.54380  Biso   1.000  N
  C85      1.0000 0.87300  0.47550  0.50110  Biso   1.000  C
  C86      1.0000 0.87300  0.97550  0.99890  Biso   1.000  C
  C87      1.0000 0.12700  0.47550  0.00110  Biso   1.000  C
  C88      1.0000 0.12700  0.97550  0.49890  Biso   1.000  C
  C89      1.0000 0.87900  0.52340  0.52260  Biso   1.000  C
  C90      1.0000 0.87900  0.02340  0.97740  Biso   1.000  C
  C91      1.0000 0.12100  0.52340  0.02260  Biso   1.000  C
  C92      1.0000 0.12100  0.02340  0.47740  Biso   1.000  C
  C93      1.0000 0.87000  0.52300  0.55980  Biso   1.000  C
  C94      1.0000 0.87000  0.02300  0.94020  Biso   1.000  C
  C95      1.0000 0.13000  0.52300  0.05980  Biso   1.000  C
  C96      1.0000 0.13000  0.02300  0.44020  Biso   1.000  C
  C97      1.0000 0.85100  0.47200  0.58170  Biso   1.000  C
  C98      1.0000 0.85100  0.97200  0.91830  Biso   1.000  C
  C99      1.0000 0.14900  0.47200  0.08170  Biso   1.000  C
  C100     1.0000 0.14900  0.97200  0.41830  Biso   1.000  C
  C101     1.0000 0.83600  0.42530  0.55830  Biso   1.000  C
  C102     1.0000 0.83600  0.92530  0.94170  Biso   1.000  C
  C103     1.0000 0.16400  0.42530  0.05830  Biso   1.000  C
  C104     1.0000 0.16400  0.92530  0.44170  Biso   1.000  C
  Cu9      1.0000 0.27320  0.22590  0.29955  Biso   1.000  Cu
  Cu10     1.0000 0.27320  0.72590  0.20045  Biso   1.000  Cu
  Cu11     1.0000 0.72680  0.22590  0.79955  Biso   1.000  Cu
  Cu12     1.0000 0.72680  0.72590  0.70045  Biso   1.000  Cu
  Cl9      1.0000 0.07460  0.29290  0.30430  Biso   1.000  Cl
  Cl10     1.0000 0.07460  0.79290  0.19570  Biso   1.000  Cl
  Cl11     1.0000 0.92540  0.29290  0.80430  Biso   1.000  Cl
  Cl12     1.0000 0.92540  0.79290  0.69570  Biso   1.000  Cl
  N25      1.0000 0.36000  0.15110  0.30320  Biso   1.000  N
  N26      1.0000 0.36000  0.65110  0.19680  Biso   1.000  N
  N27      1.0000 0.64000  0.15110  0.80320  Biso   1.000  N
  N28      1.0000 0.64000  0.65110  0.69680  Biso   1.000  N
  C105     1.0000 0.39300  0.12940  0.33630  Biso   1.000  C
  C106     1.0000 0.39300  0.62940  0.16370  Biso   1.000  C
  C107     1.0000 0.60700  0.12940  0.83630  Biso   1.000  C
  C108     1.0000 0.60700  0.62940  0.66370  Biso   1.000  C
  C109     1.0000 0.37300  0.11330  0.26820  Biso   1.000  C
  C110     1.0000 0.37300  0.61330  0.23180  Biso   1.000  C
  C111     1.0000 0.62700  0.11330  0.76820  Biso   1.000  C
  C112     1.0000 0.62700  0.61330  0.73180  Biso   1.000  C
  C113     1.0000 0.22600  0.12750  0.24330  Biso   1.000  C
  C114     1.0000 0.22600  0.62750  0.25670  Biso   1.000  C
  C115     1.0000 0.77400  0.12750  0.74330  Biso   1.000  C
  C116     1.0000 0.77400  0.62750  0.75670  Biso   1.000  C
  N29      1.0000 0.31700  0.22180  0.35750  Biso   1.000  N
  N30      1.0000 0.31700  0.72180  0.14250  Biso   1.000  N
  N31      1.0000 0.68300  0.22180  0.85750  Biso   1.000  N
  N32      1.0000 0.68300  0.72180  0.64250  Biso   1.000  N
  C117     1.0000 0.29800  0.26500  0.38490  Biso   1.000  C
  C118     1.0000 0.29800  0.76500  0.11510  Biso   1.000  C
  C119     1.0000 0.70200  0.26500  0.88490  Biso   1.000  C
  C120     1.0000 0.70200  0.76500  0.61510  Biso   1.000  C
  C121     1.0000 0.34700  0.25380  0.42330  Biso   1.000  C
  C122     1.0000 0.34700  0.75380  0.07670  Biso   1.000  C
  C123     1.0000 0.65300  0.25380  0.92330  Biso   1.000  C
  C124     1.0000 0.65300  0.75380  0.57670  Biso   1.000  C
  C125     1.0000 0.40300  0.20200  0.43390  Biso   1.000  C
  C126     1.0000 0.40300  0.70200  0.06610  Biso   1.000  C
  C127     1.0000 0.59700  0.20200  0.93390  Biso   1.000  C
  C128     1.0000 0.59700  0.70200  0.56610  Biso   1.000  C
  C129     1.0000 0.42500  0.15900  0.40830  Biso   1.000  C
  C130     1.0000 0.42500  0.65900  0.09170  Biso   1.000  C
  C131     1.0000 0.57500  0.15900  0.90830  Biso   1.000  C
  C132     1.0000 0.57500  0.65900  0.59170  Biso   1.000  C
  C133     1.0000 0.37300  0.17230  0.36620  Biso   1.000  C
  C134     1.0000 0.37300  0.67230  0.13380  Biso   1.000  C
  C135     1.0000 0.62700  0.17230  0.86620  Biso   1.000  C
  C136     1.0000 0.62700  0.67230  0.63380  Biso   1.000  C
  N33      1.0000 0.27100  0.22470  0.24200  Biso   1.000  N
  N34      1.0000 0.27100  0.72470  0.25800  Biso   1.000  N
  N35      1.0000 0.72900  0.22470  0.74200  Biso   1.000  N
  N36      1.0000 0.72900  0.72470  0.75800  Biso   1.000  N
  C137     1.0000 0.28600  0.27520  0.22400  Biso   1.000  C
  C138     1.0000 0.28600  0.77520  0.27600  Biso   1.000  C
  C139     1.0000 0.71400  0.27520  0.72400  Biso   1.000  C
  C140     1.0000 0.71400  0.77520  0.77600  Biso   1.000  C
  C141     1.0000 0.29300  0.27880  0.18320  Biso   1.000  C
  C142     1.0000 0.29300  0.77880  0.31680  Biso   1.000  C
  C143     1.0000 0.70700  0.27880  0.68320  Biso   1.000  C
  C144     1.0000 0.70700  0.77880  0.81680  Biso   1.000  C
  C145     1.0000 0.27100  0.23100  0.16040  Biso   1.000  C
  C146     1.0000 0.27100  0.73100  0.33960  Biso   1.000  C
  C147     1.0000 0.72900  0.23100  0.66040  Biso   1.000  C
  C148     1.0000 0.72900  0.73100  0.83960  Biso   1.000  C
  C149     1.0000 0.25200  0.18120  0.18040  Biso   1.000  C
  C150     1.0000 0.25200  0.68120  0.31960  Biso   1.000  C
  C151     1.0000 0.74800  0.18120  0.68040  Biso   1.000  C
  C152     1.0000 0.74800  0.68120  0.81960  Biso   1.000  C
  C153     1.0000 0.25500  0.18190  0.22040  Biso   1.000  C
  C154     1.0000 0.25500  0.68190  0.27960  Biso   1.000  C
  C155     1.0000 0.74500  0.18190  0.72040  Biso   1.000  C
  C156     1.0000 0.74500  0.68190  0.77960  Biso   1.000  C
  Cu13     1.0000 0.77280  0.32200  0.26401  Biso   1.000  Cu
  Cu14     1.0000 0.77280  0.82200  0.23599  Biso   1.000  Cu
  Cu15     1.0000 0.22720  0.32200  0.76401  Biso   1.000  Cu
  Cu16     1.0000 0.22720  0.82200  0.73599  Biso   1.000  Cu
  Cl13     1.0000 0.57640  0.29090  0.30620  Biso   1.000  Cl
  Cl14     1.0000 0.57640  0.79090  0.19380  Biso   1.000  Cl
  Cl15     1.0000 0.42360  0.29090  0.80620  Biso   1.000  Cl
  Cl16     1.0000 0.42360  0.79090  0.69380  Biso   1.000  Cl
  N37      1.0000 0.86000  0.37200  0.22160  Biso   1.000  N
  N38      1.0000 0.86000  0.87200  0.27840  Biso   1.000  N
  N39      1.0000 0.14000  0.37200  0.72160  Biso   1.000  N
  N40      1.0000 0.14000  0.87200  0.77840  Biso   1.000  N
  C157     1.0000 0.89200  0.41880  0.23020  Biso   1.000  C
  C158     1.0000 0.89200  0.91880  0.26980  Biso   1.000  C
  C159     1.0000 0.10800  0.41880  0.73020  Biso   1.000  C
  C160     1.0000 0.10800  0.91880  0.76980  Biso   1.000  C
  C161     1.0000 0.86300  0.35300  0.18110  Biso   1.000  C
  C162     1.0000 0.86300  0.85300  0.31890  Biso   1.000  C
  C163     1.0000 0.13700  0.35300  0.68110  Biso   1.000  C
  C164     1.0000 0.13700  0.85300  0.81890  Biso   1.000  C
  C165     1.0000 0.73000  0.31580  0.17270  Biso   1.000  C
  C166     1.0000 0.73000  0.81580  0.32730  Biso   1.000  C
  C167     1.0000 0.27000  0.31580  0.67270  Biso   1.000  C
  C168     1.0000 0.27000  0.81580  0.82730  Biso   1.000  C
  N41      1.0000 0.81500  0.39260  0.29500  Biso   1.000  N
  N42      1.0000 0.81500  0.89260  0.20500  Biso   1.000  N
  N43      1.0000 0.18500  0.39260  0.79500  Biso   1.000  N
  N44      1.0000 0.18500  0.89260  0.70500  Biso   1.000  N
  C169     1.0000 0.80700  0.39910  0.33330  Biso   1.000  C
  C170     1.0000 0.80700  0.89910  0.16670  Biso   1.000  C
  C171     1.0000 0.19300  0.39910  0.83330  Biso   1.000  C
  C172     1.0000 0.19300  0.89910  0.66670  Biso   1.000  C
  C173     1.0000 0.86200  0.44600  0.35150  Biso   1.000  C
  C174     1.0000 0.86200  0.94600  0.14850  Biso   1.000  C
  C175     1.0000 0.13800  0.44600  0.85150  Biso   1.000  C
  C176     1.0000 0.13800  0.94600  0.64850  Biso   1.000  C
  C177     1.0000 0.91700  0.49200  0.32910  Biso   1.000  C
  C178     1.0000 0.91700  0.99200  0.17090  Biso   1.000  C
  C179     1.0000 0.08300  0.49200  0.82910  Biso   1.000  C
  C180     1.0000 0.08300  0.99200  0.67090  Biso   1.000  C
  C181     1.0000 0.92600  0.48400  0.28740  Biso   1.000  C
  C182     1.0000 0.92600  0.98400  0.21260  Biso   1.000  C
  C183     1.0000 0.07400  0.48400  0.78740  Biso   1.000  C
  C184     1.0000 0.07400  0.98400  0.71260  Biso   1.000  C
  C185     1.0000 0.87900  0.43590  0.27090  Biso   1.000  C
  C186     1.0000 0.87900  0.93590  0.22910  Biso   1.000  C
  C187     1.0000 0.12100  0.43590  0.77090  Biso   1.000  C
  C188     1.0000 0.12100  0.93590  0.72910  Biso   1.000  C
  N45      1.0000 0.77000  0.25830  0.22830  Biso   1.000  N
  N46      1.0000 0.77000  0.75830  0.27170  Biso   1.000  N
  N47      1.0000 0.23000  0.25830  0.72830  Biso   1.000  N
  N48      1.0000 0.23000  0.75830  0.77170  Biso   1.000  N
  C189     1.0000 0.79000  0.21290  0.24850  Biso   1.000  C
  C190     1.0000 0.79000  0.71290  0.25150  Biso   1.000  C
  C191     1.0000 0.21000  0.21290  0.74850  Biso   1.000  C
  C192     1.0000 0.21000  0.71290  0.75150  Biso   1.000  C
  C193     1.0000 0.79500  0.15890  0.23100  Biso   1.000  C
  C194     1.0000 0.79500  0.65890  0.26900  Biso   1.000  C
  C195     1.0000 0.20500  0.15890  0.73100  Biso   1.000  C
  C196     1.0000 0.20500  0.65890  0.76900  Biso   1.000  C
  C197     1.0000 0.77600  0.16150  0.18730  Biso   1.000  C
  C198     1.0000 0.77600  0.66150  0.31270  Biso   1.000  C
  C199     1.0000 0.22400  0.16150  0.68730  Biso   1.000  C
  C200     1.0000 0.22400  0.66150  0.81270  Biso   1.000  C
  C201     1.0000 0.75700  0.21030  0.17030  Biso   1.000  C
  C202     1.0000 0.75700  0.71030  0.32970  Biso   1.000  C
  C203     1.0000 0.24300  0.21030  0.67030  Biso   1.000  C
  C204     1.0000 0.24300  0.71030  0.82970  Biso   1.000  C
  C205     1.0000 0.75600  0.25930  0.19050  Biso   1.000  C
  C206     1.0000 0.75600  0.75930  0.30950  Biso   1.000  C
  C207     1.0000 0.24400  0.25930  0.69050  Biso   1.000  C
  C208     1.0000 0.24400  0.75930  0.80950  Biso   1.000  C
  P1       1.0000 0.99500  0.10450  0.08470  Biso   1.000  P
  P2       1.0000 0.99500  0.60450  0.41530  Biso   1.000  P
  P3       1.0000 0.00500  0.10450  0.58470  Biso   1.000  P
  P4       1.0000 0.00500  0.60450  0.91530  Biso   1.000  P
  F1       1.0000 0.96100  0.16300  0.09730  Biso   1.000  F
  F2       1.0000 0.96100  0.66300  0.40270  Biso   1.000  F
  F3       1.0000 0.03900  0.16300  0.59730  Biso   1.000  F
  F4       1.0000 0.03900  0.66300  0.90270  Biso   1.000  F
  F5       1.0000 0.09900  0.09200  0.12240  Biso   1.000  F
  F6       1.0000 0.09900  0.59200  0.37760  Biso   1.000  F
  F7       1.0000 0.90100  0.09200  0.62240  Biso   1.000  F
  F8       1.0000 0.90100  0.59200  0.87760  Biso   1.000  F
  F9       1.0000 0.03400  0.04580  0.07190  Biso   1.000  F
  F10      1.0000 0.03400  0.54580  0.42810  Biso   1.000  F
  F11      1.0000 0.96600  0.04580  0.57190  Biso   1.000  F
  F12      1.0000 0.96600  0.54580  0.92810  Biso   1.000  F
  F13      1.0000 0.88400  0.11280  0.04960  Biso   1.000  F
  F14      1.0000 0.88400  0.61280  0.45040  Biso   1.000  F
  F15      1.0000 0.11600  0.11280  0.54960  Biso   1.000  F
  F16      1.0000 0.11600  0.61280  0.95040  Biso   1.000  F
  F17      1.0000 0.83700  0.08600  0.10610  Biso   1.000  F
  F18      1.0000 0.83700  0.58600  0.39390  Biso   1.000  F
  F19      1.0000 0.16300  0.08600  0.60610  Biso   1.000  F
  F20      1.0000 0.16300  0.58600  0.89390  Biso   1.000  F
  F21      1.0000 0.15100  0.12070  0.06460  Biso   1.000  F
  F22      1.0000 0.15100  0.62070  0.43540  Biso   1.000  F
  F23      1.0000 0.84900  0.12070  0.56460  Biso   1.000  F
  F24      1.0000 0.84900  0.62070  0.93540  Biso   1.000  F
  P5       1.0000 0.88700  0.07980  0.33390  Biso   1.000  P
  P6       1.0000 0.88700  0.57980  0.16610  Biso   1.000  P
  P7       1.0000 0.11300  0.07980  0.83390  Biso   1.000  P
  P8       1.0000 0.11300  0.57980  0.66610  Biso   1.000  P
  F25      1.0000 0.92400  0.14240  0.32170  Biso   1.000  F
  F26      1.0000 0.92400  0.64240  0.17830  Biso   1.000  F
  F27      1.0000 0.07600  0.14240  0.82170  Biso   1.000  F
  F28      1.0000 0.07600  0.64240  0.67830  Biso   1.000  F
  F29      1.0000 0.99900  0.06200  0.29720  Biso   1.000  F
  F30      1.0000 0.99900  0.56200  0.20280  Biso   1.000  F
  F31      1.0000 0.00100  0.06200  0.79720  Biso   1.000  F
  F32      1.0000 0.00100  0.56200  0.70280  Biso   1.000  F
  F33      1.0000 0.85800  0.01820  0.34480  Biso   1.000  F
  F34      1.0000 0.85800  0.51820  0.15520  Biso   1.000  F
  F35      1.0000 0.14200  0.01820  0.84480  Biso   1.000  F
  F36      1.0000 0.14200  0.51820  0.65520  Biso   1.000  F
  F37      1.0000 0.72700  0.08050  0.30450  Biso   1.000  F
  F38      1.0000 0.72700  0.58050  0.19550  Biso   1.000  F
  F39      1.0000 0.27300  0.08050  0.80450  Biso   1.000  F
  F40      1.0000 0.27300  0.58050  0.69550  Biso   1.000  F
  F41      1.0000 0.77900  0.09940  0.36680  Biso   1.000  F
  F42      1.0000 0.77900  0.59940  0.13320  Biso   1.000  F
  F43      1.0000 0.22100  0.09940  0.86680  Biso   1.000  F
  F44      1.0000 0.22100  0.59940  0.63320  Biso   1.000  F
  F45      1.0000 0.05100  0.08360  0.35880  Biso   1.000  F
  F46      1.0000 0.05100  0.58360  0.14120  Biso   1.000  F
  F47      1.0000 0.94900  0.08360  0.85880  Biso   1.000  F
  F48      1.0000 0.94900  0.58360  0.64120  Biso   1.000  F
  P9       1.0000 0.53500  0.23860  0.04900  Biso   1.000  P
  P10      1.0000 0.53500  0.73860  0.45100  Biso   1.000  P
  P11      1.0000 0.46500  0.23860  0.54900  Biso   1.000  P
  P12      1.0000 0.46500  0.73860  0.95100  Biso   1.000  P
  F49      1.0000 0.40500  0.20630  0.02610  Biso   1.000  F
  F50      1.0000 0.40500  0.70630  0.47390  Biso   1.000  F
  F51      1.0000 0.59500  0.20630  0.52610  Biso   1.000  F
  F52      1.0000 0.59500  0.70630  0.97390  Biso   1.000  F
  F53      1.0000 0.54500  0.18930  0.07840  Biso   1.000  F
  F54      1.0000 0.54500  0.68930  0.42160  Biso   1.000  F
  F55      1.0000 0.45500  0.18930  0.57840  Biso   1.000  F
  F56      1.0000 0.45500  0.68930  0.92160  Biso   1.000  F
  F57      1.0000 0.51700  0.28730  0.02180  Biso   1.000  F
  F58      1.0000 0.51700  0.78730  0.47820  Biso   1.000  F
  F59      1.0000 0.48300  0.28730  0.52180  Biso   1.000  F
  F60      1.0000 0.48300  0.78730  0.97820  Biso   1.000  F
  F61      1.0000 0.38400  0.26420  0.07350  Biso   1.000  F
  F62      1.0000 0.38400  0.76420  0.42650  Biso   1.000  F
  F63      1.0000 0.61600  0.26420  0.57350  Biso   1.000  F
  F64      1.0000 0.61600  0.76420  0.92650  Biso   1.000  F
  F65      1.0000 0.67700  0.27060  0.07320  Biso   1.000  F
  F66      1.0000 0.67700  0.77060  0.42680  Biso   1.000  F
  F67      1.0000 0.32300  0.27060  0.57320  Biso   1.000  F
  F68      1.0000 0.32300  0.77060  0.92680  Biso   1.000  F
  F69      1.0000 0.68100  0.21380  0.02310  Biso   1.000  F
  F70      1.0000 0.68100  0.71380  0.47690  Biso   1.000  F
  F71      1.0000 0.31900  0.21380  0.52310  Biso   1.000  F
  F72      1.0000 0.31900  0.71380  0.97690  Biso   1.000  F
  P13      1.0000 0.37800  0.44540  0.19760  Biso   1.000  P
  P14      1.0000 0.37800  0.94540  0.30240  Biso   1.000  P
  P15      1.0000 0.62200  0.44540  0.69760  Biso   1.000  P
  P16      1.0000 0.62200  0.94540  0.80240  Biso   1.000  P
  F73      1.0000 0.38300  0.39590  0.22870  Biso   1.000  F
  F74      1.0000 0.38300  0.89590  0.27130  Biso   1.000  F
  F75      1.0000 0.61700  0.39590  0.72870  Biso   1.000  F
  F76      1.0000 0.61700  0.89590  0.77130  Biso   1.000  F
  F77      1.0000 0.26200  0.47710  0.22740  Biso   1.000  F
  F78      1.0000 0.26200  0.97710  0.27260  Biso   1.000  F
  F79      1.0000 0.73800  0.47710  0.72740  Biso   1.000  F
  F80      1.0000 0.73800  0.97710  0.77260  Biso   1.000  F
  F81      1.0000 0.49400  0.41440  0.16610  Biso   1.000  F
  F82      1.0000 0.49400  0.91440  0.33390  Biso   1.000  F
  F83      1.0000 0.50600  0.41440  0.66610  Biso   1.000  F
  F84      1.0000 0.50600  0.91440  0.83390  Biso   1.000  F
  F85      1.0000 0.22200  0.42070  0.17620  Biso   1.000  F
  F86      1.0000 0.22200  0.92070  0.32380  Biso   1.000  F
  F87      1.0000 0.77800  0.42070  0.67620  Biso   1.000  F
  F88      1.0000 0.77800  0.92070  0.82380  Biso   1.000  F
  F89      1.0000 0.37200  0.49540  0.16860  Biso   1.000  F
  F90      1.0000 0.37200  0.99540  0.33140  Biso   1.000  F
  F91      1.0000 0.62800  0.49540  0.66860  Biso   1.000  F
  F92      1.0000 0.62800  0.99540  0.83140  Biso   1.000  F
  F93      1.0000 0.54000  0.47130  0.21890  Biso   1.000  F
  F94      1.0000 0.54000  0.97130  0.28110  Biso   1.000  F
  F95      1.0000 0.46000  0.47130  0.71890  Biso   1.000  F
  F96      1.0000 0.46000  0.97130  0.78110  Biso   1.000  F
