data_image0
_cell_length_a       15.061
_cell_length_b       10.06
_cell_length_c       16.569
_cell_angle_alpha    90
_cell_angle_beta     110.809
_cell_angle_gamma    90

_symmetry_space_group_name_H-M    "P 1"
_symmetry_int_tables_number       1

loop_
  _symmetry_equiv_pos_as_xyz
  'x, y, z'

loop_
  _atom_site_label
  _atom_site_occupancy
  _atom_site_fract_x
  _atom_site_fract_y
  _atom_site_fract_z
  _atom_site_thermal_displace_type
  _atom_site_B_iso_or_equiv
  _atom_site_type_symbol
  Cu1      1.0000 0.24277  0.20211  0.28390  Biso   1.000  Cu
  Cu2      1.0000 0.75723  0.70211  0.21610  Biso   1.000  Cu
  Cu3      1.0000 0.75723  0.79789  0.71610  Biso   1.000  Cu
  Cu4      1.0000 0.24277  0.29789  0.78390  Biso   1.000  Cu
  Cl1      1.0000 0.48956  0.37597  0.12054  Biso   1.000  Cl
  Cl2      1.0000 0.51044  0.87597  0.37946  Biso   1.000  Cl
  Cl3      1.0000 0.51044  0.62403  0.87946  Biso   1.000  Cl
  Cl4      1.0000 0.48956  0.12403  0.62054  Biso   1.000  Cl
  Cl5      1.0000 0.07236  0.76087  0.17146  Biso   1.000  Cl
  Cl6      1.0000 0.92764  0.26087  0.32854  Biso   1.000  Cl
  Cl7      1.0000 0.92764  0.23913  0.82854  Biso   1.000  Cl
  Cl8      1.0000 0.07236  0.73913  0.67146  Biso   1.000  Cl
  O1       1.0000 0.39270  0.35340  0.07480  Biso   1.000  O
  O2       1.0000 0.60730  0.85340  0.42520  Biso   1.000  O
  O3       1.0000 0.60730  0.64660  0.92520  Biso   1.000  O
  O4       1.0000 0.39270  0.14660  0.57480  Biso   1.000  O
  O5       1.0000 0.50850  0.51160  0.13330  Biso   1.000  O
  O6       1.0000 0.49150  0.01160  0.36670  Biso   1.000  O
  O7       1.0000 0.49150  0.48840  0.86670  Biso   1.000  O
  O8       1.0000 0.50850  0.98840  0.63330  Biso   1.000  O
  O9       1.0000 0.51260  0.31130  0.20170  Biso   1.000  O
  O10      1.0000 0.48740  0.81130  0.29830  Biso   1.000  O
  O11      1.0000 0.48740  0.68870  0.79830  Biso   1.000  O
  O12      1.0000 0.51260  0.18870  0.70170  Biso   1.000  O
  O13      1.0000 0.54380  0.31860  0.07700  Biso   1.000  O
  O14      1.0000 0.45620  0.81860  0.42300  Biso   1.000  O
  O15      1.0000 0.45620  0.68140  0.92300  Biso   1.000  O
  O16      1.0000 0.54380  0.18140  0.57700  Biso   1.000  O
  O17      1.0000 0.05490  0.63900  0.19850  Biso   1.000  O
  O18      1.0000 0.94510  0.13900  0.30150  Biso   1.000  O
  O19      1.0000 0.94510  0.36100  0.80150  Biso   1.000  O
  O20      1.0000 0.05490  0.86100  0.69850  Biso   1.000  O
  O21      1.0000 0.16780  0.78310  0.20870  Biso   1.000  O
  O22      1.0000 0.83220  0.28310  0.29130  Biso   1.000  O
  O23      1.0000 0.83220  0.21690  0.79130  Biso   1.000  O
  O24      1.0000 0.16780  0.71690  0.70870  Biso   1.000  O
  O25      1.0000 0.03340  0.85210  0.21120  Biso   1.000  O
  O26      1.0000 0.96660  0.35210  0.28880  Biso   1.000  O
  O27      1.0000 0.96660  0.14790  0.78880  Biso   1.000  O
  O28      1.0000 0.03340  0.64790  0.71120  Biso   1.000  O
  O29      1.0000 0.05130  0.78290  0.09240  Biso   1.000  O
  O30      1.0000 0.94870  0.28290  0.40760  Biso   1.000  O
  O31      1.0000 0.94870  0.21710  0.90760  Biso   1.000  O
  O32      1.0000 0.05130  0.71710  0.59240  Biso   1.000  O
  O33      1.0000 0.17310  0.42500  0.41620  Biso   1.000  O
  O34      1.0000 0.82690  0.92500  0.08380  Biso   1.000  O
  O35      1.0000 0.82690  0.57500  0.58380  Biso   1.000  O
  O36      1.0000 0.17310  0.07500  0.91620  Biso   1.000  O
  H1       1.0000 0.23850  0.45160  0.44050  Biso   1.000  H
  H2       1.0000 0.76150  0.95160  0.05950  Biso   1.000  H
  H3       1.0000 0.76150  0.54840  0.55950  Biso   1.000  H
  H4       1.0000 0.23850  0.04840  0.94050  Biso   1.000  H
  H5       1.0000 0.12930  0.45160  0.44340  Biso   1.000  H
  H6       1.0000 0.87070  0.95160  0.05660  Biso   1.000  H
  H7       1.0000 0.87070  0.54840  0.55660  Biso   1.000  H
  H8       1.0000 0.12930  0.04840  0.94340  Biso   1.000  H
  N1       1.0000 0.33430  0.28270  0.39490  Biso   1.000  N
  N2       1.0000 0.66570  0.78270  0.10510  Biso   1.000  N
  N3       1.0000 0.66570  0.71730  0.60510  Biso   1.000  N
  N4       1.0000 0.33430  0.21730  0.89490  Biso   1.000  N
  H9       1.0000 0.29950  0.32200  0.42250  Biso   1.000  H
  H10      1.0000 0.70050  0.82200  0.07750  Biso   1.000  H
  H11      1.0000 0.70050  0.67800  0.57750  Biso   1.000  H
  H12      1.0000 0.29950  0.17800  0.92250  Biso   1.000  H
  H13      1.0000 0.36640  0.21560  0.42870  Biso   1.000  H
  H14      1.0000 0.63360  0.71560  0.07130  Biso   1.000  H
  H15      1.0000 0.63360  0.78440  0.57130  Biso   1.000  H
  H16      1.0000 0.36640  0.28440  0.92870  Biso   1.000  H
  N5       1.0000 0.21630  0.38880  0.22950  Biso   1.000  N
  N6       1.0000 0.78370  0.88880  0.27050  Biso   1.000  N
  N7       1.0000 0.78370  0.61120  0.77050  Biso   1.000  N
  N8       1.0000 0.21630  0.11120  0.72950  Biso   1.000  N
  H17      1.0000 0.18050  0.43100  0.25590  Biso   1.000  H
  H18      1.0000 0.81950  0.93100  0.24410  Biso   1.000  H
  H19      1.0000 0.81950  0.56900  0.74410  Biso   1.000  H
  H20      1.0000 0.18050  0.06900  0.75590  Biso   1.000  H
  N9       1.0000 0.10550  0.14620  0.21480  Biso   1.000  N
  N10      1.0000 0.89450  0.64620  0.28520  Biso   1.000  N
  N11      1.0000 0.89450  0.85380  0.78520  Biso   1.000  N
  N12      1.0000 0.10550  0.35380  0.71480  Biso   1.000  N
  H21      1.0000 0.10350  0.05690  0.21720  Biso   1.000  H
  H22      1.0000 0.89650  0.55690  0.28280  Biso   1.000  H
  H23      1.0000 0.89650  0.94310  0.78280  Biso   1.000  H
  H24      1.0000 0.10350  0.44310  0.71720  Biso   1.000  H
  H25      1.0000 0.06910  0.17740  0.24340  Biso   1.000  H
  H26      1.0000 0.93090  0.67740  0.25660  Biso   1.000  H
  H27      1.0000 0.93090  0.82260  0.75660  Biso   1.000  H
  H28      1.0000 0.06910  0.32260  0.74340  Biso   1.000  H
  N13      1.0000 0.25790  0.02470  0.35040  Biso   1.000  N
  N14      1.0000 0.74210  0.52470  0.14960  Biso   1.000  N
  N15      1.0000 0.74210  0.97530  0.64960  Biso   1.000  N
  N16      1.0000 0.25790  0.47530  0.85040  Biso   1.000  N
  H29      1.0000 0.23860  0.95800  0.31180  Biso   1.000  H
  H30      1.0000 0.76140  0.45800  0.18820  Biso   1.000  H
  H31      1.0000 0.76140  0.04200  0.68820  Biso   1.000  H
  H32      1.0000 0.23860  0.54200  0.81180  Biso   1.000  H
  H33      1.0000 0.31990  0.01190  0.38090  Biso   1.000  H
  H34      1.0000 0.68010  0.51190  0.11910  Biso   1.000  H
  H35      1.0000 0.68010  0.98810  0.61910  Biso   1.000  H
  H36      1.0000 0.31990  0.48810  0.88090  Biso   1.000  H
  N17      1.0000 0.23800  0.66330  0.50470  Biso   1.000  N
  N18      1.0000 0.76200  0.16330  0.99530  Biso   1.000  N
  N19      1.0000 0.76200  0.33670  0.49530  Biso   1.000  N
  N20      1.0000 0.23800  0.83670  0.00470  Biso   1.000  N
  H37      1.0000 0.19440  0.61080  0.50820  Biso   1.000  H
  H38      1.0000 0.80560  0.11080  0.99180  Biso   1.000  H
  H39      1.0000 0.80560  0.38920  0.49180  Biso   1.000  H
  H40      1.0000 0.19440  0.88920  0.00820  Biso   1.000  H
  N21      1.0000 0.33320  0.36350  0.71250  Biso   1.000  N
  N22      1.0000 0.66680  0.86350  0.78750  Biso   1.000  N
  N23      1.0000 0.66680  0.63650  0.28750  Biso   1.000  N
  N24      1.0000 0.33320  0.13650  0.21250  Biso   1.000  N
  H41      1.0000 0.33510  0.29810  0.67610  Biso   1.000  H
  H42      1.0000 0.66490  0.79810  0.82390  Biso   1.000  H
  H43      1.0000 0.66490  0.70190  0.32390  Biso   1.000  H
  H44      1.0000 0.33510  0.20190  0.17610  Biso   1.000  H
  H45      1.0000 0.39260  0.37470  0.75050  Biso   1.000  H
  H46      1.0000 0.60740  0.87470  0.74950  Biso   1.000  H
  H47      1.0000 0.60740  0.62530  0.24950  Biso   1.000  H
  H48      1.0000 0.39260  0.12530  0.25050  Biso   1.000  H
  C1       1.0000 0.40360  0.37920  0.38860  Biso   1.000  C
  C2       1.0000 0.59640  0.87920  0.11140  Biso   1.000  C
  C3       1.0000 0.59640  0.62080  0.61140  Biso   1.000  C
  C4       1.0000 0.40360  0.12080  0.88860  Biso   1.000  C
  H49      1.0000 0.44270  0.40780  0.44540  Biso   1.000  H
  H50      1.0000 0.55730  0.90780  0.05460  Biso   1.000  H
  H51      1.0000 0.55730  0.59220  0.55460  Biso   1.000  H
  H52      1.0000 0.44270  0.09220  0.94540  Biso   1.000  H
  H53      1.0000 0.44270  0.33890  0.36050  Biso   1.000  H
  H54      1.0000 0.55730  0.83890  0.13950  Biso   1.000  H
  H55      1.0000 0.55730  0.66110  0.63950  Biso   1.000  H
  H56      1.0000 0.44270  0.16110  0.86050  Biso   1.000  H
  C5       1.0000 0.35490  0.49990  0.33800  Biso   1.000  C
  C6       1.0000 0.64510  0.99990  0.16200  Biso   1.000  C
  C7       1.0000 0.64510  0.50010  0.66200  Biso   1.000  C
  C8       1.0000 0.35490  0.00010  0.83800  Biso   1.000  C
  H57      1.0000 0.31060  0.53600  0.36190  Biso   1.000  H
  H58      1.0000 0.68940  0.03600  0.13810  Biso   1.000  H
  H59      1.0000 0.68940  0.46400  0.63810  Biso   1.000  H
  H60      1.0000 0.31060  0.96400  0.86190  Biso   1.000  H
  H61      1.0000 0.40200  0.56570  0.34040  Biso   1.000  H
  H62      1.0000 0.59800  0.06570  0.15960  Biso   1.000  H
  H63      1.0000 0.59800  0.43430  0.65960  Biso   1.000  H
  H64      1.0000 0.40200  0.93430  0.84040  Biso   1.000  H
  C9       1.0000 0.30150  0.47390  0.24490  Biso   1.000  C
  C10      1.0000 0.69850  0.97390  0.25510  Biso   1.000  C
  C11      1.0000 0.69850  0.52610  0.75510  Biso   1.000  C
  C12      1.0000 0.30150  0.02610  0.74490  Biso   1.000  C
  H65      1.0000 0.34410  0.42990  0.22210  Biso   1.000  H
  H66      1.0000 0.65590  0.92990  0.27790  Biso   1.000  H
  H67      1.0000 0.65590  0.57010  0.77790  Biso   1.000  H
  H68      1.0000 0.34410  0.07010  0.72210  Biso   1.000  H
  H69      1.0000 0.28330  0.55830  0.21680  Biso   1.000  H
  H70      1.0000 0.71670  0.05830  0.28320  Biso   1.000  H
  H71      1.0000 0.71670  0.44170  0.78320  Biso   1.000  H
  H72      1.0000 0.28330  0.94170  0.71680  Biso   1.000  H
  C13      1.0000 0.15870  0.38980  0.13640  Biso   1.000  C
  C14      1.0000 0.84130  0.88980  0.36360  Biso   1.000  C
  C15      1.0000 0.84130  0.61020  0.86360  Biso   1.000  C
  C16      1.0000 0.15870  0.11020  0.63640  Biso   1.000  C
  H73      1.0000 0.15080  0.48000  0.11610  Biso   1.000  H
  H74      1.0000 0.84920  0.98000  0.38390  Biso   1.000  H
  H75      1.0000 0.84920  0.52000  0.88390  Biso   1.000  H
  H76      1.0000 0.15080  0.02000  0.61610  Biso   1.000  H
  H77      1.0000 0.19060  0.33960  0.10560  Biso   1.000  H
  H78      1.0000 0.80940  0.83960  0.39440  Biso   1.000  H
  H79      1.0000 0.80940  0.66040  0.89440  Biso   1.000  H
  H80      1.0000 0.19060  0.16040  0.60560  Biso   1.000  H
  C17      1.0000 0.06000  0.33330  0.11420  Biso   1.000  C
  C18      1.0000 0.94000  0.83330  0.38580  Biso   1.000  C
  C19      1.0000 0.94000  0.66670  0.88580  Biso   1.000  C
  C20      1.0000 0.06000  0.16670  0.61420  Biso   1.000  C
  H81      1.0000 0.02990  0.37090  0.15120  Biso   1.000  H
  H82      1.0000 0.97010  0.87090  0.34880  Biso   1.000  H
  H83      1.0000 0.97010  0.62910  0.84880  Biso   1.000  H
  H84      1.0000 0.02990  0.12910  0.65120  Biso   1.000  H
  H85      1.0000 0.02280  0.35290  0.05510  Biso   1.000  H
  H86      1.0000 0.97720  0.85290  0.44490  Biso   1.000  H
  H87      1.0000 0.97720  0.64710  0.94490  Biso   1.000  H
  H88      1.0000 0.02280  0.14710  0.55510  Biso   1.000  H
  C21      1.0000 0.05910  0.18400  0.12390  Biso   1.000  C
  C22      1.0000 0.94090  0.68400  0.37610  Biso   1.000  C
  C23      1.0000 0.94090  0.81600  0.87610  Biso   1.000  C
  C24      1.0000 0.05910  0.31600  0.62390  Biso   1.000  C
  H89      1.0000 0.09170  0.14230  0.09030  Biso   1.000  H
  H90      1.0000 0.90830  0.64230  0.40970  Biso   1.000  H
  H91      1.0000 0.90830  0.85770  0.90970  Biso   1.000  H
  H92      1.0000 0.09170  0.35770  0.59030  Biso   1.000  H
  H93      1.0000 0.99440  0.15380  0.10430  Biso   1.000  H
  H94      1.0000 0.00560  0.65380  0.39570  Biso   1.000  H
  H95      1.0000 0.00560  0.84620  0.89570  Biso   1.000  H
  H96      1.0000 0.99440  0.34620  0.60430  Biso   1.000  H
  C25      1.0000 0.20430  0.01630  0.41040  Biso   1.000  C
  C26      1.0000 0.79570  0.51630  0.08960  Biso   1.000  C
  C27      1.0000 0.79570  0.98370  0.58960  Biso   1.000  C
  C28      1.0000 0.20430  0.48370  0.91040  Biso   1.000  C
  H97      1.0000 0.21200  0.09810  0.44200  Biso   1.000  H
  H98      1.0000 0.78800  0.59810  0.05800  Biso   1.000  H
  H99      1.0000 0.78800  0.90190  0.55800  Biso   1.000  H
  H100     1.0000 0.21200  0.40190  0.94200  Biso   1.000  H
  H101     1.0000 0.13820  0.00300  0.37710  Biso   1.000  H
  H102     1.0000 0.86180  0.50300  0.12290  Biso   1.000  H
  H103     1.0000 0.86180  0.99700  0.62290  Biso   1.000  H
  H104     1.0000 0.13820  0.49700  0.87710  Biso   1.000  H
  C29      1.0000 0.23510  0.90390  0.47730  Biso   1.000  C
  C30      1.0000 0.76490  0.40390  0.02270  Biso   1.000  C
  C31      1.0000 0.76490  0.09610  0.52270  Biso   1.000  C
  C32      1.0000 0.23510  0.59610  0.97730  Biso   1.000  C
  H105     1.0000 0.30120  0.91350  0.51140  Biso   1.000  H
  H106     1.0000 0.69880  0.41350  0.98860  Biso   1.000  H
  H107     1.0000 0.69880  0.08650  0.48860  Biso   1.000  H
  H108     1.0000 0.30120  0.58650  0.01140  Biso   1.000  H
  H109     1.0000 0.19830  0.90790  0.51410  Biso   1.000  H
  H110     1.0000 0.80170  0.40790  0.98590  Biso   1.000  H
  H111     1.0000 0.80170  0.09210  0.48590  Biso   1.000  H
  H112     1.0000 0.19830  0.59210  0.01410  Biso   1.000  H
  C33      1.0000 0.21870  0.77060  0.43810  Biso   1.000  C
  C34      1.0000 0.78130  0.27060  0.06190  Biso   1.000  C
  C35      1.0000 0.78130  0.22940  0.56190  Biso   1.000  C
  C36      1.0000 0.21870  0.72940  0.93810  Biso   1.000  C
  H113     1.0000 0.26190  0.76090  0.40760  Biso   1.000  H
  H114     1.0000 0.73810  0.26090  0.09240  Biso   1.000  H
  H115     1.0000 0.73810  0.23910  0.59240  Biso   1.000  H
  H116     1.0000 0.26190  0.73910  0.90760  Biso   1.000  H
  H117     1.0000 0.15450  0.76450  0.39800  Biso   1.000  H
  H118     1.0000 0.84550  0.26450  0.10200  Biso   1.000  H
  H119     1.0000 0.84550  0.23550  0.60200  Biso   1.000  H
  H120     1.0000 0.15450  0.73550  0.89800  Biso   1.000  H
  C37      1.0000 0.33660  0.65440  0.56310  Biso   1.000  C
  C38      1.0000 0.66340  0.15440  0.93690  Biso   1.000  C
  C39      1.0000 0.66340  0.34560  0.43690  Biso   1.000  C
  C40      1.0000 0.33660  0.84560  0.06310  Biso   1.000  C
  H121     1.0000 0.37790  0.66630  0.53090  Biso   1.000  H
  H122     1.0000 0.62210  0.16630  0.96910  Biso   1.000  H
  H123     1.0000 0.62210  0.33370  0.46910  Biso   1.000  H
  H124     1.0000 0.37790  0.83370  0.03090  Biso   1.000  H
  H125     1.0000 0.34940  0.72200  0.60670  Biso   1.000  H
  H126     1.0000 0.65060  0.22200  0.89330  Biso   1.000  H
  H127     1.0000 0.65060  0.27800  0.39330  Biso   1.000  H
  H128     1.0000 0.34940  0.77800  0.10670  Biso   1.000  H
  C41      1.0000 0.36170  0.52060  0.60770  Biso   1.000  C
  C42      1.0000 0.63830  0.02060  0.89230  Biso   1.000  C
  C43      1.0000 0.63830  0.47940  0.39230  Biso   1.000  C
  C44      1.0000 0.36170  0.97940  0.10770  Biso   1.000  C
  H129     1.0000 0.35100  0.45090  0.56560  Biso   1.000  H
  H130     1.0000 0.64900  0.95090  0.93440  Biso   1.000  H
  H131     1.0000 0.64900  0.54910  0.43440  Biso   1.000  H
  H132     1.0000 0.35100  0.04910  0.06560  Biso   1.000  H
  H133     1.0000 0.42720  0.52010  0.64500  Biso   1.000  H
  H134     1.0000 0.57280  0.02010  0.85500  Biso   1.000  H
  H135     1.0000 0.57280  0.47990  0.35500  Biso   1.000  H
  H136     1.0000 0.42720  0.97990  0.14500  Biso   1.000  H
  C45      1.0000 0.30360  0.48750  0.66230  Biso   1.000  C
  C46      1.0000 0.69640  0.98750  0.83770  Biso   1.000  C
  C47      1.0000 0.69640  0.51250  0.33770  Biso   1.000  C
  C48      1.0000 0.30360  0.01250  0.16230  Biso   1.000  C
  H137     1.0000 0.30850  0.55810  0.70260  Biso   1.000  H
  H138     1.0000 0.69150  0.05810  0.79740  Biso   1.000  H
  H139     1.0000 0.69150  0.44190  0.29740  Biso   1.000  H
  H140     1.0000 0.30850  0.94190  0.20260  Biso   1.000  H
  H141     1.0000 0.23830  0.47540  0.62630  Biso   1.000  H
  H142     1.0000 0.76170  0.97540  0.87370  Biso   1.000  H
  H143     1.0000 0.76170  0.52460  0.37370  Biso   1.000  H
  H144     1.0000 0.23830  0.02460  0.12630  Biso   1.000  H
