data_image0
_cell_length_a       6.913
_cell_length_b       7.3511
_cell_length_c       10.1419
_cell_angle_alpha    78.79
_cell_angle_beta     73.02
_cell_angle_gamma    41.56

_symmetry_space_group_name_H-M    "P 1"
_symmetry_int_tables_number       1

loop_
  _symmetry_equiv_pos_as_xyz
  'x, y, z'

loop_
  _atom_site_label
  _atom_site_occupancy
  _atom_site_fract_x
  _atom_site_fract_y
  _atom_site_fract_z
  _atom_site_thermal_displace_type
  _atom_site_B_iso_or_equiv
  _atom_site_type_symbol
  C1       1.0000 0.93480  0.65240  0.25290  Biso   1.000  C
  C2       1.0000 0.06520  0.34760  0.74710  Biso   1.000  C
  C3       1.0000 0.98760  0.68390  0.36250  Biso   1.000  C
  C4       1.0000 0.01240  0.31610  0.63750  Biso   1.000  C
  C5       1.0000 0.27810  0.54210  0.35650  Biso   1.000  C
  C6       1.0000 0.72190  0.45790  0.64350  Biso   1.000  C
  C7       1.0000 0.49980  0.38090  0.23960  Biso   1.000  C
  C8       1.0000 0.50020  0.61910  0.76040  Biso   1.000  C
  C9       1.0000 0.43010  0.35800  0.13350  Biso   1.000  C
  C10      1.0000 0.56990  0.64200  0.86650  Biso   1.000  C
  C11      1.0000 0.63050  0.79760  0.24310  Biso   1.000  C
  C12      1.0000 0.36950  0.20240  0.75690  Biso   1.000  C
  C13      1.0000 0.81360  0.23390  0.22210  Biso   1.000  C
  C14      1.0000 0.18640  0.76610  0.77790  Biso   1.000  C
  Cu1      1.0000 0.00000  0.50000  0.00000  Biso   1.000  Cu
  H1       1.0000 0.83150  0.79130  0.43800  Biso   1.000  H
  H2       1.0000 0.16850  0.20870  0.56200  Biso   1.000  H
  H3       1.0000 0.29020  0.57200  0.43000  Biso   1.000  H
  H4       1.0000 0.70980  0.42800  0.57000  Biso   1.000  H
  H5       1.0000 0.58570  0.25560  0.06330  Biso   1.000  H
  H6       1.0000 0.41430  0.74440  0.93670  Biso   1.000  H
  N1       1.0000 0.15260  0.49040  0.14090  Biso   1.000  N
  N2       1.0000 0.84740  0.50960  0.85910  Biso   1.000  N
  O1       1.0000 0.62310  0.74920  0.13310  Biso   1.000  O
  O2       1.0000 0.37690  0.25080  0.86690  Biso   1.000  O
  O3       1.0000 0.41320  0.94940  0.34140  Biso   1.000  O
  O4       1.0000 0.58680  0.05060  0.65860  Biso   1.000  O
  O5       1.0000 0.87570  0.22030  0.33650  Biso   1.000  O
  O6       1.0000 0.12430  0.77970  0.66350  Biso   1.000  O
  O7       1.0000 0.98410  0.14550  0.10960  Biso   1.000  O
  O8       1.0000 0.01590  0.85450  0.89040  Biso   1.000  O
