data_image0
_cell_length_a       13.5498
_cell_length_b       6.5985
_cell_length_c       13.6226
_cell_angle_alpha    90
_cell_angle_beta     116.118
_cell_angle_gamma    90

_symmetry_space_group_name_H-M    "P 1"
_symmetry_int_tables_number       1

loop_
  _symmetry_equiv_pos_as_xyz
  'x, y, z'

loop_
  _atom_site_label
  _atom_site_occupancy
  _atom_site_fract_x
  _atom_site_fract_y
  _atom_site_fract_z
  _atom_site_thermal_displace_type
  _atom_site_B_iso_or_equiv
  _atom_site_type_symbol
  Cu1      1.0000 0.25165  0.94278  0.24499  Biso   1.000  Cu
  Cu2      1.0000 0.24835  0.44278  0.25501  Biso   1.000  Cu
  Cu3      1.0000 0.74835  0.05722  0.75501  Biso   1.000  Cu
  Cu4      1.0000 0.75165  0.55722  0.74499  Biso   1.000  Cu
  O1       1.0000 0.26110  0.01780  0.38544  Biso   1.000  O
  O2       1.0000 0.23890  0.51780  0.11456  Biso   1.000  O
  O3       1.0000 0.73890  0.98220  0.61456  Biso   1.000  O
  O4       1.0000 0.76110  0.48220  0.88544  Biso   1.000  O
  N1       1.0000 0.16170  0.19220  0.18170  Biso   1.000  N
  N2       1.0000 0.33830  0.69220  0.31830  Biso   1.000  N
  N3       1.0000 0.83830  0.80780  0.81830  Biso   1.000  N
  N4       1.0000 0.66170  0.30780  0.68170  Biso   1.000  N
  O5       1.0000 0.40760  0.15400  0.27230  Biso   1.000  O
  O6       1.0000 0.09240  0.65400  0.22770  Biso   1.000  O
  O7       1.0000 0.59240  0.84600  0.72770  Biso   1.000  O
  O8       1.0000 0.90760  0.34600  0.77230  Biso   1.000  O
  O9       1.0000 0.23047  0.85720  0.10068  Biso   1.000  O
  O10      1.0000 0.26953  0.35720  0.39932  Biso   1.000  O
  O11      1.0000 0.76953  0.14280  0.89932  Biso   1.000  O
  O12      1.0000 0.73047  0.64280  0.60068  Biso   1.000  O
  C1       1.0000 0.27150  0.18250  0.43510  Biso   1.000  C
  C2       1.0000 0.22850  0.68250  0.06490  Biso   1.000  C
  C3       1.0000 0.72850  0.81750  0.56490  Biso   1.000  C
  C4       1.0000 0.77150  0.31750  0.93510  Biso   1.000  C
  N5       1.0000 0.10290  0.20520  0.08420  Biso   1.000  N
  N6       1.0000 0.39710  0.70520  0.41580  Biso   1.000  N
  N7       1.0000 0.89710  0.79480  0.91580  Biso   1.000  N
  N8       1.0000 0.60290  0.29480  0.58420  Biso   1.000  N
  H1       1.0000 0.40450  0.18570  0.21280  Biso   1.000  H
  H2       1.0000 0.09550  0.68570  0.28720  Biso   1.000  H
  H3       1.0000 0.59550  0.81430  0.78720  Biso   1.000  H
  H4       1.0000 0.90450  0.31430  0.71280  Biso   1.000  H
  H5       1.0000 0.46150  0.18470  0.32860  Biso   1.000  H
  H6       1.0000 0.03850  0.68470  0.17140  Biso   1.000  H
  H7       1.0000 0.53850  0.81530  0.67140  Biso   1.000  H
  H8       1.0000 0.96150  0.31530  0.82860  Biso   1.000  H
  C5       1.0000 0.28720  0.15330  0.55170  Biso   1.000  C
  C6       1.0000 0.21280  0.65330  0.94830  Biso   1.000  C
  C7       1.0000 0.71280  0.84670  0.44830  Biso   1.000  C
  C8       1.0000 0.78720  0.34670  0.05170  Biso   1.000  C
  N9       1.0000 0.04530  0.22010  0.99400  Biso   1.000  N
  N10      1.0000 0.45470  0.72010  0.50600  Biso   1.000  N
  N11      1.0000 0.95470  0.77990  0.00600  Biso   1.000  N
  N12      1.0000 0.54530  0.27990  0.49400  Biso   1.000  N
  C9       1.0000 0.31710  0.33450  0.62490  Biso   1.000  C
  C10      1.0000 0.18290  0.83450  0.87510  Biso   1.000  C
  C11      1.0000 0.68290  0.66550  0.37510  Biso   1.000  C
  C12      1.0000 0.81710  0.16550  0.12490  Biso   1.000  C
  H9       1.0000 0.21950  0.09770  0.54850  Biso   1.000  H
  H10      1.0000 0.28050  0.59770  0.95150  Biso   1.000  H
  H11      1.0000 0.78050  0.90230  0.45150  Biso   1.000  H
  H12      1.0000 0.71950  0.40230  0.04850  Biso   1.000  H
  H13      1.0000 0.34400  0.05190  0.58590  Biso   1.000  H
  H14      1.0000 0.15600  0.55190  0.91410  Biso   1.000  H
  H15      1.0000 0.65600  0.94810  0.41410  Biso   1.000  H
  H16      1.0000 0.84400  0.44810  0.08590  Biso   1.000  H
  C13      1.0000 0.25400  0.50860  0.60900  Biso   1.000  C
  C14      1.0000 0.24600  0.00860  0.89100  Biso   1.000  C
  C15      1.0000 0.74600  0.49140  0.39100  Biso   1.000  C
  C16      1.0000 0.75400  0.99140  0.10900  Biso   1.000  C
  C17      1.0000 0.41590  0.33170  0.72010  Biso   1.000  C
  C18      1.0000 0.08410  0.83170  0.77990  Biso   1.000  C
  C19      1.0000 0.58410  0.66830  0.27990  Biso   1.000  C
  C20      1.0000 0.91590  0.16830  0.22010  Biso   1.000  C
  C21      1.0000 0.28390  0.66790  0.68270  Biso   1.000  C
  C22      1.0000 0.21610  0.16790  0.81730  Biso   1.000  C
  C23      1.0000 0.71610  0.33210  0.31730  Biso   1.000  C
  C24      1.0000 0.78390  0.83210  0.18270  Biso   1.000  C
  N13      1.0000 0.14900  0.53310  0.50990  Biso   1.000  N
  N14      1.0000 0.35100  0.03310  0.99010  Biso   1.000  N
  N15      1.0000 0.85100  0.46690  0.49010  Biso   1.000  N
  N16      1.0000 0.64900  0.96690  0.00990  Biso   1.000  N
  H17      1.0000 0.46280  0.22130  0.73340  Biso   1.000  H
  H18      1.0000 0.03720  0.72130  0.76660  Biso   1.000  H
  H19      1.0000 0.53720  0.77870  0.26660  Biso   1.000  H
  H20      1.0000 0.96280  0.27870  0.23340  Biso   1.000  H
  C25      1.0000 0.44630  0.48750  0.79520  Biso   1.000  C
  C26      1.0000 0.05370  0.98750  0.70480  Biso   1.000  C
  C27      1.0000 0.55370  0.51250  0.20480  Biso   1.000  C
  C28      1.0000 0.94630  0.01250  0.29520  Biso   1.000  C
  H21      1.0000 0.23920  0.78170  0.66860  Biso   1.000  H
  H22      1.0000 0.26080  0.28170  0.83140  Biso   1.000  H
  H23      1.0000 0.76080  0.21830  0.33140  Biso   1.000  H
  H24      1.0000 0.73920  0.71830  0.16860  Biso   1.000  H
  C29      1.0000 0.38080  0.65540  0.77700  Biso   1.000  C
  C30      1.0000 0.11920  0.15540  0.72300  Biso   1.000  C
  C31      1.0000 0.61920  0.34460  0.22300  Biso   1.000  C
  C32      1.0000 0.88080  0.84460  0.27700  Biso   1.000  C
  O13      1.0000 0.12530  0.70230  0.47110  Biso   1.000  O
  O14      1.0000 0.37470  0.20230  0.02890  Biso   1.000  O
  O15      1.0000 0.87470  0.29770  0.52890  Biso   1.000  O
  O16      1.0000 0.62530  0.79770  0.97110  Biso   1.000  O
  O17      1.0000 0.09140  0.38520  0.47200  Biso   1.000  O
  O18      1.0000 0.40860  0.88520  0.02800  Biso   1.000  O
  O19      1.0000 0.90860  0.61480  0.52800  Biso   1.000  O
  O20      1.0000 0.59140  0.11480  0.97200  Biso   1.000  O
  H25      1.0000 0.51180  0.47870  0.85880  Biso   1.000  H
  H26      1.0000 0.98820  0.97870  0.64120  Biso   1.000  H
  H27      1.0000 0.48820  0.52130  0.14120  Biso   1.000  H
  H28      1.0000 0.01180  0.02130  0.35880  Biso   1.000  H
  H29      1.0000 0.40170  0.76000  0.82790  Biso   1.000  H
  H30      1.0000 0.09830  0.26000  0.67210  Biso   1.000  H
  H31      1.0000 0.59830  0.24000  0.17210  Biso   1.000  H
  H32      1.0000 0.90170  0.74000  0.32790  Biso   1.000  H
