data_image0
_cell_length_a       11.275
_cell_length_b       8.8409
_cell_length_c       15.945
_cell_angle_alpha    90
_cell_angle_beta     128.952
_cell_angle_gamma    90

_symmetry_space_group_name_H-M    "P 1"
_symmetry_int_tables_number       1

loop_
  _symmetry_equiv_pos_as_xyz
  'x, y, z'

loop_
  _atom_site_label
  _atom_site_occupancy
  _atom_site_fract_x
  _atom_site_fract_y
  _atom_site_fract_z
  _atom_site_thermal_displace_type
  _atom_site_B_iso_or_equiv
  _atom_site_type_symbol
  C1       1.0000 0.18820  0.76630  0.51290  Biso   1.000  C
  C2       1.0000 0.18820  0.23370  0.01290  Biso   1.000  C
  H1       1.0000 0.27860  0.82000  0.54600  Biso   1.000  H
  H2       1.0000 0.27860  0.18000  0.04600  Biso   1.000  H
  C3       1.0000 0.99480  0.65810  0.48260  Biso   1.000  C
  C4       1.0000 0.99480  0.34190  0.98260  Biso   1.000  C
  H3       1.0000 0.92530  0.62290  0.49130  Biso   1.000  H
  H4       1.0000 0.92530  0.37710  0.99130  Biso   1.000  H
  C5       1.0000 0.98560  0.63530  0.39540  Biso   1.000  C
  C6       1.0000 0.98560  0.36470  0.89540  Biso   1.000  C
  H5       1.0000 0.90970  0.58220  0.33340  Biso   1.000  H
  H6       1.0000 0.90970  0.41780  0.83340  Biso   1.000  H
  C7       1.0000 0.14770  0.70980  0.34310  Biso   1.000  C
  C8       1.0000 0.14770  0.29020  0.84310  Biso   1.000  C
  H7       1.0000 0.16630  0.81380  0.33490  Biso   1.000  H
  H8       1.0000 0.16630  0.18620  0.83490  Biso   1.000  H
  H9       1.0000 0.06240  0.67220  0.27260  Biso   1.000  H
  H10      1.0000 0.06240  0.32780  0.77260  Biso   1.000  H
  C9       1.0000 0.28710  0.61610  0.38630  Biso   1.000  C
  C10      1.0000 0.28710  0.38390  0.88630  Biso   1.000  C
  H11      1.0000 0.27140  0.51380  0.39960  Biso   1.000  H
  H12      1.0000 0.27140  0.48620  0.89960  Biso   1.000  H
  H13      1.0000 0.37420  0.65820  0.45440  Biso   1.000  H
  H14      1.0000 0.37420  0.34180  0.95440  Biso   1.000  H
  C11      1.0000 0.32040  0.61220  0.30700  Biso   1.000  C
  C12      1.0000 0.32040  0.38780  0.80700  Biso   1.000  C
  H15      1.0000 0.23440  0.56860  0.23910  Biso   1.000  H
  H16      1.0000 0.23440  0.43140  0.73910  Biso   1.000  H
  H17      1.0000 0.33570  0.71430  0.29320  Biso   1.000  H
  H18      1.0000 0.33570  0.28570  0.79320  Biso   1.000  H
  C13      1.0000 0.46120  0.51910  0.35350  Biso   1.000  C
  C14      1.0000 0.46120  0.48090  0.85350  Biso   1.000  C
  H19      1.0000 0.54430  0.55850  0.42410  Biso   1.000  H
  H20      1.0000 0.54430  0.44150  0.92410  Biso   1.000  H
  H21      1.0000 0.44230  0.41580  0.36280  Biso   1.000  H
  H22      1.0000 0.44230  0.58420  0.86280  Biso   1.000  H
  C15      1.0000 0.53270  0.64020  0.24650  Biso   1.000  C
  C16      1.0000 0.53270  0.35980  0.74650  Biso   1.000  C
  H23      1.0000 0.51780  0.74140  0.25370  Biso   1.000  H
  H24      1.0000 0.51780  0.25860  0.75370  Biso   1.000  H
  C17      1.0000 0.54270  0.39620  0.25630  Biso   1.000  C
  C18      1.0000 0.54270  0.60380  0.75630  Biso   1.000  C
  H25      1.0000 0.53430  0.29730  0.27200  Biso   1.000  H
  H26      1.0000 0.53430  0.70270  0.77200  Biso   1.000  H
  C19      1.0000 0.58280  0.58660  0.19540  Biso   1.000  C
  C20      1.0000 0.58280  0.41340  0.69540  Biso   1.000  C
  H27      1.0000 0.60890  0.64510  0.16070  Biso   1.000  H
  H28      1.0000 0.60890  0.35490  0.66070  Biso   1.000  H
  C21      1.0000 0.73040  0.96880  0.16420  Biso   1.000  C
  C22      1.0000 0.73040  0.03120  0.66420  Biso   1.000  C
  H29      1.0000 0.71410  0.94240  0.21270  Biso   1.000  H
  H30      1.0000 0.71410  0.05760  0.71270  Biso   1.000  H
  C23      1.0000 0.76420  0.87080  0.11640  Biso   1.000  C
  C24      1.0000 0.76420  0.12920  0.61640  Biso   1.000  C
  H31      1.0000 0.77640  0.76650  0.12610  Biso   1.000  H
  H32      1.0000 0.77640  0.23350  0.62610  Biso   1.000  H
  C25      1.0000 0.75290  0.09960  0.06270  Biso   1.000  C
  C26      1.0000 0.75290  0.90040  0.56270  Biso   1.000  C
  H33      1.0000 0.75630  0.18120  0.02740  Biso   1.000  H
  H34      1.0000 0.75630  0.81880  0.52740  Biso   1.000  H
  C27      1.0000 0.80470  0.90540  0.97750  Biso   1.000  C
  C28      1.0000 0.80470  0.09460  0.47750  Biso   1.000  C
  H35      1.0000 0.79280  0.99060  0.93440  Biso   1.000  H
  H36      1.0000 0.79280  0.00940  0.43440  Biso   1.000  H
  H37      1.0000 0.72830  0.83070  0.92880  Biso   1.000  H
  H38      1.0000 0.72830  0.16930  0.42880  Biso   1.000  H
  C29      1.0000 0.95810  0.83860  0.03300  Biso   1.000  C
  C30      1.0000 0.95810  0.16140  0.53300  Biso   1.000  C
  H39      1.0000 0.96070  0.73710  0.05720  Biso   1.000  H
  H40      1.0000 0.96070  0.26290  0.55720  Biso   1.000  H
  H41      1.0000 0.03400  0.89890  0.09570  Biso   1.000  H
  H42      1.0000 0.03400  0.10110  0.59570  Biso   1.000  H
  C31      1.0000 0.99510  0.83320  0.95590  Biso   1.000  C
  C32      1.0000 0.99510  0.16680  0.45590  Biso   1.000  C
  H43      1.0000 0.91610  0.77680  0.89190  Biso   1.000  H
  H44      1.0000 0.91610  0.22320  0.39190  Biso   1.000  H
  H45      1.0000 0.99540  0.93530  0.93380  Biso   1.000  H
  H46      1.0000 0.99540  0.06470  0.43380  Biso   1.000  H
  C33      1.0000 0.14600  0.76120  0.00610  Biso   1.000  C
  C34      1.0000 0.14600  0.23880  0.50610  Biso   1.000  C
  H47      1.0000 0.21820  0.79260  0.08090  Biso   1.000  H
  H48      1.0000 0.21820  0.20740  0.58090  Biso   1.000  H
  H49      1.0000 0.13550  0.65220  0.00480  Biso   1.000  H
  H50      1.0000 0.13550  0.34780  0.50480  Biso   1.000  H
  C35      1.0000 0.14010  0.77670  0.84590  Biso   1.000  C
  C36      1.0000 0.14010  0.22330  0.34590  Biso   1.000  C
  H51      1.0000 0.04810  0.72640  0.79700  Biso   1.000  H
  H52      1.0000 0.04810  0.27360  0.29700  Biso   1.000  H
  C37      1.0000 0.34780  0.89520  0.91650  Biso   1.000  C
  C38      1.0000 0.34780  0.10480  0.41650  Biso   1.000  C
  H53      1.0000 0.42850  0.94230  0.92500  Biso   1.000  H
  H54      1.0000 0.42850  0.05770  0.42500  Biso   1.000  H
  C39      1.0000 0.33600  0.87930  0.99450  Biso   1.000  C
  C40      1.0000 0.33600  0.12070  0.49450  Biso   1.000  C
  H55      1.0000 0.40410  0.91410  0.06510  Biso   1.000  H
  H56      1.0000 0.40410  0.08590  0.56510  Biso   1.000  H
  Cl1      1.0000 0.42003  0.97957  0.74234  Biso   1.000  Cl
  Cl2      1.0000 0.42003  0.02043  0.24234  Biso   1.000  Cl
  Cl3      1.0000 0.82420  0.46946  0.12800  Biso   1.000  Cl
  Cl4      1.0000 0.82420  0.53054  0.62800  Biso   1.000  Cl
  Cu1      1.0000 0.20103  0.81499  0.69475  Biso   1.000  Cu
  Cu2      1.0000 0.20103  0.18501  0.19475  Biso   1.000  Cu
  Cu3      1.0000 0.67866  0.30176  0.16054  Biso   1.000  Cu
  Cu4      1.0000 0.67866  0.69824  0.66054  Biso   1.000  Cu
  N1       1.0000 0.12270  0.74160  0.55690  Biso   1.000  N
  N2       1.0000 0.12270  0.25840  0.05690  Biso   1.000  N
  N3       1.0000 0.10890  0.70480  0.41500  Biso   1.000  N
  N4       1.0000 0.10890  0.29520  0.91500  Biso   1.000  N
  N5       1.0000 0.50770  0.51860  0.28630  Biso   1.000  N
  N6       1.0000 0.50770  0.48140  0.78630  Biso   1.000  N
  N7       1.0000 0.58990  0.43230  0.20210  Biso   1.000  N
  N8       1.0000 0.58990  0.56770  0.70210  Biso   1.000  N
  N9       1.0000 0.72410  0.11100  0.13000  Biso   1.000  N
  N10      1.0000 0.72410  0.88900  0.63000  Biso   1.000  N
  N11      1.0000 0.77660  0.95700  0.05110  Biso   1.000  N
  N12      1.0000 0.77660  0.04300  0.55110  Biso   1.000  N
  N13      1.0000 0.20500  0.80230  0.95000  Biso   1.000  N
  N14      1.0000 0.20500  0.19770  0.45000  Biso   1.000  N
  N15      1.0000 0.22450  0.83250  0.82280  Biso   1.000  N
  N16      1.0000 0.22450  0.16750  0.32280  Biso   1.000  N
