data_image0
_cell_length_a       7.696
_cell_length_b       8.017
_cell_length_c       19.23
_cell_angle_alpha    90
_cell_angle_beta     110.8
_cell_angle_gamma    90

_symmetry_space_group_name_H-M    "P 1"
_symmetry_int_tables_number       1

loop_
  _symmetry_equiv_pos_as_xyz
  'x, y, z'

loop_
  _atom_site_label
  _atom_site_occupancy
  _atom_site_fract_x
  _atom_site_fract_y
  _atom_site_fract_z
  _atom_site_thermal_displace_type
  _atom_site_B_iso_or_equiv
  _atom_site_type_symbol
  Cu1      1.0000 0.50000  0.50000  0.50000  Biso   1.000  Cu
  Cu2      1.0000 0.00000  0.00000  0.00000  Biso   1.000  Cu
  C1       1.0000 0.03290  0.00960  0.39340  Biso   1.000  C
  C2       1.0000 0.46710  0.50960  0.10660  Biso   1.000  C
  C3       1.0000 0.96710  0.99040  0.60660  Biso   1.000  C
  C4       1.0000 0.53290  0.49040  0.89340  Biso   1.000  C
  C5       1.0000 0.16930  0.01530  0.46180  Biso   1.000  C
  C6       1.0000 0.33070  0.51530  0.03820  Biso   1.000  C
  C7       1.0000 0.83070  0.98470  0.53820  Biso   1.000  C
  C8       1.0000 0.66930  0.48470  0.96180  Biso   1.000  C
  C9       1.0000 0.23920  0.87390  0.49660  Biso   1.000  C
  C10      1.0000 0.26080  0.37390  0.00340  Biso   1.000  C
  C11      1.0000 0.76080  0.12610  0.50340  Biso   1.000  C
  C12      1.0000 0.73920  0.62610  0.99660  Biso   1.000  C
  C13      1.0000 0.17060  0.72090  0.46210  Biso   1.000  C
  C14      1.0000 0.32940  0.22090  0.03790  Biso   1.000  C
  C15      1.0000 0.82940  0.27910  0.53790  Biso   1.000  C
  C16      1.0000 0.67060  0.77910  0.96210  Biso   1.000  C
  C17      1.0000 0.03140  0.71780  0.39420  Biso   1.000  C
  C18      1.0000 0.46860  0.21780  0.10580  Biso   1.000  C
  C19      1.0000 0.96860  0.28220  0.60580  Biso   1.000  C
  C20      1.0000 0.53140  0.78220  0.89420  Biso   1.000  C
  C21      1.0000 0.96320  0.86350  0.36090  Biso   1.000  C
  C22      1.0000 0.53680  0.36350  0.13910  Biso   1.000  C
  C23      1.0000 0.03680  0.13650  0.63910  Biso   1.000  C
  C24      1.0000 0.46320  0.63650  0.86090  Biso   1.000  C
  S1       1.0000 0.94420  0.19100  0.34640  Biso   1.000  S
  S2       1.0000 0.55580  0.69100  0.15360  Biso   1.000  S
  S3       1.0000 0.05580  0.80900  0.65360  Biso   1.000  S
  S4       1.0000 0.44420  0.30900  0.84640  Biso   1.000  S
  O1       1.0000 0.95720  0.31900  0.39900  Biso   1.000  O
  O2       1.0000 0.54280  0.81900  0.10100  Biso   1.000  O
  O3       1.0000 0.04280  0.68100  0.60100  Biso   1.000  O
  O4       1.0000 0.45720  0.18100  0.89900  Biso   1.000  O
  O5       1.0000 0.77000  0.15810  0.28950  Biso   1.000  O
  O6       1.0000 0.73000  0.65810  0.21050  Biso   1.000  O
  O7       1.0000 0.23000  0.84190  0.71050  Biso   1.000  O
  O8       1.0000 0.27000  0.34190  0.78950  Biso   1.000  O
  N1       1.0000 0.08040  0.23300  0.29970  Biso   1.000  N
  N2       1.0000 0.41960  0.73300  0.20030  Biso   1.000  N
  N3       1.0000 0.91960  0.76700  0.70030  Biso   1.000  N
  N4       1.0000 0.58040  0.26700  0.79970  Biso   1.000  N
  C25      1.0000 0.26300  0.28180  0.33110  Biso   1.000  C
  C26      1.0000 0.23700  0.78180  0.16890  Biso   1.000  C
  C27      1.0000 0.73700  0.71820  0.66890  Biso   1.000  C
  C28      1.0000 0.76300  0.21820  0.83110  Biso   1.000  C
  C29      1.0000 0.36840  0.27360  0.27780  Biso   1.000  C
  C30      1.0000 0.13160  0.77360  0.22220  Biso   1.000  C
  C31      1.0000 0.63160  0.72640  0.72220  Biso   1.000  C
  C32      1.0000 0.86840  0.22640  0.77780  Biso   1.000  C
  O9       1.0000 0.32940  0.31260  0.39580  Biso   1.000  O
  O10      1.0000 0.17060  0.81260  0.10420  Biso   1.000  O
  O11      1.0000 0.67060  0.68740  0.60420  Biso   1.000  O
  O12      1.0000 0.82940  0.18740  0.89580  Biso   1.000  O
  N5       1.0000 0.24880  0.57000  0.49830  Biso   1.000  N
  N6       1.0000 0.25120  0.07000  0.00170  Biso   1.000  N
  N7       1.0000 0.75120  0.43000  0.50170  Biso   1.000  N
  N8       1.0000 0.74880  0.93000  0.99830  Biso   1.000  N
  N9       1.0000 0.52510  0.71640  0.39170  Biso   1.000  N
  N10      1.0000 0.97490  0.21640  0.10830  Biso   1.000  N
  N11      1.0000 0.47490  0.28360  0.60830  Biso   1.000  N
  N12      1.0000 0.02510  0.78360  0.89170  Biso   1.000  N
  O13      1.0000 0.53550  0.70510  0.45420  Biso   1.000  O
  O14      1.0000 0.96450  0.20510  0.04580  Biso   1.000  O
  O15      1.0000 0.46450  0.29490  0.54580  Biso   1.000  O
  O16      1.0000 0.03550  0.79490  0.95420  Biso   1.000  O
  O17      1.0000 0.52010  0.86100  0.36320  Biso   1.000  O
  O18      1.0000 0.97990  0.36100  0.13680  Biso   1.000  O
  O19      1.0000 0.47990  0.13900  0.63680  Biso   1.000  O
  O20      1.0000 0.02010  0.63900  0.86320  Biso   1.000  O
  O21      1.0000 0.53920  0.61010  0.35250  Biso   1.000  O
  O22      1.0000 0.96080  0.11010  0.14750  Biso   1.000  O
  O23      1.0000 0.46080  0.38990  0.64750  Biso   1.000  O
  O24      1.0000 0.03920  0.88990  0.85250  Biso   1.000  O
