data_image0
_cell_length_a       10.031
_cell_length_b       6.134
_cell_length_c       13.385
_cell_angle_alpha    90
_cell_angle_beta     126.83
_cell_angle_gamma    90

_symmetry_space_group_name_H-M    "P 1"
_symmetry_int_tables_number       1

loop_
  _symmetry_equiv_pos_as_xyz
  'x, y, z'

loop_
  _atom_site_label
  _atom_site_occupancy
  _atom_site_fract_x
  _atom_site_fract_y
  _atom_site_fract_z
  _atom_site_thermal_displace_type
  _atom_site_B_iso_or_equiv
  _atom_site_type_symbol
  Cu1      1.0000 0.69829  0.00770  0.79872  Biso   1.000  Cu
  Cu2      1.0000 0.30171  0.50770  0.70128  Biso   1.000  Cu
  Cu3      1.0000 0.30171  0.99230  0.20128  Biso   1.000  Cu
  Cu4      1.0000 0.69829  0.49230  0.29872  Biso   1.000  Cu
  O1       1.0000 0.54650  0.90280  0.62890  Biso   1.000  O
  O2       1.0000 0.45350  0.40280  0.87110  Biso   1.000  O
  O3       1.0000 0.45350  0.09720  0.37110  Biso   1.000  O
  O4       1.0000 0.54650  0.59720  0.12890  Biso   1.000  O
  O5       1.0000 0.91080  0.61740  0.35200  Biso   1.000  O
  O6       1.0000 0.08920  0.11740  0.14800  Biso   1.000  O
  O7       1.0000 0.08920  0.38260  0.64800  Biso   1.000  O
  O8       1.0000 0.91080  0.88260  0.85200  Biso   1.000  O
  O9       1.0000 0.47680  0.69180  0.72440  Biso   1.000  O
  O10      1.0000 0.52320  0.19180  0.77560  Biso   1.000  O
  O11      1.0000 0.52320  0.30820  0.27560  Biso   1.000  O
  O12      1.0000 0.47680  0.80820  0.22440  Biso   1.000  O
  N1       1.0000 0.17970  0.61640  0.53580  Biso   1.000  N
  N2       1.0000 0.82030  0.11640  0.96420  Biso   1.000  N
  N3       1.0000 0.82030  0.38360  0.46420  Biso   1.000  N
  N4       1.0000 0.17970  0.88360  0.03580  Biso   1.000  N
  C1       1.0000 0.02230  0.56750  0.46560  Biso   1.000  C
  C2       1.0000 0.97770  0.06750  0.03440  Biso   1.000  C
  C3       1.0000 0.97770  0.43250  0.53440  Biso   1.000  C
  C4       1.0000 0.02230  0.93250  0.96560  Biso   1.000  C
  C5       1.0000 0.26790  0.74940  0.50200  Biso   1.000  C
  C6       1.0000 0.73210  0.24940  0.99800  Biso   1.000  C
  C7       1.0000 0.73210  0.25060  0.49800  Biso   1.000  C
  C8       1.0000 0.26790  0.75060  0.00200  Biso   1.000  C
  C9       1.0000 0.44280  0.77950  0.62640  Biso   1.000  C
  C10      1.0000 0.55720  0.27950  0.87360  Biso   1.000  C
  C11      1.0000 0.55720  0.22050  0.37360  Biso   1.000  C
  C12      1.0000 0.44280  0.72050  0.12640  Biso   1.000  C
  C13      1.0000 0.19030  0.98210  0.45800  Biso   1.000  C
  C14      1.0000 0.80970  0.48210  0.04200  Biso   1.000  C
  C15      1.0000 0.80970  0.01790  0.54200  Biso   1.000  C
  C16      1.0000 0.19030  0.51790  0.95800  Biso   1.000  C
  C17      1.0000 0.29820  0.63700  0.40560  Biso   1.000  C
  C18      1.0000 0.70180  0.13700  0.09440  Biso   1.000  C
  C19      1.0000 0.70180  0.36300  0.59440  Biso   1.000  C
  C20      1.0000 0.29820  0.86300  0.90560  Biso   1.000  C
  H1       1.0000 0.16720  0.65160  0.33190  Biso   1.000  H
  H2       1.0000 0.83280  0.15160  0.16810  Biso   1.000  H
  H3       1.0000 0.83280  0.34840  0.66810  Biso   1.000  H
  H4       1.0000 0.16720  0.84840  0.83190  Biso   1.000  H
  H5       1.0000 0.31000  0.51000  0.42000  Biso   1.000  H
  H6       1.0000 0.69000  0.01000  0.08000  Biso   1.000  H
  H7       1.0000 0.69000  0.49000  0.58000  Biso   1.000  H
  H8       1.0000 0.31000  0.99000  0.92000  Biso   1.000  H
  H9       1.0000 0.35000  0.70000  0.39000  Biso   1.000  H
  H10      1.0000 0.65000  0.20000  0.11000  Biso   1.000  H
  H11      1.0000 0.65000  0.30000  0.61000  Biso   1.000  H
  H12      1.0000 0.35000  0.80000  0.89000  Biso   1.000  H
  H13      1.0000 0.19000  0.01900  0.51850  Biso   1.000  H
  H14      1.0000 0.81000  0.51900  0.98150  Biso   1.000  H
  H15      1.0000 0.81000  0.98100  0.48150  Biso   1.000  H
  H16      1.0000 0.19000  0.48100  0.01850  Biso   1.000  H
  H17      1.0000 0.08850  0.96630  0.37090  Biso   1.000  H
  H18      1.0000 0.91150  0.46630  0.12910  Biso   1.000  H
  H19      1.0000 0.91150  0.03370  0.62910  Biso   1.000  H
  H20      1.0000 0.08850  0.53370  0.87090  Biso   1.000  H
  H21      1.0000 0.24150  0.09910  0.44620  Biso   1.000  H
  H22      1.0000 0.75850  0.59910  0.05380  Biso   1.000  H
  H23      1.0000 0.75850  0.90090  0.55380  Biso   1.000  H
  H24      1.0000 0.24150  0.40090  0.94620  Biso   1.000  H
