data_image0
_cell_length_a       11.112
_cell_length_b       7.5687
_cell_length_c       15.993
_cell_angle_alpha    90
_cell_angle_beta     108.248
_cell_angle_gamma    90

_symmetry_space_group_name_H-M    "P 1"
_symmetry_int_tables_number       1

loop_
  _symmetry_equiv_pos_as_xyz
  'x, y, z'

loop_
  _atom_site_label
  _atom_site_occupancy
  _atom_site_fract_x
  _atom_site_fract_y
  _atom_site_fract_z
  _atom_site_thermal_displace_type
  _atom_site_B_iso_or_equiv
  _atom_site_type_symbol
  C1       1.0000 0.76860  0.89580  0.96530  Biso   1.000  C
  C2       1.0000 0.23140  0.39580  0.03470  Biso   1.000  C
  H1       1.0000 0.75640  0.83150  0.01300  Biso   1.000  H
  H2       1.0000 0.24360  0.33150  0.98700  Biso   1.000  H
  C3       1.0000 0.88860  0.95520  0.97120  Biso   1.000  C
  C4       1.0000 0.11140  0.45520  0.02880  Biso   1.000  C
  H3       1.0000 0.95800  0.93250  0.02260  Biso   1.000  H
  H4       1.0000 0.04200  0.43250  0.97740  Biso   1.000  H
  C5       1.0000 0.90660  0.04760  0.90180  Biso   1.000  C
  C6       1.0000 0.09340  0.54760  0.09820  Biso   1.000  C
  H5       1.0000 0.98820  0.09180  0.90560  Biso   1.000  H
  H6       1.0000 0.01180  0.59180  0.09440  Biso   1.000  H
  C7       1.0000 0.80520  0.07550  0.82690  Biso   1.000  C
  C8       1.0000 0.19480  0.57550  0.17310  Biso   1.000  C
  H7       1.0000 0.81610  0.13490  0.77740  Biso   1.000  H
  H8       1.0000 0.18390  0.63490  0.22260  Biso   1.000  H
  C9       1.0000 0.68690  0.01430  0.82570  Biso   1.000  C
  C10      1.0000 0.31310  0.51430  0.17430  Biso   1.000  C
  C11      1.0000 0.56810  0.03980  0.75100  Biso   1.000  C
  C12      1.0000 0.43190  0.53980  0.24900  Biso   1.000  C
  C13      1.0000 0.55780  0.11310  0.67010  Biso   1.000  C
  C14      1.0000 0.44220  0.61310  0.32990  Biso   1.000  C
  H9       1.0000 0.63060  0.15190  0.65630  Biso   1.000  H
  H10      1.0000 0.36940  0.65190  0.34370  Biso   1.000  H
  C15      1.0000 0.43840  0.12820  0.61000  Biso   1.000  C
  C16      1.0000 0.56160  0.62820  0.39000  Biso   1.000  C
  H11      1.0000 0.42860  0.18210  0.55460  Biso   1.000  H
  H12      1.0000 0.57140  0.68210  0.44540  Biso   1.000  H
  C17      1.0000 0.33390  0.06710  0.62850  Biso   1.000  C
  C18      1.0000 0.66610  0.56710  0.37150  Biso   1.000  C
  H13      1.0000 0.25220  0.07550  0.58620  Biso   1.000  H
  H14      1.0000 0.74780  0.57550  0.41380  Biso   1.000  H
  C19      1.0000 0.34960  0.99310  0.70980  Biso   1.000  C
  C20      1.0000 0.65040  0.49310  0.29020  Biso   1.000  C
  C21      1.0000 0.25130  0.91820  0.74360  Biso   1.000  C
  C22      1.0000 0.74870  0.41820  0.25640  Biso   1.000  C
  C23      1.0000 0.12210  0.91020  0.69490  Biso   1.000  C
  C24      1.0000 0.87790  0.41020  0.30510  Biso   1.000  C
  H15      1.0000 0.09180  0.95550  0.63660  Biso   1.000  H
  H16      1.0000 0.90820  0.45550  0.36340  Biso   1.000  H
  C25      1.0000 0.04090  0.83470  0.73430  Biso   1.000  C
  C26      1.0000 0.95910  0.33470  0.26570  Biso   1.000  C
  H17      1.0000 0.95310  0.82730  0.70280  Biso   1.000  H
  H18      1.0000 0.04690  0.32730  0.29720  Biso   1.000  H
  C27      1.0000 0.08610  0.76890  0.81990  Biso   1.000  C
  C28      1.0000 0.91390  0.26890  0.18010  Biso   1.000  C
  H19      1.0000 0.03050  0.71520  0.84700  Biso   1.000  H
  H20      1.0000 0.96950  0.21520  0.15300  Biso   1.000  H
  C29      1.0000 0.21310  0.78410  0.86350  Biso   1.000  C
  C30      1.0000 0.78690  0.28410  0.13650  Biso   1.000  C
  H21      1.0000 0.24440  0.74320  0.92250  Biso   1.000  H
  H22      1.0000 0.75560  0.24320  0.07750  Biso   1.000  H
  C31      1.0000 0.50950  0.72080  0.98360  Biso   1.000  C
  C32      1.0000 0.49050  0.22080  0.01640  Biso   1.000  C
  Cu1      1.0000 0.48539  0.88578  0.88553  Biso   1.000  Cu
  Cu2      1.0000 0.51461  0.38578  0.11447  Biso   1.000  Cu
  N1       1.0000 0.67010  0.92660  0.89450  Biso   1.000  N
  N2       1.0000 0.32990  0.42660  0.10550  Biso   1.000  N
  N3       1.0000 0.46650  0.98360  0.76900  Biso   1.000  N
  N4       1.0000 0.53350  0.48360  0.23100  Biso   1.000  N
  N5       1.0000 0.29490  0.85380  0.82680  Biso   1.000  N
  N6       1.0000 0.70510  0.35380  0.17320  Biso   1.000  N
  N7       1.0000 0.52300  0.62590  0.04200  Biso   1.000  N
  N8       1.0000 0.47700  0.12590  0.95800  Biso   1.000  N
  C33      1.0000 0.68780  0.68980  0.65450  Biso   1.000  C
  C34      1.0000 0.31220  0.18980  0.34550  Biso   1.000  C
  C35      1.0000 0.65320  0.60480  0.72090  Biso   1.000  C
  C36      1.0000 0.34680  0.10480  0.27910  Biso   1.000  C
  C37      1.0000 0.75150  0.56150  0.79910  Biso   1.000  C
  C38      1.0000 0.24850  0.06150  0.20090  Biso   1.000  C
  C39      1.0000 0.52470  0.56210  0.71170  Biso   1.000  C
  C40      1.0000 0.47530  0.06210  0.28830  Biso   1.000  C
  C41      1.0000 0.42720  0.59830  0.63220  Biso   1.000  C
  C42      1.0000 0.57280  0.09830  0.36780  Biso   1.000  C
  H23      1.0000 0.44830  0.65170  0.58490  Biso   1.000  H
  H24      1.0000 0.55170  0.15170  0.41510  Biso   1.000  H
  C43      1.0000 0.30390  0.55840  0.62190  Biso   1.000  C
  C44      1.0000 0.69610  0.05840  0.37810  Biso   1.000  C
  H25      1.0000 0.24050  0.58600  0.56800  Biso   1.000  H
  H26      1.0000 0.75950  0.08600  0.43200  Biso   1.000  H
  C45      1.0000 0.26840  0.47580  0.69090  Biso   1.000  C
  C46      1.0000 0.73160  0.97580  0.30910  Biso   1.000  C
  C47      1.0000 0.36760  0.44030  0.77050  Biso   1.000  C
  C48      1.0000 0.63240  0.94030  0.22950  Biso   1.000  C
  H27      1.0000 0.34840  0.38520  0.81820  Biso   1.000  H
  H28      1.0000 0.65160  0.88520  0.18180  Biso   1.000  H
  C49      1.0000 0.48830  0.48420  0.77880  Biso   1.000  C
  C50      1.0000 0.51170  0.98420  0.22120  Biso   1.000  C
  H29      1.0000 0.55180  0.46070  0.83330  Biso   1.000  H
  H30      1.0000 0.44820  0.96070  0.16670  Biso   1.000  H
  C51      1.0000 0.12500  0.31760  0.77340  Biso   1.000  C
  C52      1.0000 0.87500  0.81760  0.22660  Biso   1.000  C
  C53      1.0000 0.14660  0.42100  0.69470  Biso   1.000  C
  C54      1.0000 0.85340  0.92100  0.30530  Biso   1.000  C
  C55      1.0000 0.03570  0.44490  0.63750  Biso   1.000  C
  C56      1.0000 0.96430  0.94490  0.36250  Biso   1.000  C
  C57      1.0000 0.92100  0.36110  0.64250  Biso   1.000  C
  C58      1.0000 0.07900  0.86110  0.35750  Biso   1.000  C
  C59      1.0000 0.02600  0.55040  0.55780  Biso   1.000  C
  C60      1.0000 0.97400  0.05040  0.44220  Biso   1.000  C
  N9       1.0000 0.83220  0.52750  0.86150  Biso   1.000  N
  N10      1.0000 0.16780  0.02750  0.13850  Biso   1.000  N
  N11      1.0000 0.71750  0.76260  0.60060  Biso   1.000  N
  N12      1.0000 0.28250  0.26260  0.39940  Biso   1.000  N
  N13      1.0000 0.13130  0.24710  0.83700  Biso   1.000  N
  N14      1.0000 0.86870  0.74710  0.16300  Biso   1.000  N
  N15      1.0000 0.82480  0.30060  0.63380  Biso   1.000  N
  N16      1.0000 0.17520  0.80060  0.36620  Biso   1.000  N
  N17      1.0000 0.98980  0.62950  0.49590  Biso   1.000  N
  N18      1.0000 0.01020  0.12950  0.50410  Biso   1.000  N
