data_image0
_cell_length_a       7.752
_cell_length_b       10.445
_cell_length_c       7.42
_cell_angle_alpha    99.24
_cell_angle_beta     113.2
_cell_angle_gamma    109.87

_symmetry_space_group_name_H-M    "P 1"
_symmetry_int_tables_number       1

loop_
  _symmetry_equiv_pos_as_xyz
  'x, y, z'

loop_
  _atom_site_label
  _atom_site_occupancy
  _atom_site_fract_x
  _atom_site_fract_y
  _atom_site_fract_z
  _atom_site_thermal_displace_type
  _atom_site_B_iso_or_equiv
  _atom_site_type_symbol
  Ba1      1.0000 0.83854  0.52919  0.19652  Biso   1.000  Ba
  Ba2      1.0000 0.16146  0.47081  0.80348  Biso   1.000  Ba
  Cu1      1.0000 0.00000  0.00000  0.00000  Biso   1.000  Cu
  O1       1.0000 0.14980  0.13940  0.28380  Biso   1.000  O
  O2       1.0000 0.85020  0.86060  0.71620  Biso   1.000  O
  O3       1.0000 0.83310  0.79710  0.11250  Biso   1.000  O
  O4       1.0000 0.16690  0.20290  0.88750  Biso   1.000  O
  O5       1.0000 0.16030  0.67250  0.11010  Biso   1.000  O
  O6       1.0000 0.83970  0.32750  0.88990  Biso   1.000  O
  O7       1.0000 0.22080  0.93820  0.06240  Biso   1.000  O
  O8       1.0000 0.77920  0.06180  0.93760  Biso   1.000  O
  O9       1.0000 0.56820  0.25600  0.14120  Biso   1.000  O
  O10      1.0000 0.43180  0.74400  0.85880  Biso   1.000  O
  O11      1.0000 0.93020  0.20030  0.47910  Biso   1.000  O
  O12      1.0000 0.06980  0.79970  0.52090  Biso   1.000  O
  O13      1.0000 0.57970  0.88120  0.38450  Biso   1.000  O
  O14      1.0000 0.42030  0.11880  0.61550  Biso   1.000  O
  O15      1.0000 0.47500  0.53660  0.19620  Biso   1.000  O
  O16      1.0000 0.52500  0.46340  0.80380  Biso   1.000  O
  O17      1.0000 0.82020  0.50730  0.57480  Biso   1.000  O
  O18      1.0000 0.17980  0.49270  0.42520  Biso   1.000  O
  C1       1.0000 0.41760  0.01410  0.17660  Biso   1.000  C
  C2       1.0000 0.58240  0.98590  0.82340  Biso   1.000  C
  C3       1.0000 0.57210  0.15610  0.21280  Biso   1.000  C
  C4       1.0000 0.42790  0.84390  0.78720  Biso   1.000  C
  C5       1.0000 0.73710  0.13040  0.36450  Biso   1.000  C
  C6       1.0000 0.26290  0.86960  0.63550  Biso   1.000  C
  C7       1.0000 0.57910  0.98570  0.32260  Biso   1.000  C
  C8       1.0000 0.42090  0.01430  0.67740  Biso   1.000  C
  C9       1.0000 0.48530  0.51590  0.36190  Biso   1.000  C
  C10      1.0000 0.51470  0.48410  0.63810  Biso   1.000  C
  C11      1.0000 0.64560  0.50360  0.53660  Biso   1.000  C
  C12      1.0000 0.35440  0.49640  0.46340  Biso   1.000  C
