data_image0
_cell_length_a       17.667
_cell_length_b       13.669
_cell_length_c       25.067
_cell_angle_alpha    90
_cell_angle_beta     107.479
_cell_angle_gamma    90

_symmetry_space_group_name_H-M    "P 1"
_symmetry_int_tables_number       1

loop_
  _symmetry_equiv_pos_as_xyz
  'x, y, z'

loop_
  _atom_site_label
  _atom_site_occupancy
  _atom_site_fract_x
  _atom_site_fract_y
  _atom_site_fract_z
  _atom_site_thermal_displace_type
  _atom_site_B_iso_or_equiv
  _atom_site_type_symbol
  Mo1      1.0000 0.08136  0.49569  0.17231  Biso   1.000  Mo
  Mo2      1.0000 0.58136  0.99569  0.17231  Biso   1.000  Mo
  Mo3      1.0000 0.91864  0.49569  0.32769  Biso   1.000  Mo
  Mo4      1.0000 0.41864  0.99569  0.32769  Biso   1.000  Mo
  Mo5      1.0000 0.91864  0.50431  0.82769  Biso   1.000  Mo
  Mo6      1.0000 0.41864  0.00431  0.82769  Biso   1.000  Mo
  Mo7      1.0000 0.08136  0.50431  0.67231  Biso   1.000  Mo
  Mo8      1.0000 0.58136  0.00431  0.67231  Biso   1.000  Mo
  Mo9      1.0000 0.00000  0.35247  0.25000  Biso   1.000  Mo
  Mo10     1.0000 0.50000  0.85247  0.25000  Biso   1.000  Mo
  Mo11     1.0000 0.00000  0.64753  0.75000  Biso   1.000  Mo
  Mo12     1.0000 0.50000  0.14753  0.75000  Biso   1.000  Mo
  Mo13     1.0000 0.92940  0.73312  0.29104  Biso   1.000  Mo
  Mo14     1.0000 0.42940  0.23312  0.29104  Biso   1.000  Mo
  Mo15     1.0000 0.07060  0.73312  0.20896  Biso   1.000  Mo
  Mo16     1.0000 0.57060  0.23312  0.20896  Biso   1.000  Mo
  Mo17     1.0000 0.07060  0.26688  0.70896  Biso   1.000  Mo
  Mo18     1.0000 0.57060  0.76688  0.70896  Biso   1.000  Mo
  Mo19     1.0000 0.92940  0.26688  0.79104  Biso   1.000  Mo
  Mo20     1.0000 0.42940  0.76688  0.79104  Biso   1.000  Mo
  Cu1      1.0000 0.00000  0.50000  0.00000  Biso   1.000  Cu
  Cu2      1.0000 0.50000  0.00000  0.00000  Biso   1.000  Cu
  Cu3      1.0000 0.00000  0.50000  0.50000  Biso   1.000  Cu
  Cu4      1.0000 0.50000  0.00000  0.50000  Biso   1.000  Cu
  P1       1.0000 0.09439  0.56880  0.30899  Biso   1.000  P
  P2       1.0000 0.59439  0.06880  0.30899  Biso   1.000  P
  P3       1.0000 0.90561  0.56880  0.19101  Biso   1.000  P
  P4       1.0000 0.40561  0.06880  0.19101  Biso   1.000  P
  P5       1.0000 0.90561  0.43120  0.69101  Biso   1.000  P
  P6       1.0000 0.40561  0.93120  0.69101  Biso   1.000  P
  P7       1.0000 0.09439  0.43120  0.80899  Biso   1.000  P
  P8       1.0000 0.59439  0.93120  0.80899  Biso   1.000  P
  O1       1.0000 0.08980  0.48550  0.26720  Biso   1.000  O
  O2       1.0000 0.58980  0.98550  0.26720  Biso   1.000  O
  O3       1.0000 0.91020  0.48550  0.23280  Biso   1.000  O
  O4       1.0000 0.41020  0.98550  0.23280  Biso   1.000  O
  O5       1.0000 0.91020  0.51450  0.73280  Biso   1.000  O
  O6       1.0000 0.41020  0.01450  0.73280  Biso   1.000  O
  O7       1.0000 0.08980  0.51450  0.76720  Biso   1.000  O
  O8       1.0000 0.58980  0.01450  0.76720  Biso   1.000  O
  O9       1.0000 0.01100  0.39400  0.18020  Biso   1.000  O
  O10      1.0000 0.51100  0.89400  0.18020  Biso   1.000  O
  O11      1.0000 0.98900  0.39400  0.31980  Biso   1.000  O
  O12      1.0000 0.48900  0.89400  0.31980  Biso   1.000  O
  O13      1.0000 0.98900  0.60600  0.81980  Biso   1.000  O
  O14      1.0000 0.48900  0.10600  0.81980  Biso   1.000  O
  O15      1.0000 0.01100  0.60600  0.68020  Biso   1.000  O
  O16      1.0000 0.51100  0.10600  0.68020  Biso   1.000  O
  O17      1.0000 0.01170  0.59350  0.31390  Biso   1.000  O
  O18      1.0000 0.51170  0.09350  0.31390  Biso   1.000  O
  O19      1.0000 0.98830  0.59350  0.18610  Biso   1.000  O
  O20      1.0000 0.48830  0.09350  0.18610  Biso   1.000  O
  O21      1.0000 0.98830  0.40650  0.68610  Biso   1.000  O
  O22      1.0000 0.48830  0.90650  0.68610  Biso   1.000  O
  O23      1.0000 0.01170  0.40650  0.81390  Biso   1.000  O
  O24      1.0000 0.51170  0.90650  0.81390  Biso   1.000  O
  O25      1.0000 0.12810  0.62560  0.18860  Biso   1.000  O
  O26      1.0000 0.62810  0.12560  0.18860  Biso   1.000  O
  O27      1.0000 0.87190  0.62560  0.31140  Biso   1.000  O
  O28      1.0000 0.37190  0.12560  0.31140  Biso   1.000  O
  O29      1.0000 0.87190  0.37440  0.81140  Biso   1.000  O
  O30      1.0000 0.37190  0.87440  0.81140  Biso   1.000  O
  O31      1.0000 0.12810  0.37440  0.68860  Biso   1.000  O
  O32      1.0000 0.62810  0.87440  0.68860  Biso   1.000  O
  O33      1.0000 0.04590  0.50410  0.10030  Biso   1.000  O
  O34      1.0000 0.54590  0.00410  0.10030  Biso   1.000  O
  O35      1.0000 0.95410  0.50410  0.39970  Biso   1.000  O
  O36      1.0000 0.45410  0.00410  0.39970  Biso   1.000  O
  O37      1.0000 0.95410  0.49590  0.89970  Biso   1.000  O
  O38      1.0000 0.45410  0.99590  0.89970  Biso   1.000  O
  O39      1.0000 0.04590  0.49590  0.60030  Biso   1.000  O
  O40      1.0000 0.54590  0.99590  0.60030  Biso   1.000  O
  O41      1.0000 0.16840  0.43370  0.18420  Biso   1.000  O
  O42      1.0000 0.66840  0.93370  0.18420  Biso   1.000  O
  O43      1.0000 0.83160  0.43370  0.31580  Biso   1.000  O
  O44      1.0000 0.33160  0.93370  0.31580  Biso   1.000  O
  O45      1.0000 0.83160  0.56630  0.81580  Biso   1.000  O
  O46      1.0000 0.33160  0.06630  0.81580  Biso   1.000  O
  O47      1.0000 0.16840  0.56630  0.68420  Biso   1.000  O
  O48      1.0000 0.66840  0.06630  0.68420  Biso   1.000  O
  O49      1.0000 0.07890  0.27510  0.27350  Biso   1.000  O
  O50      1.0000 0.57890  0.77510  0.27350  Biso   1.000  O
  O51      1.0000 0.92110  0.27510  0.22650  Biso   1.000  O
  O52      1.0000 0.42110  0.77510  0.22650  Biso   1.000  O
  O53      1.0000 0.92110  0.72490  0.72650  Biso   1.000  O
  O54      1.0000 0.42110  0.22490  0.72650  Biso   1.000  O
  O55      1.0000 0.07890  0.72490  0.77350  Biso   1.000  O
  O56      1.0000 0.57890  0.22490  0.77350  Biso   1.000  O
  O57      1.0000 0.13030  0.65920  0.29240  Biso   1.000  O
  O58      1.0000 0.63030  0.15920  0.29240  Biso   1.000  O
  O59      1.0000 0.86970  0.65920  0.20760  Biso   1.000  O
  O60      1.0000 0.36970  0.15920  0.20760  Biso   1.000  O
  O61      1.0000 0.86970  0.34080  0.70760  Biso   1.000  O
  O62      1.0000 0.36970  0.84080  0.70760  Biso   1.000  O
  O63      1.0000 0.13030  0.34080  0.79240  Biso   1.000  O
  O64      1.0000 0.63030  0.84080  0.79240  Biso   1.000  O
  O65      1.0000 0.00000  0.77140  0.25000  Biso   1.000  O
  O66      1.0000 0.50000  0.27140  0.25000  Biso   1.000  O
  O67      1.0000 0.00000  0.22860  0.75000  Biso   1.000  O
  O68      1.0000 0.50000  0.72860  0.75000  Biso   1.000  O
  O69      1.0000 0.98080  0.77800  0.35510  Biso   1.000  O
  O70      1.0000 0.48080  0.27800  0.35510  Biso   1.000  O
  O71      1.0000 0.01920  0.77800  0.14490  Biso   1.000  O
  O72      1.0000 0.51920  0.27800  0.14490  Biso   1.000  O
  O73      1.0000 0.01920  0.22200  0.64490  Biso   1.000  O
  O74      1.0000 0.51920  0.72200  0.64490  Biso   1.000  O
  O75      1.0000 0.98080  0.22200  0.85510  Biso   1.000  O
  O76      1.0000 0.48080  0.72200  0.85510  Biso   1.000  O
  O77      1.0000 0.85430  0.81580  0.27030  Biso   1.000  O
  O78      1.0000 0.35430  0.31580  0.27030  Biso   1.000  O
  O79      1.0000 0.14570  0.81580  0.22970  Biso   1.000  O
  O80      1.0000 0.64570  0.31580  0.22970  Biso   1.000  O
  O81      1.0000 0.14570  0.18420  0.72970  Biso   1.000  O
  O82      1.0000 0.64570  0.68420  0.72970  Biso   1.000  O
  O83      1.0000 0.85430  0.18420  0.77030  Biso   1.000  O
  O84      1.0000 0.35430  0.68420  0.77030  Biso   1.000  O
  O85      1.0000 0.14300  0.53470  0.36880  Biso   1.000  O
  O86      1.0000 0.64300  0.03470  0.36880  Biso   1.000  O
  O87      1.0000 0.85700  0.53470  0.13120  Biso   1.000  O
  O88      1.0000 0.35700  0.03470  0.13120  Biso   1.000  O
  O89      1.0000 0.85700  0.46530  0.63120  Biso   1.000  O
  O90      1.0000 0.35700  0.96530  0.63120  Biso   1.000  O
  O91      1.0000 0.14300  0.46530  0.86880  Biso   1.000  O
  O92      1.0000 0.64300  0.96530  0.86880  Biso   1.000  O
  H1       1.0000 0.18880  0.52260  0.36950  Biso   1.000  H
  H2       1.0000 0.68880  0.02260  0.36950  Biso   1.000  H
  H3       1.0000 0.81120  0.52260  0.13050  Biso   1.000  H
  H4       1.0000 0.31120  0.02260  0.13050  Biso   1.000  H
  H5       1.0000 0.81120  0.47740  0.63050  Biso   1.000  H
  H6       1.0000 0.31120  0.97740  0.63050  Biso   1.000  H
  H7       1.0000 0.18880  0.47740  0.86950  Biso   1.000  H
  H8       1.0000 0.68880  0.97740  0.86950  Biso   1.000  H
  O93      1.0000 0.36810  0.61430  0.66090  Biso   1.000  O
  O94      1.0000 0.86810  0.11430  0.66090  Biso   1.000  O
  O95      1.0000 0.63190  0.61430  0.83910  Biso   1.000  O
  O96      1.0000 0.13190  0.11430  0.83910  Biso   1.000  O
  O97      1.0000 0.63190  0.38570  0.33910  Biso   1.000  O
  O98      1.0000 0.13190  0.88570  0.33910  Biso   1.000  O
  O99      1.0000 0.36810  0.38570  0.16090  Biso   1.000  O
  O100     1.0000 0.86810  0.88570  0.16090  Biso   1.000  O
  O101     1.0000 0.23840  0.31810  0.32850  Biso   1.000  O
  O102     1.0000 0.73840  0.81810  0.32850  Biso   1.000  O
  O103     1.0000 0.76160  0.31810  0.17150  Biso   1.000  O
  O104     1.0000 0.26160  0.81810  0.17150  Biso   1.000  O
  O105     1.0000 0.76160  0.68190  0.67150  Biso   1.000  O
  O106     1.0000 0.26160  0.18190  0.67150  Biso   1.000  O
  O107     1.0000 0.23840  0.68190  0.82850  Biso   1.000  O
  O108     1.0000 0.73840  0.18190  0.82850  Biso   1.000  O
  O109     1.0000 0.29180  0.49070  0.39780  Biso   1.000  O
  O110     1.0000 0.79180  0.99070  0.39780  Biso   1.000  O
  O111     1.0000 0.70820  0.49070  0.10220  Biso   1.000  O
  O112     1.0000 0.20820  0.99070  0.10220  Biso   1.000  O
  O113     1.0000 0.70820  0.50930  0.60220  Biso   1.000  O
  O114     1.0000 0.20820  0.00930  0.60220  Biso   1.000  O
  O115     1.0000 0.29180  0.50930  0.89780  Biso   1.000  O
  O116     1.0000 0.79180  0.00930  0.89780  Biso   1.000  O
  N1       1.0000 0.08220  0.60600  0.99910  Biso   1.000  N
  N2       1.0000 0.58220  0.10600  0.99910  Biso   1.000  N
  N3       1.0000 0.91780  0.60600  0.50090  Biso   1.000  N
  N4       1.0000 0.41780  0.10600  0.50090  Biso   1.000  N
  N5       1.0000 0.91780  0.39400  0.00090  Biso   1.000  N
  N6       1.0000 0.41780  0.89400  0.00090  Biso   1.000  N
  N7       1.0000 0.08220  0.39400  0.49910  Biso   1.000  N
  N8       1.0000 0.58220  0.89400  0.49910  Biso   1.000  N
  N9       1.0000 0.08680  0.39960  0.00280  Biso   1.000  N
  N10      1.0000 0.58680  0.89960  0.00280  Biso   1.000  N
  N11      1.0000 0.91320  0.39960  0.49720  Biso   1.000  N
  N12      1.0000 0.41320  0.89960  0.49720  Biso   1.000  N
  N13      1.0000 0.91320  0.60040  0.99720  Biso   1.000  N
  N14      1.0000 0.41320  0.10040  0.99720  Biso   1.000  N
  N15      1.0000 0.08680  0.60040  0.50280  Biso   1.000  N
  N16      1.0000 0.58680  0.10040  0.50280  Biso   1.000  N
  N17      1.0000 0.38690  0.43510  0.50180  Biso   1.000  N
  N18      1.0000 0.88690  0.93510  0.50180  Biso   1.000  N
  N19      1.0000 0.61310  0.43510  0.99820  Biso   1.000  N
  N20      1.0000 0.11310  0.93510  0.99820  Biso   1.000  N
  N21      1.0000 0.61310  0.56490  0.49820  Biso   1.000  N
  N22      1.0000 0.11310  0.06490  0.49820  Biso   1.000  N
  N23      1.0000 0.38690  0.56490  0.00180  Biso   1.000  N
  N24      1.0000 0.88690  0.06490  0.00180  Biso   1.000  N
  N25      1.0000 0.71980  0.36930  0.73410  Biso   1.000  N
  N26      1.0000 0.21980  0.86930  0.73410  Biso   1.000  N
  N27      1.0000 0.28020  0.36930  0.76590  Biso   1.000  N
  N28      1.0000 0.78020  0.86930  0.76590  Biso   1.000  N
  N29      1.0000 0.28020  0.63070  0.26590  Biso   1.000  N
  N30      1.0000 0.78020  0.13070  0.26590  Biso   1.000  N
  N31      1.0000 0.71980  0.63070  0.23410  Biso   1.000  N
  N32      1.0000 0.21980  0.13070  0.23410  Biso   1.000  N
  C1       1.0000 0.10520  0.61790  0.95370  Biso   1.000  C
  C2       1.0000 0.60520  0.11790  0.95370  Biso   1.000  C
  C3       1.0000 0.89480  0.61790  0.54630  Biso   1.000  C
  C4       1.0000 0.39480  0.11790  0.54630  Biso   1.000  C
  C5       1.0000 0.89480  0.38210  0.04630  Biso   1.000  C
  C6       1.0000 0.39480  0.88210  0.04630  Biso   1.000  C
  C7       1.0000 0.10520  0.38210  0.45370  Biso   1.000  C
  C8       1.0000 0.60520  0.88210  0.45370  Biso   1.000  C
  H9       1.0000 0.07620  0.58690  0.92090  Biso   1.000  H
  H10      1.0000 0.57620  0.08690  0.92090  Biso   1.000  H
  H11      1.0000 0.92380  0.58690  0.57910  Biso   1.000  H
  H12      1.0000 0.42380  0.08690  0.57910  Biso   1.000  H
  H13      1.0000 0.92380  0.41310  0.07910  Biso   1.000  H
  H14      1.0000 0.42380  0.91310  0.07910  Biso   1.000  H
  H15      1.0000 0.07620  0.41310  0.42090  Biso   1.000  H
  H16      1.0000 0.57620  0.91310  0.42090  Biso   1.000  H
  C9       1.0000 0.16810  0.67250  0.95260  Biso   1.000  C
  C10      1.0000 0.66810  0.17250  0.95260  Biso   1.000  C
  C11      1.0000 0.83190  0.67250  0.54740  Biso   1.000  C
  C12      1.0000 0.33190  0.17250  0.54740  Biso   1.000  C
  C13      1.0000 0.83190  0.32750  0.04740  Biso   1.000  C
  C14      1.0000 0.33190  0.82750  0.04740  Biso   1.000  C
  C15      1.0000 0.16810  0.32750  0.45260  Biso   1.000  C
  C16      1.0000 0.66810  0.82750  0.45260  Biso   1.000  C
  H17      1.0000 0.18050  0.67780  0.91920  Biso   1.000  H
  H18      1.0000 0.68050  0.17780  0.91920  Biso   1.000  H
  H19      1.0000 0.81950  0.67780  0.58080  Biso   1.000  H
  H20      1.0000 0.31950  0.17780  0.58080  Biso   1.000  H
  H21      1.0000 0.81950  0.32220  0.08080  Biso   1.000  H
  H22      1.0000 0.31950  0.82220  0.08080  Biso   1.000  H
  H23      1.0000 0.18050  0.32220  0.41920  Biso   1.000  H
  H24      1.0000 0.68050  0.82220  0.41920  Biso   1.000  H
  C17      1.0000 0.21520  0.72120  0.99940  Biso   1.000  C
  C18      1.0000 0.71520  0.22120  0.99940  Biso   1.000  C
  C19      1.0000 0.78480  0.72120  0.50060  Biso   1.000  C
  C20      1.0000 0.28480  0.22120  0.50060  Biso   1.000  C
  C21      1.0000 0.78480  0.27880  0.00060  Biso   1.000  C
  C22      1.0000 0.28480  0.77880  0.00060  Biso   1.000  C
  C23      1.0000 0.21520  0.27880  0.49940  Biso   1.000  C
  C24      1.0000 0.71520  0.77880  0.49940  Biso   1.000  C
  C25      1.0000 0.18890  0.70970  0.04630  Biso   1.000  C
  C26      1.0000 0.68890  0.20970  0.04630  Biso   1.000  C
  C27      1.0000 0.81110  0.70970  0.45370  Biso   1.000  C
  C28      1.0000 0.31110  0.20970  0.45370  Biso   1.000  C
  C29      1.0000 0.81110  0.29030  0.95370  Biso   1.000  C
  C30      1.0000 0.31110  0.79030  0.95370  Biso   1.000  C
  C31      1.0000 0.18890  0.29030  0.54630  Biso   1.000  C
  C32      1.0000 0.68890  0.79030  0.54630  Biso   1.000  C
  H25      1.0000 0.21650  0.74050  0.07950  Biso   1.000  H
  H26      1.0000 0.71650  0.24050  0.07950  Biso   1.000  H
  H27      1.0000 0.78350  0.74050  0.42050  Biso   1.000  H
  H28      1.0000 0.28350  0.24050  0.42050  Biso   1.000  H
  H29      1.0000 0.78350  0.25950  0.92050  Biso   1.000  H
  H30      1.0000 0.28350  0.75950  0.92050  Biso   1.000  H
  H31      1.0000 0.21650  0.25950  0.57950  Biso   1.000  H
  H32      1.0000 0.71650  0.75950  0.57950  Biso   1.000  H
  C33      1.0000 0.12440  0.65510  0.04470  Biso   1.000  C
  C34      1.0000 0.62440  0.15510  0.04470  Biso   1.000  C
  C35      1.0000 0.87560  0.65510  0.45530  Biso   1.000  C
  C36      1.0000 0.37560  0.15510  0.45530  Biso   1.000  C
  C37      1.0000 0.87560  0.34490  0.95530  Biso   1.000  C
  C38      1.0000 0.37560  0.84490  0.95530  Biso   1.000  C
  C39      1.0000 0.12440  0.34490  0.54470  Biso   1.000  C
  C40      1.0000 0.62440  0.84490  0.54470  Biso   1.000  C
  H33      1.0000 0.10860  0.65140  0.07690  Biso   1.000  H
  H34      1.0000 0.60860  0.15140  0.07690  Biso   1.000  H
  H35      1.0000 0.89140  0.65140  0.42310  Biso   1.000  H
  H36      1.0000 0.39140  0.15140  0.42310  Biso   1.000  H
  H37      1.0000 0.89140  0.34860  0.92310  Biso   1.000  H
  H38      1.0000 0.39140  0.84860  0.92310  Biso   1.000  H
  H39      1.0000 0.10860  0.34860  0.57690  Biso   1.000  H
  H40      1.0000 0.60860  0.84860  0.57690  Biso   1.000  H
  C41      1.0000 0.08530  0.34480  0.95840  Biso   1.000  C
  C42      1.0000 0.58530  0.84480  0.95840  Biso   1.000  C
  C43      1.0000 0.91470  0.34480  0.54160  Biso   1.000  C
  C44      1.0000 0.41470  0.84480  0.54160  Biso   1.000  C
  C45      1.0000 0.91470  0.65520  0.04160  Biso   1.000  C
  C46      1.0000 0.41470  0.15520  0.04160  Biso   1.000  C
  C47      1.0000 0.08530  0.65520  0.45840  Biso   1.000  C
  C48      1.0000 0.58530  0.15520  0.45840  Biso   1.000  C
  H41      1.0000 0.04070  0.34790  0.92720  Biso   1.000  H
  H42      1.0000 0.54070  0.84790  0.92720  Biso   1.000  H
  H43      1.0000 0.95930  0.34790  0.57280  Biso   1.000  H
  H44      1.0000 0.45930  0.84790  0.57280  Biso   1.000  H
  H45      1.0000 0.95930  0.65210  0.07280  Biso   1.000  H
  H46      1.0000 0.45930  0.15210  0.07280  Biso   1.000  H
  H47      1.0000 0.04070  0.65210  0.42720  Biso   1.000  H
  H48      1.0000 0.54070  0.15210  0.42720  Biso   1.000  H
  C49      1.0000 0.14620  0.28430  0.95700  Biso   1.000  C
  C50      1.0000 0.64620  0.78430  0.95700  Biso   1.000  C
  C51      1.0000 0.85380  0.28430  0.54300  Biso   1.000  C
  C52      1.0000 0.35380  0.78430  0.54300  Biso   1.000  C
  C53      1.0000 0.85380  0.71570  0.04300  Biso   1.000  C
  C54      1.0000 0.35380  0.21570  0.04300  Biso   1.000  C
  C55      1.0000 0.14620  0.71570  0.45700  Biso   1.000  C
  C56      1.0000 0.64620  0.21570  0.45700  Biso   1.000  C
  H49      1.0000 0.14040  0.24520  0.92560  Biso   1.000  H
  H50      1.0000 0.64040  0.74520  0.92560  Biso   1.000  H
  H51      1.0000 0.85960  0.24520  0.57440  Biso   1.000  H
  H52      1.0000 0.35960  0.74520  0.57440  Biso   1.000  H
  H53      1.0000 0.85960  0.75480  0.07440  Biso   1.000  H
  H54      1.0000 0.35960  0.25480  0.07440  Biso   1.000  H
  H55      1.0000 0.14040  0.75480  0.42560  Biso   1.000  H
  H56      1.0000 0.64040  0.25480  0.42560  Biso   1.000  H
  C57      1.0000 0.21580  0.27920  0.00010  Biso   1.000  C
  C58      1.0000 0.71580  0.77920  0.00010  Biso   1.000  C
  C59      1.0000 0.78420  0.27920  0.49990  Biso   1.000  C
  C60      1.0000 0.28420  0.77920  0.49990  Biso   1.000  C
  C61      1.0000 0.78420  0.72080  0.99990  Biso   1.000  C
  C62      1.0000 0.28420  0.22080  0.99990  Biso   1.000  C
  C63      1.0000 0.21580  0.72080  0.50010  Biso   1.000  C
  C64      1.0000 0.71580  0.22080  0.50010  Biso   1.000  C
  C65      1.0000 0.21650  0.33570  0.04690  Biso   1.000  C
  C66      1.0000 0.71650  0.83570  0.04690  Biso   1.000  C
  C67      1.0000 0.78350  0.33570  0.45310  Biso   1.000  C
  C68      1.0000 0.28350  0.83570  0.45310  Biso   1.000  C
  C69      1.0000 0.78350  0.66430  0.95310  Biso   1.000  C
  C70      1.0000 0.28350  0.16430  0.95310  Biso   1.000  C
  C71      1.0000 0.21650  0.66430  0.54690  Biso   1.000  C
  C72      1.0000 0.71650  0.16430  0.54690  Biso   1.000  C
  H57      1.0000 0.26040  0.33330  0.07860  Biso   1.000  H
  H58      1.0000 0.76040  0.83330  0.07860  Biso   1.000  H
  H59      1.0000 0.73960  0.33330  0.42140  Biso   1.000  H
  H60      1.0000 0.23960  0.83330  0.42140  Biso   1.000  H
  H61      1.0000 0.73960  0.66670  0.92140  Biso   1.000  H
  H62      1.0000 0.23960  0.16670  0.92140  Biso   1.000  H
  H63      1.0000 0.26040  0.66670  0.57860  Biso   1.000  H
  H64      1.0000 0.76040  0.16670  0.57860  Biso   1.000  H
  C73      1.0000 0.15240  0.39550  0.04660  Biso   1.000  C
  C74      1.0000 0.65240  0.89550  0.04660  Biso   1.000  C
  C75      1.0000 0.84760  0.39550  0.45340  Biso   1.000  C
  C76      1.0000 0.34760  0.89550  0.45340  Biso   1.000  C
  C77      1.0000 0.84760  0.60450  0.95340  Biso   1.000  C
  C78      1.0000 0.34760  0.10450  0.95340  Biso   1.000  C
  C79      1.0000 0.15240  0.60450  0.54660  Biso   1.000  C
  C80      1.0000 0.65240  0.10450  0.54660  Biso   1.000  C
  H65      1.0000 0.15530  0.43370  0.07780  Biso   1.000  H
  H66      1.0000 0.65530  0.93370  0.07780  Biso   1.000  H
  H67      1.0000 0.84470  0.43370  0.42220  Biso   1.000  H
  H68      1.0000 0.34470  0.93370  0.42220  Biso   1.000  H
  H69      1.0000 0.84470  0.56630  0.92220  Biso   1.000  H
  H70      1.0000 0.34470  0.06630  0.92220  Biso   1.000  H
  H71      1.0000 0.15530  0.56630  0.57780  Biso   1.000  H
  H72      1.0000 0.65530  0.06630  0.57780  Biso   1.000  H
  C81      1.0000 0.38240  0.47060  0.55150  Biso   1.000  C
  C82      1.0000 0.88240  0.97060  0.55150  Biso   1.000  C
  C83      1.0000 0.61760  0.47060  0.94850  Biso   1.000  C
  C84      1.0000 0.11760  0.97060  0.94850  Biso   1.000  C
  C85      1.0000 0.61760  0.52940  0.44850  Biso   1.000  C
  C86      1.0000 0.11760  0.02940  0.44850  Biso   1.000  C
  C87      1.0000 0.38240  0.52940  0.05150  Biso   1.000  C
  C88      1.0000 0.88240  0.02940  0.05150  Biso   1.000  C
  H73      1.0000 0.33850  0.50400  0.55530  Biso   1.000  H
  H74      1.0000 0.83850  0.00400  0.55530  Biso   1.000  H
  H75      1.0000 0.66150  0.50400  0.94470  Biso   1.000  H
  H76      1.0000 0.16150  0.00400  0.94470  Biso   1.000  H
  H77      1.0000 0.66150  0.49600  0.44470  Biso   1.000  H
  H78      1.0000 0.16150  0.99600  0.44470  Biso   1.000  H
  H79      1.0000 0.33850  0.49600  0.05530  Biso   1.000  H
  H80      1.0000 0.83850  0.99600  0.05530  Biso   1.000  H
  C89      1.0000 0.44740  0.45280  0.59420  Biso   1.000  C
  C90      1.0000 0.94740  0.95280  0.59420  Biso   1.000  C
  C91      1.0000 0.55260  0.45280  0.90580  Biso   1.000  C
  C92      1.0000 0.05260  0.95280  0.90580  Biso   1.000  C
  C93      1.0000 0.55260  0.54720  0.40580  Biso   1.000  C
  C94      1.0000 0.05260  0.04720  0.40580  Biso   1.000  C
  C95      1.0000 0.44740  0.54720  0.09420  Biso   1.000  C
  C96      1.0000 0.94740  0.04720  0.09420  Biso   1.000  C
  H81      1.0000 0.44620  0.47680  0.62860  Biso   1.000  H
  H82      1.0000 0.94620  0.97680  0.62860  Biso   1.000  H
  H83      1.0000 0.55380  0.47680  0.87140  Biso   1.000  H
  H84      1.0000 0.05380  0.97680  0.87140  Biso   1.000  H
  H85      1.0000 0.55380  0.52320  0.37140  Biso   1.000  H
  H86      1.0000 0.05380  0.02320  0.37140  Biso   1.000  H
  H87      1.0000 0.44620  0.52320  0.12860  Biso   1.000  H
  H88      1.0000 0.94620  0.02320  0.12860  Biso   1.000  H
  C97      1.0000 0.51490  0.40500  0.59490  Biso   1.000  C
  C98      1.0000 0.01490  0.90500  0.59490  Biso   1.000  C
  C99      1.0000 0.48510  0.40500  0.90510  Biso   1.000  C
  C100     1.0000 0.98510  0.90500  0.90510  Biso   1.000  C
  C101     1.0000 0.48510  0.59500  0.40510  Biso   1.000  C
  C102     1.0000 0.98510  0.09500  0.40510  Biso   1.000  C
  C103     1.0000 0.51490  0.59500  0.09490  Biso   1.000  C
  C104     1.0000 0.01490  0.09500  0.09490  Biso   1.000  C
  C105     1.0000 0.51420  0.37060  0.54430  Biso   1.000  C
  C106     1.0000 0.01420  0.87060  0.54430  Biso   1.000  C
  C107     1.0000 0.48580  0.37060  0.95570  Biso   1.000  C
  C108     1.0000 0.98580  0.87060  0.95570  Biso   1.000  C
  C109     1.0000 0.48580  0.62940  0.45570  Biso   1.000  C
  C110     1.0000 0.98580  0.12940  0.45570  Biso   1.000  C
  C111     1.0000 0.51420  0.62940  0.04430  Biso   1.000  C
  C112     1.0000 0.01420  0.12940  0.04430  Biso   1.000  C
  H89      1.0000 0.55670  0.33400  0.54040  Biso   1.000  H
  H90      1.0000 0.05670  0.83400  0.54040  Biso   1.000  H
  H91      1.0000 0.44330  0.33400  0.95960  Biso   1.000  H
  H92      1.0000 0.94330  0.83400  0.95960  Biso   1.000  H
  H93      1.0000 0.44330  0.66600  0.45960  Biso   1.000  H
  H94      1.0000 0.94330  0.16600  0.45960  Biso   1.000  H
  H95      1.0000 0.55670  0.66600  0.04040  Biso   1.000  H
  H96      1.0000 0.05670  0.16600  0.04040  Biso   1.000  H
  C113     1.0000 0.45170  0.38970  0.49950  Biso   1.000  C
  C114     1.0000 0.95170  0.88970  0.49950  Biso   1.000  C
  C115     1.0000 0.54830  0.38970  0.00050  Biso   1.000  C
  C116     1.0000 0.04830  0.88970  0.00050  Biso   1.000  C
  C117     1.0000 0.54830  0.61030  0.50050  Biso   1.000  C
  C118     1.0000 0.04830  0.11030  0.50050  Biso   1.000  C
  C119     1.0000 0.45170  0.61030  0.99950  Biso   1.000  C
  C120     1.0000 0.95170  0.11030  0.99950  Biso   1.000  C
  H97      1.0000 0.45420  0.36960  0.46460  Biso   1.000  H
  H98      1.0000 0.95420  0.86960  0.46460  Biso   1.000  H
  H99      1.0000 0.54580  0.36960  0.03540  Biso   1.000  H
  H100     1.0000 0.04580  0.86960  0.03540  Biso   1.000  H
  H101     1.0000 0.54580  0.63040  0.53540  Biso   1.000  H
  H102     1.0000 0.04580  0.13040  0.53540  Biso   1.000  H
  H103     1.0000 0.45420  0.63040  0.96460  Biso   1.000  H
  H104     1.0000 0.95420  0.13040  0.96460  Biso   1.000  H
  C121     1.0000 0.67950  0.44310  0.73120  Biso   1.000  C
  C122     1.0000 0.17950  0.94310  0.73120  Biso   1.000  C
  C123     1.0000 0.32050  0.44310  0.76880  Biso   1.000  C
  C124     1.0000 0.82050  0.94310  0.76880  Biso   1.000  C
  C125     1.0000 0.32050  0.55690  0.26880  Biso   1.000  C
  C126     1.0000 0.82050  0.05690  0.26880  Biso   1.000  C
  C127     1.0000 0.67950  0.55690  0.23120  Biso   1.000  C
  C128     1.0000 0.17950  0.05690  0.23120  Biso   1.000  C
  H105     1.0000 0.69840  0.49240  0.75740  Biso   1.000  H
  H106     1.0000 0.19840  0.99240  0.75740  Biso   1.000  H
  H107     1.0000 0.30160  0.49240  0.74260  Biso   1.000  H
  H108     1.0000 0.80160  0.99240  0.74260  Biso   1.000  H
  H109     1.0000 0.30160  0.50760  0.24260  Biso   1.000  H
  H110     1.0000 0.80160  0.00760  0.24260  Biso   1.000  H
  H111     1.0000 0.69840  0.50760  0.25740  Biso   1.000  H
  H112     1.0000 0.19840  0.00760  0.25740  Biso   1.000  H
  C129     1.0000 0.60770  0.45650  0.69120  Biso   1.000  C
  C130     1.0000 0.10770  0.95650  0.69120  Biso   1.000  C
  C131     1.0000 0.39230  0.45650  0.80880  Biso   1.000  C
  C132     1.0000 0.89230  0.95650  0.80880  Biso   1.000  C
  C133     1.0000 0.39230  0.54350  0.30880  Biso   1.000  C
  C134     1.0000 0.89230  0.04350  0.30880  Biso   1.000  C
  C135     1.0000 0.60770  0.54350  0.19120  Biso   1.000  C
  C136     1.0000 0.10770  0.04350  0.19120  Biso   1.000  C
  H113     1.0000 0.57730  0.51230  0.69050  Biso   1.000  H
  H114     1.0000 0.07730  0.01230  0.69050  Biso   1.000  H
  H115     1.0000 0.42270  0.51230  0.80950  Biso   1.000  H
  H116     1.0000 0.92270  0.01230  0.80950  Biso   1.000  H
  H117     1.0000 0.42270  0.48770  0.30950  Biso   1.000  H
  H118     1.0000 0.92270  0.98770  0.30950  Biso   1.000  H
  H119     1.0000 0.57730  0.48770  0.19050  Biso   1.000  H
  H120     1.0000 0.07730  0.98770  0.19050  Biso   1.000  H
  C137     1.0000 0.58270  0.38210  0.65170  Biso   1.000  C
  C138     1.0000 0.08270  0.88210  0.65170  Biso   1.000  C
  C139     1.0000 0.41730  0.38210  0.84830  Biso   1.000  C
  C140     1.0000 0.91730  0.88210  0.84830  Biso   1.000  C
  C141     1.0000 0.41730  0.61790  0.34830  Biso   1.000  C
  C142     1.0000 0.91730  0.11790  0.34830  Biso   1.000  C
  C143     1.0000 0.58270  0.61790  0.15170  Biso   1.000  C
  C144     1.0000 0.08270  0.11790  0.15170  Biso   1.000  C
  C145     1.0000 0.62250  0.30440  0.66020  Biso   1.000  C
  C146     1.0000 0.12250  0.80440  0.66020  Biso   1.000  C
  C147     1.0000 0.37750  0.30440  0.83980  Biso   1.000  C
  C148     1.0000 0.87750  0.80440  0.83980  Biso   1.000  C
  C149     1.0000 0.37750  0.69560  0.33980  Biso   1.000  C
  C150     1.0000 0.87750  0.19560  0.33980  Biso   1.000  C
  C151     1.0000 0.62250  0.69560  0.16020  Biso   1.000  C
  C152     1.0000 0.12250  0.19560  0.16020  Biso   1.000  C
  H121     1.0000 0.60380  0.24800  0.63980  Biso   1.000  H
  H122     1.0000 0.10380  0.74800  0.63980  Biso   1.000  H
  H123     1.0000 0.39620  0.24800  0.86020  Biso   1.000  H
  H124     1.0000 0.89620  0.74800  0.86020  Biso   1.000  H
  H125     1.0000 0.39620  0.75200  0.36020  Biso   1.000  H
  H126     1.0000 0.89620  0.25200  0.36020  Biso   1.000  H
  H127     1.0000 0.60380  0.75200  0.13980  Biso   1.000  H
  H128     1.0000 0.10380  0.25200  0.13980  Biso   1.000  H
  C153     1.0000 0.69230  0.30600  0.69950  Biso   1.000  C
  C154     1.0000 0.19230  0.80600  0.69950  Biso   1.000  C
  C155     1.0000 0.30770  0.30600  0.80050  Biso   1.000  C
  C156     1.0000 0.80770  0.80600  0.80050  Biso   1.000  C
  C157     1.0000 0.30770  0.69400  0.30050  Biso   1.000  C
  C158     1.0000 0.80770  0.19400  0.30050  Biso   1.000  C
  C159     1.0000 0.69230  0.69400  0.19950  Biso   1.000  C
  C160     1.0000 0.19230  0.19400  0.19950  Biso   1.000  C
  H129     1.0000 0.72450  0.25160  0.70090  Biso   1.000  H
  H130     1.0000 0.22450  0.75160  0.70090  Biso   1.000  H
  H131     1.0000 0.27550  0.25160  0.79910  Biso   1.000  H
  H132     1.0000 0.77550  0.75160  0.79910  Biso   1.000  H
  H133     1.0000 0.27550  0.74840  0.29910  Biso   1.000  H
  H134     1.0000 0.77550  0.24840  0.29910  Biso   1.000  H
  H135     1.0000 0.72450  0.74840  0.20090  Biso   1.000  H
  H136     1.0000 0.22450  0.24840  0.20090  Biso   1.000  H
