data_image0
_cell_length_a       11.195
_cell_length_b       15.968
_cell_length_c       17.457
_cell_angle_alpha    93.317
_cell_angle_beta     104.063
_cell_angle_gamma    108.18

_symmetry_space_group_name_H-M    "P 1"
_symmetry_int_tables_number       1

loop_
  _symmetry_equiv_pos_as_xyz
  'x, y, z'

loop_
  _atom_site_label
  _atom_site_occupancy
  _atom_site_fract_x
  _atom_site_fract_y
  _atom_site_fract_z
  _atom_site_thermal_displace_type
  _atom_site_B_iso_or_equiv
  _atom_site_type_symbol
  Cu1      1.0000 0.74592  0.75809  0.48582  Biso   1.000  Cu
  Cu2      1.0000 0.25408  0.24191  0.51418  Biso   1.000  Cu
  Cu3      1.0000 0.78172  0.27471  0.02843  Biso   1.000  Cu
  Cu4      1.0000 0.21828  0.72529  0.97157  Biso   1.000  Cu
  S1       1.0000 0.77270  0.06578  0.61023  Biso   1.000  S
  S2       1.0000 0.22730  0.93422  0.38977  Biso   1.000  S
  S3       1.0000 0.72506  0.43359  0.43372  Biso   1.000  S
  S4       1.0000 0.27494  0.56641  0.56628  Biso   1.000  S
  S5       1.0000 0.33196  0.19816  0.06840  Biso   1.000  S
  S6       1.0000 0.66804  0.80184  0.93160  Biso   1.000  S
  S7       1.0000 0.10627  0.36065  0.87137  Biso   1.000  S
  S8       1.0000 0.89373  0.63935  0.12863  Biso   1.000  S
  N1       1.0000 0.94080  0.78270  0.53840  Biso   1.000  N
  N2       1.0000 0.05920  0.21730  0.46160  Biso   1.000  N
  N3       1.0000 0.69460  0.17240  0.93490  Biso   1.000  N
  N4       1.0000 0.30540  0.82760  0.06510  Biso   1.000  N
  N5       1.0000 0.70340  0.70550  0.58420  Biso   1.000  N
  N6       1.0000 0.29660  0.29450  0.41580  Biso   1.000  N
  N7       1.0000 0.68070  0.35140  0.97320  Biso   1.000  N
  N8       1.0000 0.31930  0.64860  0.02680  Biso   1.000  N
  N9       1.0000 0.55120  0.72850  0.43270  Biso   1.000  N
  N10      1.0000 0.44880  0.27150  0.56730  Biso   1.000  N
  N11      1.0000 0.86770  0.36640  0.13100  Biso   1.000  N
  N12      1.0000 0.13230  0.63360  0.86900  Biso   1.000  N
  N13      1.0000 0.87380  0.19360  0.08800  Biso   1.000  N
  N14      1.0000 0.12620  0.80640  0.91200  Biso   1.000  N
  N15      1.0000 0.78400  0.80620  0.38440  Biso   1.000  N
  N16      1.0000 0.21600  0.19380  0.61560  Biso   1.000  N
  N17      1.0000 0.76550  0.90410  0.53950  Biso   1.000  N
  N18      1.0000 0.23450  0.09590  0.46050  Biso   1.000  N
  N19      1.0000 0.73110  0.60800  0.42110  Biso   1.000  N
  N20      1.0000 0.26890  0.39200  0.57890  Biso   1.000  N
  N21      1.0000 0.59080  0.20910  0.08460  Biso   1.000  N
  N22      1.0000 0.40920  0.79090  0.91540  Biso   1.000  N
  N23      1.0000 0.95460  0.33820  0.97710  Biso   1.000  N
  N24      1.0000 0.04540  0.66180  0.02290  Biso   1.000  N
  C1       1.0000 0.02920  0.86370  0.54340  Biso   1.000  C
  C2       1.0000 0.97080  0.13630  0.45660  Biso   1.000  C
  H1       1.0000 0.00020  0.90840  0.52260  Biso   1.000  H
  H2       1.0000 0.99980  0.09160  0.47740  Biso   1.000  H
  C3       1.0000 0.16100  0.88310  0.57800  Biso   1.000  C
  C4       1.0000 0.83900  0.11690  0.42200  Biso   1.000  C
  H3       1.0000 0.21860  0.94010  0.57980  Biso   1.000  H
  H4       1.0000 0.78140  0.05990  0.42020  Biso   1.000  H
  C5       1.0000 0.20850  0.81890  0.60990  Biso   1.000  C
  C6       1.0000 0.79150  0.18110  0.39010  Biso   1.000  C
  C7       1.0000 0.11660  0.73580  0.60480  Biso   1.000  C
  C8       1.0000 0.88340  0.26420  0.39520  Biso   1.000  C
  H5       1.0000 0.14250  0.69000  0.62580  Biso   1.000  H
  H6       1.0000 0.85750  0.31000  0.37420  Biso   1.000  H
  C9       1.0000 0.98620  0.72110  0.56860  Biso   1.000  C
  C10      1.0000 0.01380  0.27890  0.43140  Biso   1.000  C
  H7       1.0000 0.92680  0.66440  0.56520  Biso   1.000  H
  H8       1.0000 0.07320  0.33560  0.43480  Biso   1.000  H
  C11      1.0000 0.35150  0.83960  0.64850  Biso   1.000  C
  C12      1.0000 0.64850  0.16040  0.35150  Biso   1.000  C
  H9       1.0000 0.39810  0.85220  0.60800  Biso   1.000  H
  H10      1.0000 0.60190  0.14780  0.39200  Biso   1.000  H
  H11      1.0000 0.36470  0.78740  0.66980  Biso   1.000  H
  H12      1.0000 0.63530  0.21260  0.33020  Biso   1.000  H
  C13      1.0000 0.40990  0.91840  0.71540  Biso   1.000  C
  C14      1.0000 0.59010  0.08160  0.28460  Biso   1.000  C
  H13      1.0000 0.39160  0.96950  0.69480  Biso   1.000  H
  H14      1.0000 0.60840  0.03050  0.30520  Biso   1.000  H
  H15      1.0000 0.36670  0.90420  0.75720  Biso   1.000  H
  H16      1.0000 0.63330  0.09580  0.24280  Biso   1.000  H
  C15      1.0000 0.55550  0.94380  0.75160  Biso   1.000  C
  C16      1.0000 0.44450  0.05620  0.24840  Biso   1.000  C
  H17      1.0000 0.57490  0.89410  0.77480  Biso   1.000  H
  H18      1.0000 0.42510  0.10590  0.22520  Biso   1.000  H
  H19      1.0000 0.59990  0.95700  0.71020  Biso   1.000  H
  H20      1.0000 0.40010  0.04300  0.28980  Biso   1.000  H
  C17      1.0000 0.60460  0.02400  0.81510  Biso   1.000  C
  C18      1.0000 0.39540  0.97600  0.18490  Biso   1.000  C
  C19      1.0000 0.58550  0.01690  0.89010  Biso   1.000  C
  C20      1.0000 0.41450  0.98310  0.10990  Biso   1.000  C
  H21      1.0000 0.54210  0.96160  0.90220  Biso   1.000  H
  H22      1.0000 0.45790  0.03840  0.09780  Biso   1.000  H
  C21      1.0000 0.63020  0.09100  0.94650  Biso   1.000  C
  C22      1.0000 0.36980  0.90900  0.05350  Biso   1.000  C
  H23      1.0000 0.61460  0.08390  0.99610  Biso   1.000  H
  H24      1.0000 0.38540  0.91610  0.00390  Biso   1.000  H
  C23      1.0000 0.71270  0.18030  0.86170  Biso   1.000  C
  C24      1.0000 0.28730  0.81970  0.13830  Biso   1.000  C
  H25      1.0000 0.75580  0.23640  0.85090  Biso   1.000  H
  H26      1.0000 0.24420  0.76360  0.14910  Biso   1.000  H
  C25      1.0000 0.66980  0.10840  0.80250  Biso   1.000  C
  C26      1.0000 0.33020  0.89160  0.19750  Biso   1.000  C
  H27      1.0000 0.68520  0.11700  0.75300  Biso   1.000  H
  H28      1.0000 0.31480  0.88300  0.24700  Biso   1.000  H
  C27      1.0000 0.63520  0.61930  0.57950  Biso   1.000  C
  C28      1.0000 0.36480  0.38070  0.42050  Biso   1.000  C
  H29      1.0000 0.60280  0.58380  0.52990  Biso   1.000  H
  H30      1.0000 0.39720  0.41620  0.47010  Biso   1.000  H
  C29      1.0000 0.61100  0.58070  0.64590  Biso   1.000  C
  C30      1.0000 0.38900  0.41930  0.35410  Biso   1.000  C
  H31      1.0000 0.56440  0.52020  0.64020  Biso   1.000  H
  H32      1.0000 0.43560  0.47980  0.35980  Biso   1.000  H
  C31      1.0000 0.65590  0.63190  0.72040  Biso   1.000  C
  C32      1.0000 0.34410  0.36810  0.27960  Biso   1.000  C
  C33      1.0000 0.72250  0.72090  0.72370  Biso   1.000  C
  C34      1.0000 0.27750  0.27910  0.27630  Biso   1.000  C
  H33      1.0000 0.75280  0.75840  0.77220  Biso   1.000  H
  H34      1.0000 0.24720  0.24160  0.22780  Biso   1.000  H
  C35      1.0000 0.74470  0.75490  0.65570  Biso   1.000  C
  C36      1.0000 0.25530  0.24510  0.34430  Biso   1.000  C
  H35      1.0000 0.79080  0.81540  0.66000  Biso   1.000  H
  H36      1.0000 0.20920  0.18460  0.34000  Biso   1.000  H
  C37      1.0000 0.63430  0.59290  0.79530  Biso   1.000  C
  C38      1.0000 0.36570  0.40710  0.20470  Biso   1.000  C
  H37      1.0000 0.67860  0.54940  0.80430  Biso   1.000  H
  H38      1.0000 0.32140  0.45060  0.19570  Biso   1.000  H
  H39      1.0000 0.67410  0.64010  0.84050  Biso   1.000  H
  H40      1.0000 0.32590  0.35990  0.15950  Biso   1.000  H
  C39      1.0000 0.49340  0.54900  0.79200  Biso   1.000  C
  C40      1.0000 0.50660  0.45100  0.20800  Biso   1.000  C
  H41      1.0000 0.45740  0.49530  0.75310  Biso   1.000  H
  H42      1.0000 0.54260  0.50470  0.24690  Biso   1.000  H
  H43      1.0000 0.44580  0.58880  0.77380  Biso   1.000  H
  H44      1.0000 0.55420  0.41120  0.22620  Biso   1.000  H
  C41      1.0000 0.47220  0.52440  0.87240  Biso   1.000  C
  C42      1.0000 0.52780  0.47560  0.12760  Biso   1.000  C
  H45      1.0000 0.50010  0.57870  0.90980  Biso   1.000  H
  H46      1.0000 0.49990  0.42130  0.09020  Biso   1.000  H
  H47      1.0000 0.37950  0.49500  0.86550  Biso   1.000  H
  H48      1.0000 0.62050  0.50500  0.13450  Biso   1.000  H
  C43      1.0000 0.54560  0.46410  0.90740  Biso   1.000  C
  C44      1.0000 0.45440  0.53590  0.09260  Biso   1.000  C
  C45      1.0000 0.48410  0.37140  0.89760  Biso   1.000  C
  C46      1.0000 0.51590  0.62860  0.10240  Biso   1.000  C
  H49      1.0000 0.39720  0.34560  0.86780  Biso   1.000  H
  H50      1.0000 0.60280  0.65440  0.13220  Biso   1.000  H
  C47      1.0000 0.55250  0.31920  0.93210  Biso   1.000  C
  C48      1.0000 0.44750  0.68080  0.06790  Biso   1.000  C
  H51      1.0000 0.50850  0.25830  0.92700  Biso   1.000  H
  H52      1.0000 0.49150  0.74170  0.07300  Biso   1.000  H
  C49      1.0000 0.73850  0.43980  0.98150  Biso   1.000  C
  C50      1.0000 0.26150  0.56020  0.01850  Biso   1.000  C
  H53      1.0000 0.82640  0.46410  0.00960  Biso   1.000  H
  H54      1.0000 0.17360  0.53590  0.99040  Biso   1.000  H
  C51      1.0000 0.67490  0.49660  0.95070  Biso   1.000  C
  C52      1.0000 0.32510  0.50340  0.04930  Biso   1.000  C
  H55      1.0000 0.71980  0.55760  0.95940  Biso   1.000  H
  H56      1.0000 0.28020  0.44240  0.04060  Biso   1.000  H
  C53      1.0000 0.47680  0.75840  0.46830  Biso   1.000  C
  C54      1.0000 0.52320  0.24160  0.53170  Biso   1.000  C
  H57      1.0000 0.51540  0.79130  0.51900  Biso   1.000  H
  H58      1.0000 0.48460  0.20870  0.48100  Biso   1.000  H
  C55      1.0000 0.34620  0.74360  0.43450  Biso   1.000  C
  C56      1.0000 0.65380  0.25640  0.56550  Biso   1.000  C
  H59      1.0000 0.29940  0.76640  0.46220  Biso   1.000  H
  H60      1.0000 0.70060  0.23360  0.53780  Biso   1.000  H
  C57      1.0000 0.28440  0.69490  0.35940  Biso   1.000  C
  C58      1.0000 0.71560  0.30510  0.64060  Biso   1.000  C
  C59      1.0000 0.36270  0.66350  0.32180  Biso   1.000  C
  C60      1.0000 0.63730  0.33650  0.67820  Biso   1.000  C
  H61      1.0000 0.32640  0.63040  0.27110  Biso   1.000  H
  H62      1.0000 0.67360  0.36960  0.72890  Biso   1.000  H
  C61      1.0000 0.49270  0.68140  0.35930  Biso   1.000  C
  C62      1.0000 0.50730  0.31860  0.64070  Biso   1.000  C
  H63      1.0000 0.54240  0.66000  0.33290  Biso   1.000  H
  H64      1.0000 0.45760  0.34000  0.66710  Biso   1.000  H
  C63      1.0000 0.14290  0.67720  0.32060  Biso   1.000  C
  C64      1.0000 0.85710  0.32280  0.67940  Biso   1.000  C
  H65      1.0000 0.12110  0.64800  0.26630  Biso   1.000  H
  H66      1.0000 0.87890  0.35200  0.73370  Biso   1.000  H
  H67      1.0000 0.12740  0.73360  0.31810  Biso   1.000  H
  H68      1.0000 0.87260  0.26640  0.68190  Biso   1.000  H
  C65      1.0000 0.05310  0.61950  0.36420  Biso   1.000  C
  C66      1.0000 0.94690  0.38050  0.63580  Biso   1.000  C
  H69      1.0000 0.07840  0.64710  0.41930  Biso   1.000  H
  H70      1.0000 0.92160  0.35290  0.58070  Biso   1.000  H
  H71      1.0000 0.96430  0.61750  0.34020  Biso   1.000  H
  H72      1.0000 0.03570  0.38250  0.65980  Biso   1.000  H
  C67      1.0000 0.05480  0.52460  0.36290  Biso   1.000  C
  C68      1.0000 0.94520  0.47540  0.63710  Biso   1.000  C
  H73      1.0000 0.14470  0.52610  0.37980  Biso   1.000  H
  H74      1.0000 0.85530  0.47390  0.62020  Biso   1.000  H
  H75      1.0000 0.01050  0.49620  0.40070  Biso   1.000  H
  H76      1.0000 0.98950  0.50380  0.59930  Biso   1.000  H
  C69      1.0000 0.99000  0.46990  0.28180  Biso   1.000  C
  C70      1.0000 0.01000  0.53010  0.71820  Biso   1.000  C
  C71      1.0000 0.85540  0.44020  0.25000  Biso   1.000  C
  C72      1.0000 0.14460  0.55980  0.75000  Biso   1.000  C
  H77      1.0000 0.80290  0.45470  0.27870  Biso   1.000  H
  H78      1.0000 0.19710  0.54530  0.72130  Biso   1.000  H
  C73      1.0000 0.79940  0.38930  0.17590  Biso   1.000  C
  C74      1.0000 0.20060  0.61070  0.82410  Biso   1.000  C
  H79      1.0000 0.70880  0.36990  0.15620  Biso   1.000  H
  H80      1.0000 0.29120  0.63010  0.84380  Biso   1.000  H
  C75      1.0000 0.99740  0.39710  0.16030  Biso   1.000  C
  C76      1.0000 0.00260  0.60290  0.83970  Biso   1.000  C
  H81      1.0000 0.04800  0.38410  0.12930  Biso   1.000  H
  H82      1.0000 0.95200  0.61590  0.87070  Biso   1.000  H
  C77      1.0000 0.05990  0.44760  0.23460  Biso   1.000  C
  C78      1.0000 0.94010  0.55240  0.76540  Biso   1.000  C
  H83      1.0000 0.15060  0.46660  0.25280  Biso   1.000  H
  H84      1.0000 0.84940  0.53340  0.74720  Biso   1.000  H
  C79      1.0000 0.95190  0.16100  0.05710  Biso   1.000  C
  C80      1.0000 0.04810  0.83900  0.94290  Biso   1.000  C
  H85      1.0000 0.96890  0.17870  0.00990  Biso   1.000  H
  H86      1.0000 0.03110  0.82130  0.99010  Biso   1.000  H
  C81      1.0000 0.00770  0.10230  0.09260  Biso   1.000  C
  C82      1.0000 0.99230  0.89770  0.90740  Biso   1.000  C
  H87      1.0000 0.06000  0.08070  0.06860  Biso   1.000  H
  H88      1.0000 0.94000  0.91930  0.93140  Biso   1.000  H
  C83      1.0000 0.98720  0.07500  0.16340  Biso   1.000  C
  C84      1.0000 0.01280  0.92500  0.83660  Biso   1.000  C
  C85      1.0000 0.90960  0.11140  0.19630  Biso   1.000  C
  C86      1.0000 0.09040  0.88860  0.80370  Biso   1.000  C
  H89      1.0000 0.89400  0.09660  0.24460  Biso   1.000  H
  H90      1.0000 0.10600  0.90340  0.75540  Biso   1.000  H
  C87      1.0000 0.85630  0.16890  0.15760  Biso   1.000  C
  C88      1.0000 0.14370  0.83110  0.84240  Biso   1.000  C
  H91      1.0000 0.80480  0.19210  0.18090  Biso   1.000  H
  H92      1.0000 0.19520  0.80790  0.81910  Biso   1.000  H
  C89      1.0000 0.04320  0.00850  0.20060  Biso   1.000  C
  C90      1.0000 0.95680  0.99150  0.79940  Biso   1.000  C
  H93      1.0000 0.03610  0.00790  0.25480  Biso   1.000  H
  H94      1.0000 0.96390  0.99210  0.74520  Biso   1.000  H
  H95      1.0000 0.13530  0.02640  0.20280  Biso   1.000  H
  H96      1.0000 0.86470  0.97360  0.79720  Biso   1.000  H
  C91      1.0000 0.97200  0.91340  0.15320  Biso   1.000  C
  C92      1.0000 0.02800  0.08660  0.84680  Biso   1.000  C
  H97      1.0000 0.97380  0.91530  0.09800  Biso   1.000  H
  H98      1.0000 0.02620  0.08470  0.90200  Biso   1.000  H
  H99      1.0000 0.01940  0.87470  0.17480  Biso   1.000  H
  H100     1.0000 0.98060  0.12530  0.82520  Biso   1.000  H
  C93      1.0000 0.82960  0.87310  0.15540  Biso   1.000  C
  C94      1.0000 0.17040  0.12690  0.84460  Biso   1.000  C
  H101     1.0000 0.78420  0.91450  0.13860  Biso   1.000  H
  H102     1.0000 0.21580  0.08550  0.86140  Biso   1.000  H
  H103     1.0000 0.78770  0.81880  0.11730  Biso   1.000  H
  H104     1.0000 0.21230  0.18120  0.88270  Biso   1.000  H
  C95      1.0000 0.81520  0.85220  0.23590  Biso   1.000  C
  C96      1.0000 0.18480  0.14780  0.76410  Biso   1.000  C
  C97      1.0000 0.87580  0.79700  0.27590  Biso   1.000  C
  C98      1.0000 0.12420  0.20300  0.72410  Biso   1.000  C
  H105     1.0000 0.92910  0.77460  0.25360  Biso   1.000  H
  H106     1.0000 0.07090  0.22540  0.74640  Biso   1.000  H
  C99      1.0000 0.85690  0.77560  0.34780  Biso   1.000  C
  C100     1.0000 0.14310  0.22440  0.65220  Biso   1.000  C
  H107     1.0000 0.89720  0.73760  0.37270  Biso   1.000  H
  H108     1.0000 0.10280  0.26240  0.62730  Biso   1.000  H
  C101     1.0000 0.72730  0.86030  0.34710  Biso   1.000  C
  C102     1.0000 0.27270  0.13970  0.65290  Biso   1.000  C
  H109     1.0000 0.67610  0.88280  0.37120  Biso   1.000  H
  H110     1.0000 0.32390  0.11720  0.62880  Biso   1.000  H
  C103     1.0000 0.74110  0.88430  0.27450  Biso   1.000  C
  C104     1.0000 0.25890  0.11570  0.72550  Biso   1.000  C
  H111     1.0000 0.70000  0.92260  0.25120  Biso   1.000  H
  H112     1.0000 0.30000  0.07740  0.74880  Biso   1.000  H
  C105     1.0000 0.76540  0.96950  0.56770  Biso   1.000  C
  C106     1.0000 0.23460  0.03050  0.43230  Biso   1.000  C
  C107     1.0000 0.72950  0.53590  0.42610  Biso   1.000  C
  C108     1.0000 0.27050  0.46410  0.57390  Biso   1.000  C
  C109     1.0000 0.48340  0.20480  0.07820  Biso   1.000  C
  C110     1.0000 0.51660  0.79520  0.92180  Biso   1.000  C
  C111     1.0000 0.01740  0.34680  0.93410  Biso   1.000  C
  C112     1.0000 0.98260  0.65320  0.06590  Biso   1.000  C
