data_image0
_cell_length_a       7.916
_cell_length_b       9.28
_cell_length_c       12.732
_cell_angle_alpha    95.49
_cell_angle_beta     90.06
_cell_angle_gamma    106.57

_symmetry_space_group_name_H-M    "P 1"
_symmetry_int_tables_number       1

loop_
  _symmetry_equiv_pos_as_xyz
  'x, y, z'

loop_
  _atom_site_label
  _atom_site_occupancy
  _atom_site_fract_x
  _atom_site_fract_y
  _atom_site_fract_z
  _atom_site_thermal_displace_type
  _atom_site_B_iso_or_equiv
  _atom_site_type_symbol
  Cu1      1.0000 0.11538  0.71449  0.54645  Biso   1.000  Cu
  Cu2      1.0000 0.88462  0.28551  0.45355  Biso   1.000  Cu
  Cu3      1.0000 0.40944  0.92703  0.91306  Biso   1.000  Cu
  Cu4      1.0000 0.59056  0.07297  0.08694  Biso   1.000  Cu
  O1       1.0000 0.12460  0.33570  0.40380  Biso   1.000  O
  O2       1.0000 0.87540  0.66430  0.59620  Biso   1.000  O
  O3       1.0000 0.78770  0.41500  0.57310  Biso   1.000  O
  O4       1.0000 0.21230  0.58500  0.42690  Biso   1.000  O
  O5       1.0000 0.26330  0.80090  0.77710  Biso   1.000  O
  O6       1.0000 0.73670  0.19910  0.22290  Biso   1.000  O
  O7       1.0000 0.19450  0.60980  0.65120  Biso   1.000  O
  O8       1.0000 0.80550  0.39020  0.34880  Biso   1.000  O
  O9       1.0000 0.25380  0.05590  0.95170  Biso   1.000  O
  O10      1.0000 0.74620  0.94410  0.04830  Biso   1.000  O
  O11      1.0000 0.60230  0.82900  0.90020  Biso   1.000  O
  O12      1.0000 0.39770  0.17100  0.09980  Biso   1.000  O
  O13      1.0000 0.54910  0.08950  0.83330  Biso   1.000  O
  O14      1.0000 0.45090  0.91050  0.16670  Biso   1.000  O
  O15      1.0000 0.29930  0.79320  0.02000  Biso   1.000  O
  O16      1.0000 0.70070  0.20680  0.98000  Biso   1.000  O
  N1       1.0000 0.64870  0.10680  0.46960  Biso   1.000  N
  N2       1.0000 0.35130  0.89320  0.53040  Biso   1.000  N
  N3       1.0000 0.04400  0.82700  0.43360  Biso   1.000  N
  N4       1.0000 0.95600  0.17300  0.56640  Biso   1.000  N
  C1       1.0000 0.65530  0.03060  0.55340  Biso   1.000  C
  C2       1.0000 0.34470  0.96940  0.44660  Biso   1.000  C
  C3       1.0000 0.50560  0.92340  0.58330  Biso   1.000  C
  C4       1.0000 0.49440  0.07660  0.41670  Biso   1.000  C
  C5       1.0000 0.17010  0.93670  0.39400  Biso   1.000  C
  C6       1.0000 0.82990  0.06330  0.60600  Biso   1.000  C
  C7       1.0000 0.13590  0.00990  0.31170  Biso   1.000  C
  C8       1.0000 0.86410  0.99010  0.68830  Biso   1.000  C
  C9       1.0000 0.96700  0.97220  0.26890  Biso   1.000  C
  C10      1.0000 0.03300  0.02780  0.73110  Biso   1.000  C
  C11      1.0000 0.83900  0.86170  0.30930  Biso   1.000  C
  C12      1.0000 0.16100  0.13830  0.69070  Biso   1.000  C
  C13      1.0000 0.88090  0.79070  0.39050  Biso   1.000  C
  C14      1.0000 0.11910  0.20930  0.60950  Biso   1.000  C
  C15      1.0000 0.23380  0.46330  0.39740  Biso   1.000  C
  C16      1.0000 0.76620  0.53670  0.60260  Biso   1.000  C
  C17      1.0000 0.40620  0.45650  0.34930  Biso   1.000  C
  C18      1.0000 0.59380  0.54350  0.65070  Biso   1.000  C
  C19      1.0000 0.23420  0.66420  0.74660  Biso   1.000  C
  C20      1.0000 0.76580  0.33580  0.25340  Biso   1.000  C
  C21      1.0000 0.24790  0.55340  0.82200  Biso   1.000  C
  C22      1.0000 0.75210  0.44660  0.17800  Biso   1.000  C
  C23      1.0000 0.66330  0.19520  0.88290  Biso   1.000  C
  C24      1.0000 0.33670  0.80480  0.11710  Biso   1.000  C
  C25      1.0000 0.77150  0.31890  0.82250  Biso   1.000  C
  C26      1.0000 0.22850  0.68110  0.17750  Biso   1.000  C
  C27      1.0000 0.27600  0.14710  0.03100  Biso   1.000  C
  C28      1.0000 0.72400  0.85290  0.96900  Biso   1.000  C
  C29      1.0000 0.14720  0.23960  0.04570  Biso   1.000  C
  C30      1.0000 0.85280  0.76040  0.95430  Biso   1.000  C
  H1       1.0000 0.48100  0.12600  0.36300  Biso   1.000  H
  H2       1.0000 0.51900  0.87400  0.63700  Biso   1.000  H
  H3       1.0000 0.21100  0.07300  0.28800  Biso   1.000  H
  H4       1.0000 0.78900  0.92700  0.71200  Biso   1.000  H
  H5       1.0000 0.94800  0.01900  0.21800  Biso   1.000  H
  H6       1.0000 0.05200  0.98100  0.78200  Biso   1.000  H
  H7       1.0000 0.72400  0.84000  0.28300  Biso   1.000  H
  H8       1.0000 0.27600  0.16000  0.71700  Biso   1.000  H
  H9       1.0000 0.81900  0.71800  0.41300  Biso   1.000  H
  H10      1.0000 0.18100  0.28200  0.58700  Biso   1.000  H
  H11      1.0000 0.37200  0.38200  0.28600  Biso   1.000  H
  H12      1.0000 0.62800  0.61800  0.71400  Biso   1.000  H
  H13      1.0000 0.45800  0.39400  0.39600  Biso   1.000  H
  H14      1.0000 0.54200  0.60600  0.60400  Biso   1.000  H
  H15      1.0000 0.44700  0.51800  0.32500  Biso   1.000  H
  H16      1.0000 0.55300  0.48200  0.67500  Biso   1.000  H
  H17      1.0000 0.20500  0.44800  0.79700  Biso   1.000  H
  H18      1.0000 0.79500  0.55200  0.20300  Biso   1.000  H
  H19      1.0000 0.36100  0.57900  0.85400  Biso   1.000  H
  H20      1.0000 0.63900  0.42100  0.14600  Biso   1.000  H
  H21      1.0000 0.17100  0.54700  0.86400  Biso   1.000  H
  H22      1.0000 0.82900  0.45300  0.13600  Biso   1.000  H
  H23      1.0000 0.71000  0.41600  0.84400  Biso   1.000  H
  H24      1.0000 0.29000  0.58400  0.15600  Biso   1.000  H
  H25      1.0000 0.82100  0.37300  0.85400  Biso   1.000  H
  H26      1.0000 0.17900  0.62700  0.14600  Biso   1.000  H
  H27      1.0000 0.72500  0.30900  0.74200  Biso   1.000  H
  H28      1.0000 0.27500  0.69100  0.25800  Biso   1.000  H
  H29      1.0000 0.20100  0.32400  0.03100  Biso   1.000  H
  H30      1.0000 0.79900  0.67600  0.96900  Biso   1.000  H
  H31      1.0000 0.13800  0.27100  0.10900  Biso   1.000  H
  H32      1.0000 0.86200  0.72900  0.89100  Biso   1.000  H
  H33      1.0000 0.05100  0.21900  0.99800  Biso   1.000  H
  H34      1.0000 0.94900  0.78100  0.00200  Biso   1.000  H
