data_image0
_cell_length_a       13.34
_cell_length_b       18.572
_cell_length_c       20.302
_cell_angle_alpha    90
_cell_angle_beta     90
_cell_angle_gamma    90

_symmetry_space_group_name_H-M    "P 1"
_symmetry_int_tables_number       1

loop_
  _symmetry_equiv_pos_as_xyz
  'x, y, z'

loop_
  _atom_site_label
  _atom_site_occupancy
  _atom_site_fract_x
  _atom_site_fract_y
  _atom_site_fract_z
  _atom_site_thermal_displace_type
  _atom_site_B_iso_or_equiv
  _atom_site_type_symbol
  Cu1      1.0000 0.31619  0.25320  0.25532  Biso   1.000  Cu
  Cu2      1.0000 0.18381  0.74680  0.75532  Biso   1.000  Cu
  Cu3      1.0000 0.81619  0.24680  0.74468  Biso   1.000  Cu
  Cu4      1.0000 0.68381  0.75320  0.24468  Biso   1.000  Cu
  Cu5      1.0000 0.68381  0.74680  0.74468  Biso   1.000  Cu
  Cu6      1.0000 0.81619  0.25320  0.24468  Biso   1.000  Cu
  Cu7      1.0000 0.18381  0.75320  0.25532  Biso   1.000  Cu
  Cu8      1.0000 0.31619  0.24680  0.75532  Biso   1.000  Cu
  N1       1.0000 0.43265  0.39325  0.26782  Biso   1.000  N
  N2       1.0000 0.06735  0.60675  0.76782  Biso   1.000  N
  N3       1.0000 0.93265  0.10675  0.73218  Biso   1.000  N
  N4       1.0000 0.56735  0.89325  0.23218  Biso   1.000  N
  N5       1.0000 0.56735  0.60675  0.73218  Biso   1.000  N
  N6       1.0000 0.93265  0.39325  0.23218  Biso   1.000  N
  N7       1.0000 0.06735  0.89325  0.26782  Biso   1.000  N
  N8       1.0000 0.43265  0.10675  0.76782  Biso   1.000  N
  O1       1.0000 0.34251  0.37682  0.24647  Biso   1.000  O
  O2       1.0000 0.15749  0.62318  0.74647  Biso   1.000  O
  O3       1.0000 0.84251  0.12318  0.75353  Biso   1.000  O
  O4       1.0000 0.65749  0.87682  0.25353  Biso   1.000  O
  O5       1.0000 0.65749  0.62318  0.75353  Biso   1.000  O
  O6       1.0000 0.84251  0.37682  0.25353  Biso   1.000  O
  O7       1.0000 0.15749  0.87682  0.24647  Biso   1.000  O
  O8       1.0000 0.34251  0.12318  0.74647  Biso   1.000  O
  C1       1.0000 0.51390  0.38422  0.22753  Biso   1.000  C
  C2       1.0000 0.98610  0.61578  0.72753  Biso   1.000  C
  C3       1.0000 0.01390  0.11578  0.77247  Biso   1.000  C
  C4       1.0000 0.48610  0.88422  0.27247  Biso   1.000  C
  C5       1.0000 0.48610  0.61578  0.77247  Biso   1.000  C
  C6       1.0000 0.01390  0.38422  0.27247  Biso   1.000  C
  C7       1.0000 0.98610  0.88422  0.22753  Biso   1.000  C
  C8       1.0000 0.51390  0.11578  0.72753  Biso   1.000  C
  C9       1.0000 0.60898  0.40241  0.25008  Biso   1.000  C
  C10      1.0000 0.89102  0.59759  0.75008  Biso   1.000  C
  C11      1.0000 0.10898  0.09759  0.74992  Biso   1.000  C
  C12      1.0000 0.39102  0.90241  0.24992  Biso   1.000  C
  C13      1.0000 0.39102  0.59759  0.74992  Biso   1.000  C
  C14      1.0000 0.10898  0.40241  0.24992  Biso   1.000  C
  C15      1.0000 0.89102  0.90241  0.25008  Biso   1.000  C
  C16      1.0000 0.60898  0.09759  0.75008  Biso   1.000  C
  H1       1.0000 0.66410  0.39730  0.22250  Biso   1.000  H
  H2       1.0000 0.83590  0.60270  0.72250  Biso   1.000  H
  H3       1.0000 0.16410  0.10270  0.77750  Biso   1.000  H
  H4       1.0000 0.33590  0.89730  0.27750  Biso   1.000  H
  H5       1.0000 0.33590  0.60270  0.77750  Biso   1.000  H
  H6       1.0000 0.16410  0.39730  0.27750  Biso   1.000  H
  H7       1.0000 0.83590  0.89730  0.22250  Biso   1.000  H
  H8       1.0000 0.66410  0.10270  0.72250  Biso   1.000  H
  C17      1.0000 0.62181  0.42805  0.31356  Biso   1.000  C
  C18      1.0000 0.87819  0.57195  0.81356  Biso   1.000  C
  C19      1.0000 0.12181  0.07195  0.68644  Biso   1.000  C
  C20      1.0000 0.37819  0.92805  0.18644  Biso   1.000  C
  C21      1.0000 0.37819  0.57195  0.68644  Biso   1.000  C
  C22      1.0000 0.12181  0.42805  0.18644  Biso   1.000  C
  C23      1.0000 0.87819  0.92805  0.31356  Biso   1.000  C
  C24      1.0000 0.62181  0.07195  0.81356  Biso   1.000  C
  H9       1.0000 0.68540  0.43950  0.32910  Biso   1.000  H
  H10      1.0000 0.81460  0.56050  0.82910  Biso   1.000  H
  H11      1.0000 0.18540  0.06050  0.67090  Biso   1.000  H
  H12      1.0000 0.31460  0.93950  0.17090  Biso   1.000  H
  H13      1.0000 0.31460  0.56050  0.67090  Biso   1.000  H
  H14      1.0000 0.18540  0.43950  0.17090  Biso   1.000  H
  H15      1.0000 0.81460  0.93950  0.32910  Biso   1.000  H
  H16      1.0000 0.68540  0.06050  0.82910  Biso   1.000  H
  C25      1.0000 0.53808  0.43638  0.35365  Biso   1.000  C
  C26      1.0000 0.96192  0.56362  0.85365  Biso   1.000  C
  C27      1.0000 0.03808  0.06362  0.64635  Biso   1.000  C
  C28      1.0000 0.46192  0.93638  0.14635  Biso   1.000  C
  C29      1.0000 0.46192  0.56362  0.64635  Biso   1.000  C
  C30      1.0000 0.03808  0.43638  0.14635  Biso   1.000  C
  C31      1.0000 0.96192  0.93638  0.35365  Biso   1.000  C
  C32      1.0000 0.53808  0.06362  0.85365  Biso   1.000  C
  H17      1.0000 0.54520  0.45400  0.39630  Biso   1.000  H
  H18      1.0000 0.95480  0.54600  0.89630  Biso   1.000  H
  H19      1.0000 0.04520  0.04600  0.60370  Biso   1.000  H
  H20      1.0000 0.45480  0.95400  0.10370  Biso   1.000  H
  H21      1.0000 0.45480  0.54600  0.60370  Biso   1.000  H
  H22      1.0000 0.04520  0.45400  0.10370  Biso   1.000  H
  H23      1.0000 0.95480  0.95400  0.39630  Biso   1.000  H
  H24      1.0000 0.54520  0.04600  0.89630  Biso   1.000  H
  C33      1.0000 0.44463  0.41845  0.32999  Biso   1.000  C
  C34      1.0000 0.05537  0.58155  0.82999  Biso   1.000  C
  C35      1.0000 0.94463  0.08155  0.67001  Biso   1.000  C
  C36      1.0000 0.55537  0.91845  0.17001  Biso   1.000  C
  C37      1.0000 0.55537  0.58155  0.67001  Biso   1.000  C
  C38      1.0000 0.94463  0.41845  0.17001  Biso   1.000  C
  C39      1.0000 0.05537  0.91845  0.32999  Biso   1.000  C
  C40      1.0000 0.44463  0.08155  0.82999  Biso   1.000  C
  H25      1.0000 0.38890  0.42370  0.35710  Biso   1.000  H
  H26      1.0000 0.11110  0.57630  0.85710  Biso   1.000  H
  H27      1.0000 0.88890  0.07630  0.64290  Biso   1.000  H
  H28      1.0000 0.61110  0.92370  0.14290  Biso   1.000  H
  H29      1.0000 0.61110  0.57630  0.64290  Biso   1.000  H
  H30      1.0000 0.88890  0.42370  0.14290  Biso   1.000  H
  H31      1.0000 0.11110  0.92370  0.35710  Biso   1.000  H
  H32      1.0000 0.38890  0.07630  0.85710  Biso   1.000  H
  N9       1.0000 0.45305  0.29203  0.15209  Biso   1.000  N
  N10      1.0000 0.04695  0.70797  0.65209  Biso   1.000  N
  N11      1.0000 0.95305  0.20797  0.84791  Biso   1.000  N
  N12      1.0000 0.54695  0.79203  0.34791  Biso   1.000  N
  N13      1.0000 0.54695  0.70797  0.84791  Biso   1.000  N
  N14      1.0000 0.95305  0.29203  0.34791  Biso   1.000  N
  N15      1.0000 0.04695  0.79203  0.15209  Biso   1.000  N
  N16      1.0000 0.45305  0.20797  0.65209  Biso   1.000  N
  O9       1.0000 0.44224  0.24937  0.20431  Biso   1.000  O
  O10      1.0000 0.05776  0.75063  0.70431  Biso   1.000  O
  O11      1.0000 0.94224  0.25063  0.79569  Biso   1.000  O
  O12      1.0000 0.55776  0.74937  0.29569  Biso   1.000  O
  O13      1.0000 0.55776  0.75063  0.79569  Biso   1.000  O
  O14      1.0000 0.94224  0.24937  0.29569  Biso   1.000  O
  O15      1.0000 0.05776  0.74937  0.20431  Biso   1.000  O
  O16      1.0000 0.44224  0.25063  0.70431  Biso   1.000  O
  C41      1.0000 0.49427  0.35858  0.15998  Biso   1.000  C
  C42      1.0000 0.00573  0.64142  0.65998  Biso   1.000  C
  C43      1.0000 0.99427  0.14142  0.84002  Biso   1.000  C
  C44      1.0000 0.50573  0.85858  0.34002  Biso   1.000  C
  C45      1.0000 0.50573  0.64142  0.84002  Biso   1.000  C
  C46      1.0000 0.99427  0.35858  0.34002  Biso   1.000  C
  C47      1.0000 0.00573  0.85858  0.15998  Biso   1.000  C
  C48      1.0000 0.49427  0.14142  0.65998  Biso   1.000  C
  C49      1.0000 0.51752  0.39907  0.10471  Biso   1.000  C
  C50      1.0000 0.98248  0.60093  0.60471  Biso   1.000  C
  C51      1.0000 0.01752  0.10093  0.89529  Biso   1.000  C
  C52      1.0000 0.48248  0.89907  0.39529  Biso   1.000  C
  C53      1.0000 0.48248  0.60093  0.89529  Biso   1.000  C
  C54      1.0000 0.01752  0.39907  0.39529  Biso   1.000  C
  C55      1.0000 0.98248  0.89907  0.10471  Biso   1.000  C
  C56      1.0000 0.51752  0.10093  0.60471  Biso   1.000  C
  H33      1.0000 0.54860  0.44360  0.10950  Biso   1.000  H
  H34      1.0000 0.95140  0.55640  0.60950  Biso   1.000  H
  H35      1.0000 0.04860  0.05640  0.89050  Biso   1.000  H
  H36      1.0000 0.45140  0.94360  0.39050  Biso   1.000  H
  H37      1.0000 0.45140  0.55640  0.89050  Biso   1.000  H
  H38      1.0000 0.04860  0.44360  0.39050  Biso   1.000  H
  H39      1.0000 0.95140  0.94360  0.10950  Biso   1.000  H
  H40      1.0000 0.54860  0.05640  0.60950  Biso   1.000  H
  C57      1.0000 0.49455  0.37339  0.04231  Biso   1.000  C
  C58      1.0000 0.00545  0.62661  0.54231  Biso   1.000  C
  C59      1.0000 0.99455  0.12661  0.95769  Biso   1.000  C
  C60      1.0000 0.50545  0.87339  0.45769  Biso   1.000  C
  C61      1.0000 0.50545  0.62661  0.95769  Biso   1.000  C
  C62      1.0000 0.99455  0.37339  0.45769  Biso   1.000  C
  C63      1.0000 0.00545  0.87339  0.04231  Biso   1.000  C
  C64      1.0000 0.49455  0.12661  0.54231  Biso   1.000  C
  H41      1.0000 0.50990  0.40040  0.00510  Biso   1.000  H
  H42      1.0000 0.99010  0.59960  0.50510  Biso   1.000  H
  H43      1.0000 0.00990  0.09960  0.99490  Biso   1.000  H
  H44      1.0000 0.49010  0.90040  0.49490  Biso   1.000  H
  H45      1.0000 0.49010  0.59960  0.99490  Biso   1.000  H
  H46      1.0000 0.00990  0.40040  0.49490  Biso   1.000  H
  H47      1.0000 0.99010  0.90040  0.00510  Biso   1.000  H
  H48      1.0000 0.50990  0.09960  0.50510  Biso   1.000  H
  C65      1.0000 0.44832  0.30681  0.03642  Biso   1.000  C
  C66      1.0000 0.05168  0.69319  0.53642  Biso   1.000  C
  C67      1.0000 0.94832  0.19319  0.96358  Biso   1.000  C
  C68      1.0000 0.55168  0.80681  0.46358  Biso   1.000  C
  C69      1.0000 0.55168  0.69319  0.96358  Biso   1.000  C
  C70      1.0000 0.94832  0.30681  0.46358  Biso   1.000  C
  C71      1.0000 0.05168  0.80681  0.03642  Biso   1.000  C
  C72      1.0000 0.44832  0.19319  0.53642  Biso   1.000  C
  H49      1.0000 0.43060  0.28940  0.99510  Biso   1.000  H
  H50      1.0000 0.06940  0.71060  0.49510  Biso   1.000  H
  H51      1.0000 0.93060  0.21060  0.00490  Biso   1.000  H
  H52      1.0000 0.56940  0.78940  0.50490  Biso   1.000  H
  H53      1.0000 0.56940  0.71060  0.00490  Biso   1.000  H
  H54      1.0000 0.93060  0.28940  0.50490  Biso   1.000  H
  H55      1.0000 0.06940  0.78940  0.99510  Biso   1.000  H
  H56      1.0000 0.43060  0.21060  0.49510  Biso   1.000  H
  C73      1.0000 0.42868  0.26648  0.09180  Biso   1.000  C
  C74      1.0000 0.07132  0.73352  0.59180  Biso   1.000  C
  C75      1.0000 0.92868  0.23352  0.90820  Biso   1.000  C
  C76      1.0000 0.57132  0.76648  0.40820  Biso   1.000  C
  C77      1.0000 0.57132  0.73352  0.90820  Biso   1.000  C
  C78      1.0000 0.92868  0.26648  0.40820  Biso   1.000  C
  C79      1.0000 0.07132  0.76648  0.09180  Biso   1.000  C
  C80      1.0000 0.42868  0.23352  0.59180  Biso   1.000  C
  H57      1.0000 0.39860  0.22150  0.08780  Biso   1.000  H
  H58      1.0000 0.10140  0.77850  0.58780  Biso   1.000  H
  H59      1.0000 0.89860  0.27850  0.91220  Biso   1.000  H
  H60      1.0000 0.60140  0.72150  0.41220  Biso   1.000  H
  H61      1.0000 0.60140  0.77850  0.91220  Biso   1.000  H
  H62      1.0000 0.89860  0.22150  0.41220  Biso   1.000  H
  H63      1.0000 0.10140  0.72150  0.08780  Biso   1.000  H
  H64      1.0000 0.39860  0.27850  0.58780  Biso   1.000  H
  N17      1.0000 0.20246  0.10960  0.25635  Biso   1.000  N
  N18      1.0000 0.29754  0.89040  0.75635  Biso   1.000  N
  N19      1.0000 0.70246  0.39040  0.74365  Biso   1.000  N
  N20      1.0000 0.79754  0.60960  0.24365  Biso   1.000  N
  N21      1.0000 0.79754  0.89040  0.74365  Biso   1.000  N
  N22      1.0000 0.70246  0.10960  0.24365  Biso   1.000  N
  N23      1.0000 0.29754  0.60960  0.25635  Biso   1.000  N
  N24      1.0000 0.20246  0.39040  0.75635  Biso   1.000  N
  O17      1.0000 0.29256  0.12923  0.27679  Biso   1.000  O
  O18      1.0000 0.20744  0.87077  0.77679  Biso   1.000  O
  O19      1.0000 0.79256  0.37077  0.72321  Biso   1.000  O
  O20      1.0000 0.70744  0.62923  0.22321  Biso   1.000  O
  O21      1.0000 0.70744  0.87077  0.72321  Biso   1.000  O
  O22      1.0000 0.79256  0.12923  0.22321  Biso   1.000  O
  O23      1.0000 0.20744  0.62923  0.27679  Biso   1.000  O
  O24      1.0000 0.29256  0.37077  0.77679  Biso   1.000  O
  C81      1.0000 0.12125  0.12183  0.29579  Biso   1.000  C
  C82      1.0000 0.37875  0.87817  0.79579  Biso   1.000  C
  C83      1.0000 0.62125  0.37817  0.70421  Biso   1.000  C
  C84      1.0000 0.87875  0.62183  0.20421  Biso   1.000  C
  C85      1.0000 0.87875  0.87817  0.70421  Biso   1.000  C
  C86      1.0000 0.62125  0.12183  0.20421  Biso   1.000  C
  C87      1.0000 0.37875  0.62183  0.29579  Biso   1.000  C
  C88      1.0000 0.12125  0.37817  0.79579  Biso   1.000  C
  C89      1.0000 0.02751  0.09953  0.27543  Biso   1.000  C
  C90      1.0000 0.47249  0.90047  0.77543  Biso   1.000  C
  C91      1.0000 0.52751  0.40047  0.72457  Biso   1.000  C
  C92      1.0000 0.97249  0.59953  0.22457  Biso   1.000  C
  C93      1.0000 0.97249  0.90047  0.72457  Biso   1.000  C
  C94      1.0000 0.52751  0.09953  0.22457  Biso   1.000  C
  C95      1.0000 0.47249  0.59953  0.27543  Biso   1.000  C
  C96      1.0000 0.02751  0.40047  0.77543  Biso   1.000  C
  H65      1.0000 0.97230  0.10590  0.30280  Biso   1.000  H
  H66      1.0000 0.52770  0.89410  0.80280  Biso   1.000  H
  H67      1.0000 0.47230  0.39410  0.69720  Biso   1.000  H
  H68      1.0000 0.02770  0.60590  0.19720  Biso   1.000  H
  H69      1.0000 0.02770  0.89410  0.69720  Biso   1.000  H
  H70      1.0000 0.47230  0.10590  0.19720  Biso   1.000  H
  H71      1.0000 0.52770  0.60590  0.30280  Biso   1.000  H
  H72      1.0000 0.97230  0.39410  0.80280  Biso   1.000  H
  C97      1.0000 0.01550  0.06769  0.21444  Biso   1.000  C
  C98      1.0000 0.48450  0.93231  0.71444  Biso   1.000  C
  C99      1.0000 0.51550  0.43231  0.78556  Biso   1.000  C
  C100     1.0000 0.98450  0.56769  0.28556  Biso   1.000  C
  C101     1.0000 0.98450  0.93231  0.78556  Biso   1.000  C
  C102     1.0000 0.51550  0.06769  0.28556  Biso   1.000  C
  C103     1.0000 0.48450  0.56769  0.21444  Biso   1.000  C
  C104     1.0000 0.01550  0.43231  0.71444  Biso   1.000  C
  H73      1.0000 0.95250  0.05270  0.20040  Biso   1.000  H
  H74      1.0000 0.54750  0.94730  0.70040  Biso   1.000  H
  H75      1.0000 0.45250  0.44730  0.79960  Biso   1.000  H
  H76      1.0000 0.04750  0.55270  0.29960  Biso   1.000  H
  H77      1.0000 0.04750  0.94730  0.79960  Biso   1.000  H
  H78      1.0000 0.45250  0.05270  0.29960  Biso   1.000  H
  H79      1.0000 0.54750  0.55270  0.20040  Biso   1.000  H
  H80      1.0000 0.95250  0.44730  0.70040  Biso   1.000  H
  C105     1.0000 0.09886  0.05843  0.17434  Biso   1.000  C
  C106     1.0000 0.40114  0.94157  0.67434  Biso   1.000  C
  C107     1.0000 0.59886  0.44157  0.82566  Biso   1.000  C
  C108     1.0000 0.90114  0.55843  0.32566  Biso   1.000  C
  C109     1.0000 0.90114  0.94157  0.82566  Biso   1.000  C
  C110     1.0000 0.59886  0.05843  0.32566  Biso   1.000  C
  C111     1.0000 0.40114  0.55843  0.17434  Biso   1.000  C
  C112     1.0000 0.09886  0.44157  0.67434  Biso   1.000  C
  H81      1.0000 0.09180  0.03810  0.13270  Biso   1.000  H
  H82      1.0000 0.40820  0.96190  0.63270  Biso   1.000  H
  H83      1.0000 0.59180  0.46190  0.86730  Biso   1.000  H
  H84      1.0000 0.90820  0.53810  0.36730  Biso   1.000  H
  H85      1.0000 0.90820  0.96190  0.86730  Biso   1.000  H
  H86      1.0000 0.59180  0.03810  0.36730  Biso   1.000  H
  H87      1.0000 0.40820  0.53810  0.13270  Biso   1.000  H
  H88      1.0000 0.09180  0.46190  0.63270  Biso   1.000  H
  C113     1.0000 0.19183  0.07949  0.19641  Biso   1.000  C
  C114     1.0000 0.30817  0.92051  0.69641  Biso   1.000  C
  C115     1.0000 0.69183  0.42051  0.80359  Biso   1.000  C
  C116     1.0000 0.80817  0.57949  0.30359  Biso   1.000  C
  C117     1.0000 0.80817  0.92051  0.80359  Biso   1.000  C
  C118     1.0000 0.69183  0.07949  0.30359  Biso   1.000  C
  C119     1.0000 0.30817  0.57949  0.19641  Biso   1.000  C
  C120     1.0000 0.19183  0.42051  0.69641  Biso   1.000  C
  H89      1.0000 0.24780  0.07290  0.16970  Biso   1.000  H
  H90      1.0000 0.25220  0.92710  0.66970  Biso   1.000  H
  H91      1.0000 0.74780  0.42710  0.83030  Biso   1.000  H
  H92      1.0000 0.75220  0.57290  0.33030  Biso   1.000  H
  H93      1.0000 0.75220  0.92710  0.83030  Biso   1.000  H
  H94      1.0000 0.74780  0.07290  0.33030  Biso   1.000  H
  H95      1.0000 0.25220  0.57290  0.16970  Biso   1.000  H
  H96      1.0000 0.24780  0.42710  0.66970  Biso   1.000  H
  N25      1.0000 0.17953  0.22318  0.36128  Biso   1.000  N
  N26      1.0000 0.32047  0.77682  0.86128  Biso   1.000  N
  N27      1.0000 0.67953  0.27682  0.63872  Biso   1.000  N
  N28      1.0000 0.82047  0.72318  0.13872  Biso   1.000  N
  N29      1.0000 0.82047  0.77682  0.63872  Biso   1.000  N
  N30      1.0000 0.67953  0.22318  0.13872  Biso   1.000  N
  N31      1.0000 0.32047  0.72318  0.36128  Biso   1.000  N
  N32      1.0000 0.17953  0.27682  0.86128  Biso   1.000  N
  O25      1.0000 0.18899  0.25948  0.30507  Biso   1.000  O
  O26      1.0000 0.31101  0.74052  0.80507  Biso   1.000  O
  O27      1.0000 0.68899  0.24052  0.69493  Biso   1.000  O
  O28      1.0000 0.81101  0.75948  0.19493  Biso   1.000  O
  O29      1.0000 0.81101  0.74052  0.69493  Biso   1.000  O
  O30      1.0000 0.68899  0.25948  0.19493  Biso   1.000  O
  O31      1.0000 0.31101  0.75948  0.30507  Biso   1.000  O
  O32      1.0000 0.18899  0.24052  0.80507  Biso   1.000  O
  C121     1.0000 0.14020  0.15566  0.36008  Biso   1.000  C
  C122     1.0000 0.35980  0.84434  0.86008  Biso   1.000  C
  C123     1.0000 0.64020  0.34434  0.63992  Biso   1.000  C
  C124     1.0000 0.85980  0.65566  0.13992  Biso   1.000  C
  C125     1.0000 0.85980  0.84434  0.63992  Biso   1.000  C
  C126     1.0000 0.64020  0.15566  0.13992  Biso   1.000  C
  C127     1.0000 0.35980  0.65566  0.36008  Biso   1.000  C
  C128     1.0000 0.14020  0.34434  0.86008  Biso   1.000  C
  C129     1.0000 0.11829  0.12173  0.41922  Biso   1.000  C
  C130     1.0000 0.38171  0.87827  0.91922  Biso   1.000  C
  C131     1.0000 0.61829  0.37827  0.58078  Biso   1.000  C
  C132     1.0000 0.88171  0.62173  0.08078  Biso   1.000  C
  C133     1.0000 0.88171  0.87827  0.58078  Biso   1.000  C
  C134     1.0000 0.61829  0.12173  0.08078  Biso   1.000  C
  C135     1.0000 0.38171  0.62173  0.41922  Biso   1.000  C
  C136     1.0000 0.11829  0.37827  0.91922  Biso   1.000  C
  H97      1.0000 0.08860  0.07640  0.41910  Biso   1.000  H
  H98      1.0000 0.41140  0.92360  0.91910  Biso   1.000  H
  H99      1.0000 0.58860  0.42360  0.58090  Biso   1.000  H
  H100     1.0000 0.91140  0.57640  0.08090  Biso   1.000  H
  H101     1.0000 0.91140  0.92360  0.58090  Biso   1.000  H
  H102     1.0000 0.58860  0.07640  0.08090  Biso   1.000  H
  H103     1.0000 0.41140  0.57640  0.41910  Biso   1.000  H
  H104     1.0000 0.08860  0.42360  0.91910  Biso   1.000  H
  C137     1.0000 0.14040  0.15494  0.47823  Biso   1.000  C
  C138     1.0000 0.35960  0.84506  0.97823  Biso   1.000  C
  C139     1.0000 0.64040  0.34506  0.52177  Biso   1.000  C
  C140     1.0000 0.85960  0.65494  0.02177  Biso   1.000  C
  C141     1.0000 0.85960  0.84506  0.52177  Biso   1.000  C
  C142     1.0000 0.64040  0.15494  0.02177  Biso   1.000  C
  C143     1.0000 0.35960  0.65494  0.47823  Biso   1.000  C
  C144     1.0000 0.14040  0.34506  0.97823  Biso   1.000  C
  H105     1.0000 0.12510  0.13250  0.51790  Biso   1.000  H
  H106     1.0000 0.37490  0.86750  0.01790  Biso   1.000  H
  H107     1.0000 0.62510  0.36750  0.48210  Biso   1.000  H
  H108     1.0000 0.87490  0.63250  0.98210  Biso   1.000  H
  H109     1.0000 0.87490  0.86750  0.48210  Biso   1.000  H
  H110     1.0000 0.62510  0.13250  0.98210  Biso   1.000  H
  H111     1.0000 0.37490  0.63250  0.51790  Biso   1.000  H
  H112     1.0000 0.12510  0.36750  0.01790  Biso   1.000  H
  C145     1.0000 0.18564  0.22222  0.47767  Biso   1.000  C
  C146     1.0000 0.31436  0.77778  0.97767  Biso   1.000  C
  C147     1.0000 0.68564  0.27778  0.52233  Biso   1.000  C
  C148     1.0000 0.81436  0.72222  0.02233  Biso   1.000  C
  C149     1.0000 0.81436  0.77778  0.52233  Biso   1.000  C
  C150     1.0000 0.68564  0.22222  0.02233  Biso   1.000  C
  C151     1.0000 0.31436  0.72222  0.47767  Biso   1.000  C
  C152     1.0000 0.18564  0.27778  0.97767  Biso   1.000  C
  H113     1.0000 0.20350  0.24450  0.51700  Biso   1.000  H
  H114     1.0000 0.29650  0.75550  0.01700  Biso   1.000  H
  H115     1.0000 0.70350  0.25550  0.48300  Biso   1.000  H
  H116     1.0000 0.79650  0.74450  0.98300  Biso   1.000  H
  H117     1.0000 0.79650  0.75550  0.48300  Biso   1.000  H
  H118     1.0000 0.70350  0.24450  0.98300  Biso   1.000  H
  H119     1.0000 0.29650  0.74450  0.51700  Biso   1.000  H
  H120     1.0000 0.20350  0.25550  0.01700  Biso   1.000  H
  C153     1.0000 0.20388  0.25579  0.41823  Biso   1.000  C
  C154     1.0000 0.29612  0.74421  0.91823  Biso   1.000  C
  C155     1.0000 0.70388  0.24421  0.58177  Biso   1.000  C
  C156     1.0000 0.79612  0.75579  0.08177  Biso   1.000  C
  C157     1.0000 0.79612  0.74421  0.58177  Biso   1.000  C
  C158     1.0000 0.70388  0.25579  0.08177  Biso   1.000  C
  C159     1.0000 0.29612  0.75579  0.41823  Biso   1.000  C
  C160     1.0000 0.20388  0.24421  0.91823  Biso   1.000  C
  H121     1.0000 0.23320  0.30120  0.41750  Biso   1.000  H
  H122     1.0000 0.26680  0.69880  0.91750  Biso   1.000  H
  H123     1.0000 0.73320  0.19880  0.58250  Biso   1.000  H
  H124     1.0000 0.76680  0.80120  0.08250  Biso   1.000  H
  H125     1.0000 0.76680  0.69880  0.58250  Biso   1.000  H
  H126     1.0000 0.73320  0.30120  0.08250  Biso   1.000  H
  H127     1.0000 0.26680  0.80120  0.41750  Biso   1.000  H
  H128     1.0000 0.23320  0.19880  0.91750  Biso   1.000  H
  N33      1.0000 0.40295  0.24841  0.33562  Biso   1.000  N
  N34      1.0000 0.09705  0.75159  0.83562  Biso   1.000  N
  N35      1.0000 0.90295  0.25159  0.66438  Biso   1.000  N
  N36      1.0000 0.59705  0.74841  0.16438  Biso   1.000  N
  N37      1.0000 0.59705  0.75159  0.66438  Biso   1.000  N
  N38      1.0000 0.90295  0.24841  0.16438  Biso   1.000  N
  N39      1.0000 0.09705  0.74841  0.33562  Biso   1.000  N
  N40      1.0000 0.40295  0.25159  0.83562  Biso   1.000  N
  C161     1.0000 0.48376  0.24544  0.35542  Biso   1.000  C
  C162     1.0000 0.01624  0.75456  0.85542  Biso   1.000  C
  C163     1.0000 0.98376  0.25456  0.64458  Biso   1.000  C
  C164     1.0000 0.51624  0.74544  0.14458  Biso   1.000  C
  C165     1.0000 0.51624  0.75456  0.64458  Biso   1.000  C
  C166     1.0000 0.98376  0.24544  0.14458  Biso   1.000  C
  C167     1.0000 0.01624  0.74544  0.35542  Biso   1.000  C
  C168     1.0000 0.48376  0.25456  0.85542  Biso   1.000  C
  N41      1.0000 0.57082  0.24179  0.38397  Biso   1.000  N
  N42      1.0000 0.92918  0.75821  0.88397  Biso   1.000  N
  N43      1.0000 0.07082  0.25821  0.61603  Biso   1.000  N
  N44      1.0000 0.42918  0.74179  0.11603  Biso   1.000  N
  N45      1.0000 0.42918  0.75821  0.61603  Biso   1.000  N
  N46      1.0000 0.07082  0.24179  0.11603  Biso   1.000  N
  N47      1.0000 0.92918  0.74179  0.38397  Biso   1.000  N
  N48      1.0000 0.57082  0.25821  0.88397  Biso   1.000  N
  C169     1.0000 0.65270  0.24782  0.34965  Biso   1.000  C
  C170     1.0000 0.84730  0.75218  0.84965  Biso   1.000  C
  C171     1.0000 0.15270  0.25218  0.65035  Biso   1.000  C
  C172     1.0000 0.34730  0.74782  0.15035  Biso   1.000  C
  C173     1.0000 0.34730  0.75218  0.65035  Biso   1.000  C
  C174     1.0000 0.15270  0.24782  0.15035  Biso   1.000  C
  C175     1.0000 0.84730  0.74782  0.34965  Biso   1.000  C
  C176     1.0000 0.65270  0.25218  0.84965  Biso   1.000  C
  N49      1.0000 0.73012  0.25287  0.32461  Biso   1.000  N
  N50      1.0000 0.76988  0.74713  0.82461  Biso   1.000  N
  N51      1.0000 0.23012  0.24713  0.67539  Biso   1.000  N
  N52      1.0000 0.26988  0.75287  0.17539  Biso   1.000  N
  N53      1.0000 0.26988  0.74713  0.67539  Biso   1.000  N
  N54      1.0000 0.23012  0.25287  0.17539  Biso   1.000  N
  N55      1.0000 0.76988  0.75287  0.32461  Biso   1.000  N
  N56      1.0000 0.73012  0.24713  0.82461  Biso   1.000  N
  P1       1.0000 0.31238  0.07387  0.01554  Biso   1.000  P
  P2       1.0000 0.18762  0.92613  0.51554  Biso   1.000  P
  P3       1.0000 0.81238  0.42613  0.98446  Biso   1.000  P
  P4       1.0000 0.68762  0.57387  0.48446  Biso   1.000  P
  P5       1.0000 0.68762  0.92613  0.98446  Biso   1.000  P
  P6       1.0000 0.81238  0.07387  0.48446  Biso   1.000  P
  P7       1.0000 0.18762  0.57387  0.01554  Biso   1.000  P
  P8       1.0000 0.31238  0.42613  0.51554  Biso   1.000  P
  F1       1.0000 0.21884  0.11987  0.03996  Biso   1.000  F
  F2       1.0000 0.28116  0.88013  0.53996  Biso   1.000  F
  F3       1.0000 0.71884  0.38013  0.96004  Biso   1.000  F
  F4       1.0000 0.78116  0.61987  0.46004  Biso   1.000  F
  F5       1.0000 0.78116  0.88013  0.96004  Biso   1.000  F
  F6       1.0000 0.71884  0.11987  0.46004  Biso   1.000  F
  F7       1.0000 0.28116  0.61987  0.03996  Biso   1.000  F
  F8       1.0000 0.21884  0.38013  0.53996  Biso   1.000  F
  F9       1.0000 0.40564  0.02777  0.99111  Biso   1.000  F
  F10      1.0000 0.09436  0.97223  0.49111  Biso   1.000  F
  F11      1.0000 0.90564  0.47223  0.00889  Biso   1.000  F
  F12      1.0000 0.59436  0.52777  0.50889  Biso   1.000  F
  F13      1.0000 0.59436  0.97223  0.00889  Biso   1.000  F
  F14      1.0000 0.90564  0.02777  0.50889  Biso   1.000  F
  F15      1.0000 0.09436  0.52777  0.99111  Biso   1.000  F
  F16      1.0000 0.40564  0.47223  0.49111  Biso   1.000  F
  F17      1.0000 0.25743  0.06095  0.94613  Biso   1.000  F
  F18      1.0000 0.24257  0.93905  0.44613  Biso   1.000  F
  F19      1.0000 0.75743  0.43905  0.05387  Biso   1.000  F
  F20      1.0000 0.74257  0.56095  0.55387  Biso   1.000  F
  F21      1.0000 0.74257  0.93905  0.05387  Biso   1.000  F
  F22      1.0000 0.75743  0.06095  0.55387  Biso   1.000  F
  F23      1.0000 0.24257  0.56095  0.94613  Biso   1.000  F
  F24      1.0000 0.25743  0.43905  0.44613  Biso   1.000  F
  F25      1.0000 0.26157  0.00292  0.04507  Biso   1.000  F
  F26      1.0000 0.23843  0.99708  0.54507  Biso   1.000  F
  F27      1.0000 0.76157  0.49708  0.95493  Biso   1.000  F
  F28      1.0000 0.73843  0.50292  0.45493  Biso   1.000  F
  F29      1.0000 0.73843  0.99708  0.95493  Biso   1.000  F
  F30      1.0000 0.76157  0.00292  0.45493  Biso   1.000  F
  F31      1.0000 0.23843  0.50292  0.04507  Biso   1.000  F
  F32      1.0000 0.26157  0.49708  0.54507  Biso   1.000  F
  F33      1.0000 0.36799  0.08722  0.08470  Biso   1.000  F
  F34      1.0000 0.13201  0.91278  0.58470  Biso   1.000  F
  F35      1.0000 0.86799  0.41278  0.91530  Biso   1.000  F
  F36      1.0000 0.63201  0.58722  0.41530  Biso   1.000  F
  F37      1.0000 0.63201  0.91278  0.91530  Biso   1.000  F
  F38      1.0000 0.86799  0.08722  0.41530  Biso   1.000  F
  F39      1.0000 0.13201  0.58722  0.08470  Biso   1.000  F
  F40      1.0000 0.36799  0.41278  0.58470  Biso   1.000  F
  F41      1.0000 0.36316  0.14512  0.98653  Biso   1.000  F
  F42      1.0000 0.13684  0.85488  0.48653  Biso   1.000  F
  F43      1.0000 0.86316  0.35488  0.01347  Biso   1.000  F
  F44      1.0000 0.63684  0.64512  0.51347  Biso   1.000  F
  F45      1.0000 0.63684  0.85488  0.01347  Biso   1.000  F
  F46      1.0000 0.86316  0.14512  0.51347  Biso   1.000  F
  F47      1.0000 0.13684  0.64512  0.98653  Biso   1.000  F
  F48      1.0000 0.36316  0.35488  0.48653  Biso   1.000  F
  O33      1.0000 0.36821  0.07040  0.40764  Biso   1.000  O
  O34      1.0000 0.13179  0.92960  0.90764  Biso   1.000  O
  O35      1.0000 0.86821  0.42960  0.59236  Biso   1.000  O
  O36      1.0000 0.63179  0.57040  0.09236  Biso   1.000  O
  O37      1.0000 0.63179  0.92960  0.59236  Biso   1.000  O
  O38      1.0000 0.86821  0.07040  0.09236  Biso   1.000  O
  O39      1.0000 0.13179  0.57040  0.40764  Biso   1.000  O
  O40      1.0000 0.36821  0.42960  0.90764  Biso   1.000  O
  H129     1.0000 0.34180  0.08860  0.37330  Biso   1.000  H
  H130     1.0000 0.15820  0.91140  0.87330  Biso   1.000  H
  H131     1.0000 0.84180  0.41140  0.62670  Biso   1.000  H
  H132     1.0000 0.65820  0.58860  0.12670  Biso   1.000  H
  H133     1.0000 0.65820  0.91140  0.62670  Biso   1.000  H
  H134     1.0000 0.84180  0.08860  0.12670  Biso   1.000  H
  H135     1.0000 0.15820  0.58860  0.37330  Biso   1.000  H
  H136     1.0000 0.34180  0.41140  0.87330  Biso   1.000  H
  H137     1.0000 0.32220  0.04560  0.42600  Biso   1.000  H
  H138     1.0000 0.17780  0.95440  0.92600  Biso   1.000  H
  H139     1.0000 0.82220  0.45440  0.57400  Biso   1.000  H
  H140     1.0000 0.67780  0.54560  0.07400  Biso   1.000  H
  H141     1.0000 0.67780  0.95440  0.57400  Biso   1.000  H
  H142     1.0000 0.82220  0.04560  0.07400  Biso   1.000  H
  H143     1.0000 0.17780  0.54560  0.42600  Biso   1.000  H
  H144     1.0000 0.32220  0.45440  0.92600  Biso   1.000  H
