data_image0
_cell_length_a       7.745
_cell_length_b       17.3706
_cell_length_c       13.3737
_cell_angle_alpha    90
_cell_angle_beta     93.227
_cell_angle_gamma    90

_symmetry_space_group_name_H-M    "P 1"
_symmetry_int_tables_number       1

loop_
  _symmetry_equiv_pos_as_xyz
  'x, y, z'

loop_
  _atom_site_label
  _atom_site_occupancy
  _atom_site_fract_x
  _atom_site_fract_y
  _atom_site_fract_z
  _atom_site_thermal_displace_type
  _atom_site_B_iso_or_equiv
  _atom_site_type_symbol
  Cu1      1.0000 0.74048  0.31372  0.35615  Biso   1.000  Cu
  Cu2      1.0000 0.25952  0.81372  0.14385  Biso   1.000  Cu
  Cu3      1.0000 0.25952  0.68628  0.64385  Biso   1.000  Cu
  Cu4      1.0000 0.74048  0.18628  0.85615  Biso   1.000  Cu
  O1       1.0000 0.70420  0.21259  0.40790  Biso   1.000  O
  O2       1.0000 0.29580  0.71259  0.09210  Biso   1.000  O
  O3       1.0000 0.29580  0.78741  0.59210  Biso   1.000  O
  O4       1.0000 0.70420  0.28741  0.90790  Biso   1.000  O
  N1       1.0000 0.77940  0.41434  0.28767  Biso   1.000  N
  N2       1.0000 0.22060  0.91434  0.21233  Biso   1.000  N
  N3       1.0000 0.22060  0.58566  0.71233  Biso   1.000  N
  N4       1.0000 0.77940  0.08566  0.78767  Biso   1.000  N
  N5       1.0000 0.81000  0.27340  0.22742  Biso   1.000  N
  N6       1.0000 0.19000  0.77340  0.27258  Biso   1.000  N
  N7       1.0000 0.19000  0.72660  0.77258  Biso   1.000  N
  N8       1.0000 0.81000  0.22660  0.72742  Biso   1.000  N
  N9       1.0000 0.97820  0.34516  0.45820  Biso   1.000  N
  N10      1.0000 0.02180  0.84516  0.04180  Biso   1.000  N
  N11      1.0000 0.02180  0.65484  0.54180  Biso   1.000  N
  N12      1.0000 0.97820  0.15484  0.95820  Biso   1.000  N
  N13      1.0000 0.54940  0.35609  0.43652  Biso   1.000  N
  N14      1.0000 0.45060  0.85609  0.06348  Biso   1.000  N
  N15      1.0000 0.45060  0.64391  0.56348  Biso   1.000  N
  N16      1.0000 0.54940  0.14391  0.93652  Biso   1.000  N
  N17      1.0000 0.26650  0.40355  0.47970  Biso   1.000  N
  N18      1.0000 0.73350  0.90355  0.02030  Biso   1.000  N
  N19      1.0000 0.73350  0.59645  0.52030  Biso   1.000  N
  N20      1.0000 0.26650  0.09645  0.97970  Biso   1.000  N
  C1       1.0000 0.75250  0.48385  0.32700  Biso   1.000  C
  C2       1.0000 0.24750  0.98385  0.17300  Biso   1.000  C
  C3       1.0000 0.24750  0.51615  0.67300  Biso   1.000  C
  C4       1.0000 0.75250  0.01615  0.82700  Biso   1.000  C
  H1       1.0000 0.70740  0.48660  0.38990  Biso   1.000  H
  H2       1.0000 0.29260  0.98660  0.11010  Biso   1.000  H
  H3       1.0000 0.29260  0.51340  0.61010  Biso   1.000  H
  H4       1.0000 0.70740  0.01340  0.88990  Biso   1.000  H
  C5       1.0000 0.78830  0.55138  0.27880  Biso   1.000  C
  C6       1.0000 0.21170  0.05138  0.22120  Biso   1.000  C
  C7       1.0000 0.21170  0.44862  0.72120  Biso   1.000  C
  C8       1.0000 0.78830  0.94862  0.77880  Biso   1.000  C
  H5       1.0000 0.76810  0.59880  0.30830  Biso   1.000  H
  H6       1.0000 0.23190  0.09880  0.19170  Biso   1.000  H
  H7       1.0000 0.23190  0.40120  0.69170  Biso   1.000  H
  H8       1.0000 0.76810  0.90120  0.80830  Biso   1.000  H
  C9       1.0000 0.85460  0.54692  0.18630  Biso   1.000  C
  C10      1.0000 0.14540  0.04692  0.31370  Biso   1.000  C
  C11      1.0000 0.14540  0.45308  0.81370  Biso   1.000  C
  C12      1.0000 0.85460  0.95308  0.68630  Biso   1.000  C
  H9       1.0000 0.87970  0.59160  0.15160  Biso   1.000  H
  H10      1.0000 0.12030  0.09160  0.34840  Biso   1.000  H
  H11      1.0000 0.12030  0.40840  0.84840  Biso   1.000  H
  H12      1.0000 0.87970  0.90840  0.65160  Biso   1.000  H
  C13      1.0000 0.88360  0.47618  0.14520  Biso   1.000  C
  C14      1.0000 0.11640  0.97618  0.35480  Biso   1.000  C
  C15      1.0000 0.11640  0.52382  0.85480  Biso   1.000  C
  C16      1.0000 0.88360  0.02382  0.64520  Biso   1.000  C
  H13      1.0000 0.92930  0.47270  0.08260  Biso   1.000  H
  H14      1.0000 0.07070  0.97270  0.41740  Biso   1.000  H
  H15      1.0000 0.07070  0.52730  0.91740  Biso   1.000  H
  H16      1.0000 0.92930  0.02730  0.58260  Biso   1.000  H
  C17      1.0000 0.84490  0.41002  0.19685  Biso   1.000  C
  C18      1.0000 0.15510  0.91002  0.30315  Biso   1.000  C
  C19      1.0000 0.15510  0.58998  0.80315  Biso   1.000  C
  C20      1.0000 0.84490  0.08998  0.69685  Biso   1.000  C
  C21      1.0000 0.87430  0.33009  0.15628  Biso   1.000  C
  C22      1.0000 0.12570  0.83009  0.34372  Biso   1.000  C
  C23      1.0000 0.12570  0.66991  0.84372  Biso   1.000  C
  C24      1.0000 0.87430  0.16991  0.65628  Biso   1.000  C
  H17      1.0000 0.80560  0.32490  0.09290  Biso   1.000  H
  H18      1.0000 0.19440  0.82490  0.40710  Biso   1.000  H
  H19      1.0000 0.19440  0.67510  0.90710  Biso   1.000  H
  H20      1.0000 0.80560  0.17510  0.59290  Biso   1.000  H
  C25      1.0000 0.06320  0.31587  0.13572  Biso   1.000  C
  C26      1.0000 0.93680  0.81587  0.36428  Biso   1.000  C
  C27      1.0000 0.93680  0.68413  0.86428  Biso   1.000  C
  C28      1.0000 0.06320  0.18413  0.63572  Biso   1.000  C
  C29      1.0000 0.11520  0.32267  0.03930  Biso   1.000  C
  C30      1.0000 0.88480  0.82267  0.46070  Biso   1.000  C
  C31      1.0000 0.88480  0.67733  0.96070  Biso   1.000  C
  C32      1.0000 0.11520  0.17733  0.53930  Biso   1.000  C
  H21      1.0000 0.03600  0.33700  0.98780  Biso   1.000  H
  H22      1.0000 0.96400  0.83700  0.51220  Biso   1.000  H
  H23      1.0000 0.96400  0.66300  0.01220  Biso   1.000  H
  H24      1.0000 0.03600  0.16300  0.48780  Biso   1.000  H
  C33      1.0000 0.28640  0.30812  0.01910  Biso   1.000  C
  C34      1.0000 0.71360  0.80812  0.48090  Biso   1.000  C
  C35      1.0000 0.71360  0.69188  0.98090  Biso   1.000  C
  C36      1.0000 0.28640  0.19188  0.51910  Biso   1.000  C
  H25      1.0000 0.32140  0.31290  0.95400  Biso   1.000  H
  H26      1.0000 0.67860  0.81290  0.54600  Biso   1.000  H
  H27      1.0000 0.67860  0.68710  0.04600  Biso   1.000  H
  H28      1.0000 0.32140  0.18710  0.45400  Biso   1.000  H
  C37      1.0000 0.40270  0.28691  0.09400  Biso   1.000  C
  C38      1.0000 0.59730  0.78691  0.40600  Biso   1.000  C
  C39      1.0000 0.59730  0.71309  0.90600  Biso   1.000  C
  C40      1.0000 0.40270  0.21309  0.59400  Biso   1.000  C
  H29      1.0000 0.51730  0.27760  0.08030  Biso   1.000  H
  H30      1.0000 0.48270  0.77760  0.41970  Biso   1.000  H
  H31      1.0000 0.48270  0.72240  0.91970  Biso   1.000  H
  H32      1.0000 0.51730  0.22240  0.58030  Biso   1.000  H
  C41      1.0000 0.35040  0.27935  0.19010  Biso   1.000  C
  C42      1.0000 0.64960  0.77935  0.30990  Biso   1.000  C
  C43      1.0000 0.64960  0.72065  0.80990  Biso   1.000  C
  C44      1.0000 0.35040  0.22065  0.69010  Biso   1.000  C
  H33      1.0000 0.42960  0.26410  0.24110  Biso   1.000  H
  H34      1.0000 0.57040  0.76410  0.25890  Biso   1.000  H
  H35      1.0000 0.57040  0.73590  0.75890  Biso   1.000  H
  H36      1.0000 0.42960  0.23590  0.74110  Biso   1.000  H
  C45      1.0000 0.18140  0.29414  0.21130  Biso   1.000  C
  C46      1.0000 0.81860  0.79414  0.28870  Biso   1.000  C
  C47      1.0000 0.81860  0.70586  0.78870  Biso   1.000  C
  C48      1.0000 0.18140  0.20586  0.71130  Biso   1.000  C
  H37      1.0000 0.14730  0.28950  0.27660  Biso   1.000  H
  H38      1.0000 0.85270  0.78950  0.22340  Biso   1.000  H
  H39      1.0000 0.85270  0.71050  0.72340  Biso   1.000  H
  H40      1.0000 0.14730  0.21050  0.77660  Biso   1.000  H
  C49      1.0000 0.79290  0.20306  0.19720  Biso   1.000  C
  C50      1.0000 0.20710  0.70306  0.30280  Biso   1.000  C
  C51      1.0000 0.20710  0.79694  0.80280  Biso   1.000  C
  C52      1.0000 0.79290  0.29694  0.69720  Biso   1.000  C
  H41      1.0000 0.82030  0.19250  0.13170  Biso   1.000  H
  H42      1.0000 0.17970  0.69250  0.36830  Biso   1.000  H
  H43      1.0000 0.17970  0.80750  0.86830  Biso   1.000  H
  H44      1.0000 0.82030  0.30750  0.63170  Biso   1.000  H
  C53      1.0000 0.73590  0.14029  0.25541  Biso   1.000  C
  C54      1.0000 0.26410  0.64029  0.24459  Biso   1.000  C
  C55      1.0000 0.26410  0.85971  0.74459  Biso   1.000  C
  C56      1.0000 0.73590  0.35971  0.75541  Biso   1.000  C
  C57      1.0000 0.72370  0.06781  0.20890  Biso   1.000  C
  C58      1.0000 0.27630  0.56781  0.29110  Biso   1.000  C
  C59      1.0000 0.27630  0.93219  0.79110  Biso   1.000  C
  C60      1.0000 0.72370  0.43219  0.70890  Biso   1.000  C
  H45      1.0000 0.74840  0.06350  0.14180  Biso   1.000  H
  H46      1.0000 0.25160  0.56350  0.35820  Biso   1.000  H
  H47      1.0000 0.25160  0.93650  0.85820  Biso   1.000  H
  H48      1.0000 0.74840  0.43650  0.64180  Biso   1.000  H
  C61      1.0000 0.67620  0.00327  0.25980  Biso   1.000  C
  C62      1.0000 0.32380  0.50327  0.24020  Biso   1.000  C
  C63      1.0000 0.32380  0.99673  0.74020  Biso   1.000  C
  C64      1.0000 0.67620  0.49673  0.75980  Biso   1.000  C
  H49      1.0000 0.66910  0.95560  0.22810  Biso   1.000  H
  H50      1.0000 0.33090  0.45560  0.27190  Biso   1.000  H
  H51      1.0000 0.33090  0.04440  0.77190  Biso   1.000  H
  H52      1.0000 0.66910  0.54440  0.72810  Biso   1.000  H
  C65      1.0000 0.63900  0.01098  0.35980  Biso   1.000  C
  C66      1.0000 0.36100  0.51098  0.14020  Biso   1.000  C
  C67      1.0000 0.36100  0.98902  0.64020  Biso   1.000  C
  C68      1.0000 0.63900  0.48902  0.85980  Biso   1.000  C
  H53      1.0000 0.60670  0.96770  0.39530  Biso   1.000  H
  H54      1.0000 0.39330  0.46770  0.10470  Biso   1.000  H
  H55      1.0000 0.39330  0.03230  0.60470  Biso   1.000  H
  H56      1.0000 0.60670  0.53230  0.89530  Biso   1.000  H
  C69      1.0000 0.64880  0.08027  0.40690  Biso   1.000  C
  C70      1.0000 0.35120  0.58027  0.09310  Biso   1.000  C
  C71      1.0000 0.35120  0.91973  0.59310  Biso   1.000  C
  C72      1.0000 0.64880  0.41973  0.90690  Biso   1.000  C
  H57      1.0000 0.62320  0.08310  0.47390  Biso   1.000  H
  H58      1.0000 0.37680  0.58310  0.02610  Biso   1.000  H
  H59      1.0000 0.37680  0.91690  0.52610  Biso   1.000  H
  H60      1.0000 0.62320  0.41690  0.97390  Biso   1.000  H
  C73      1.0000 0.69630  0.14786  0.35772  Biso   1.000  C
  C74      1.0000 0.30370  0.64786  0.14228  Biso   1.000  C
  C75      1.0000 0.30370  0.85214  0.64228  Biso   1.000  C
  C76      1.0000 0.69630  0.35214  0.85772  Biso   1.000  C
  C77      1.0000 0.11700  0.36920  0.46568  Biso   1.000  C
  C78      1.0000 0.88300  0.86920  0.03432  Biso   1.000  C
  C79      1.0000 0.88300  0.63080  0.53432  Biso   1.000  C
  C80      1.0000 0.11700  0.13080  0.96568  Biso   1.000  C
  C81      1.0000 0.41230  0.37433  0.45477  Biso   1.000  C
  C82      1.0000 0.58770  0.87433  0.04523  Biso   1.000  C
  C83      1.0000 0.58770  0.62567  0.54523  Biso   1.000  C
  C84      1.0000 0.41230  0.12567  0.95477  Biso   1.000  C
