data_image0
_cell_length_a       10.1928
_cell_length_b       10.9107
_cell_length_c       12.9882
_cell_angle_alpha    105.562
_cell_angle_beta     111.228
_cell_angle_gamma    100.438

_symmetry_space_group_name_H-M    "P 1"
_symmetry_int_tables_number       1

loop_
  _symmetry_equiv_pos_as_xyz
  'x, y, z'

loop_
  _atom_site_label
  _atom_site_occupancy
  _atom_site_fract_x
  _atom_site_fract_y
  _atom_site_fract_z
  _atom_site_thermal_displace_type
  _atom_site_B_iso_or_equiv
  _atom_site_type_symbol
  Cu1      1.0000 0.91219  0.66456  0.56655  Biso   1.000  Cu
  Cu2      1.0000 0.08781  0.33544  0.43345  Biso   1.000  Cu
  O1       1.0000 0.72870  0.67730  0.58210  Biso   1.000  O
  O2       1.0000 0.27130  0.32270  0.41790  Biso   1.000  O
  O3       1.0000 0.86040  0.89240  0.66570  Biso   1.000  O
  O4       1.0000 0.13960  0.10760  0.33430  Biso   1.000  O
  O5       1.0000 0.20590  0.55480  0.54840  Biso   1.000  O
  O6       1.0000 0.79410  0.44520  0.45160  Biso   1.000  O
  O7       1.0000 0.10840  0.72030  0.57480  Biso   1.000  O
  O8       1.0000 0.89160  0.27970  0.42520  Biso   1.000  O
  N1       1.0000 0.00120  0.63760  0.72080  Biso   1.000  N
  N2       1.0000 0.99880  0.36240  0.27920  Biso   1.000  N
  N3       1.0000 0.83840  0.71550  0.42020  Biso   1.000  N
  N4       1.0000 0.16160  0.28450  0.57980  Biso   1.000  N
  C1       1.0000 0.60480  0.83560  0.62120  Biso   1.000  C
  C2       1.0000 0.39520  0.16440  0.37880  Biso   1.000  C
  C3       1.0000 0.47590  0.73940  0.59650  Biso   1.000  C
  C4       1.0000 0.52410  0.26060  0.40350  Biso   1.000  C
  H1       1.0000 0.47250  0.65020  0.57950  Biso   1.000  H
  H2       1.0000 0.52750  0.34980  0.42050  Biso   1.000  H
  C5       1.0000 0.35290  0.77600  0.59720  Biso   1.000  C
  C6       1.0000 0.64710  0.22400  0.40280  Biso   1.000  C
  C7       1.0000 0.36070  0.91020  0.62260  Biso   1.000  C
  C8       1.0000 0.63930  0.08980  0.37740  Biso   1.000  C
  H3       1.0000 0.27950  0.93660  0.62450  Biso   1.000  H
  H4       1.0000 0.72050  0.06340  0.37550  Biso   1.000  H
  C9       1.0000 0.48720  0.00420  0.64480  Biso   1.000  C
  C10      1.0000 0.51280  0.99580  0.35520  Biso   1.000  C
  H5       1.0000 0.49090  0.09340  0.66010  Biso   1.000  H
  H6       1.0000 0.50910  0.90660  0.33990  Biso   1.000  H
  C11      1.0000 0.60610  0.96650  0.64420  Biso   1.000  C
  C12      1.0000 0.39390  0.03350  0.35580  Biso   1.000  C
  H7       1.0000 0.69140  0.03090  0.65990  Biso   1.000  H
  H8       1.0000 0.30860  0.96910  0.34010  Biso   1.000  H
  C13      1.0000 0.74250  0.79980  0.62390  Biso   1.000  C
  C14      1.0000 0.25750  0.20020  0.37610  Biso   1.000  C
  C15      1.0000 0.21230  0.67270  0.57120  Biso   1.000  C
  C16      1.0000 0.78770  0.32730  0.42880  Biso   1.000  C
  C17      1.0000 0.02150  0.72270  0.82170  Biso   1.000  C
  C18      1.0000 0.97850  0.27730  0.17830  Biso   1.000  C
  H9       1.0000 0.99020  0.79750  0.82070  Biso   1.000  H
  H10      1.0000 0.00980  0.20250  0.17930  Biso   1.000  H
  C19      1.0000 0.08580  0.70920  0.92890  Biso   1.000  C
  C20      1.0000 0.91420  0.29080  0.07110  Biso   1.000  C
  H11      1.0000 0.09780  0.77510  0.99720  Biso   1.000  H
  H12      1.0000 0.90220  0.22490  0.00280  Biso   1.000  H
  C21      1.0000 0.13260  0.60170  0.93810  Biso   1.000  C
  C22      1.0000 0.86740  0.39830  0.06190  Biso   1.000  C
  C23      1.0000 0.11050  0.51420  0.83250  Biso   1.000  C
  C24      1.0000 0.88950  0.48580  0.16750  Biso   1.000  C
  H13      1.0000 0.13960  0.43790  0.83030  Biso   1.000  H
  H14      1.0000 0.86040  0.56210  0.16970  Biso   1.000  H
  C25      1.0000 0.04670  0.53530  0.72920  Biso   1.000  C
  C26      1.0000 0.95330  0.46470  0.27080  Biso   1.000  C
  H15      1.0000 0.03480  0.47180  0.65970  Biso   1.000  H
  H16      1.0000 0.96520  0.52820  0.34030  Biso   1.000  H
  C27      1.0000 0.19690  0.58150  0.05240  Biso   1.000  C
  C28      1.0000 0.80310  0.41850  0.94760  Biso   1.000  C
  C29      1.0000 0.21720  0.67100  0.15720  Biso   1.000  C
  C30      1.0000 0.78280  0.32900  0.84280  Biso   1.000  C
  H17      1.0000 0.19140  0.74850  0.15740  Biso   1.000  H
  H18      1.0000 0.80860  0.25150  0.84260  Biso   1.000  H
  C31      1.0000 0.27400  0.65080  0.26170  Biso   1.000  C
  C32      1.0000 0.72600  0.34920  0.73830  Biso   1.000  C
  H19      1.0000 0.28740  0.71550  0.33120  Biso   1.000  H
  H20      1.0000 0.71260  0.28450  0.66880  Biso   1.000  H
  C33      1.0000 0.31040  0.54110  0.26630  Biso   1.000  C
  C34      1.0000 0.68960  0.45890  0.73370  Biso   1.000  C
  H21      1.0000 0.34520  0.52590  0.33700  Biso   1.000  H
  H22      1.0000 0.65480  0.47410  0.66300  Biso   1.000  H
  C35      1.0000 0.29510  0.45250  0.16450  Biso   1.000  C
  C36      1.0000 0.70490  0.54750  0.83550  Biso   1.000  C
  H23      1.0000 0.32290  0.37610  0.16580  Biso   1.000  H
  H24      1.0000 0.67710  0.62390  0.83420  Biso   1.000  H
  C37      1.0000 0.23960  0.47200  0.05920  Biso   1.000  C
  C38      1.0000 0.76040  0.52800  0.94080  Biso   1.000  C
  H25      1.0000 0.23100  0.40870  0.99090  Biso   1.000  H
  H26      1.0000 0.76900  0.59130  0.00910  Biso   1.000  H
  C39      1.0000 0.70150  0.65450  0.33330  Biso   1.000  C
  C40      1.0000 0.29850  0.34550  0.66670  Biso   1.000  C
  H27      1.0000 0.63920  0.58620  0.33970  Biso   1.000  H
  H28      1.0000 0.36080  0.41380  0.66030  Biso   1.000  H
  C41      1.0000 0.64890  0.68830  0.23510  Biso   1.000  C
  C42      1.0000 0.35110  0.31170  0.76490  Biso   1.000  C
  H29      1.0000 0.55300  0.64230  0.17650  Biso   1.000  H
  H30      1.0000 0.44700  0.35770  0.82350  Biso   1.000  H
  C43      1.0000 0.73670  0.79000  0.22210  Biso   1.000  C
  C44      1.0000 0.26330  0.21000  0.77790  Biso   1.000  C
  C45      1.0000 0.87750  0.85570  0.31510  Biso   1.000  C
  C46      1.0000 0.12250  0.14430  0.68490  Biso   1.000  C
  H31      1.0000 0.94070  0.92690  0.31280  Biso   1.000  H
  H32      1.0000 0.05930  0.07310  0.68720  Biso   1.000  H
  C47      1.0000 0.92290  0.81540  0.40980  Biso   1.000  C
  C48      1.0000 0.07710  0.18460  0.59020  Biso   1.000  C
  H33      1.0000 0.01790  0.86020  0.47010  Biso   1.000  H
  H34      1.0000 0.98210  0.13980  0.52990  Biso   1.000  H
  C49      1.0000 0.68810  0.82750  0.11720  Biso   1.000  C
  C50      1.0000 0.31190  0.17250  0.88280  Biso   1.000  C
  C51      1.0000 0.54800  0.78410  0.03640  Biso   1.000  C
  C52      1.0000 0.45200  0.21590  0.96360  Biso   1.000  C
  H35      1.0000 0.47750  0.72980  0.04820  Biso   1.000  H
  H36      1.0000 0.52250  0.27020  0.95180  Biso   1.000  H
  C53      1.0000 0.50210  0.81600  0.93550  Biso   1.000  C
  C54      1.0000 0.49790  0.18400  0.06450  Biso   1.000  C
  H37      1.0000 0.40210  0.78490  0.88340  Biso   1.000  H
  H38      1.0000 0.59790  0.21510  0.11660  Biso   1.000  H
  C55      1.0000 0.59470  0.88790  0.91190  Biso   1.000  C
  C56      1.0000 0.40530  0.11210  0.08810  Biso   1.000  C
  H39      1.0000 0.56100  0.91650  0.84860  Biso   1.000  H
  H40      1.0000 0.43900  0.08350  0.15140  Biso   1.000  H
  C57      1.0000 0.74570  0.92180  0.98290  Biso   1.000  C
  C58      1.0000 0.25430  0.07820  0.01710  Biso   1.000  C
  H41      1.0000 0.81430  0.96210  0.96090  Biso   1.000  H
  H42      1.0000 0.18570  0.03790  0.03910  Biso   1.000  H
  C59      1.0000 0.79440  0.89430  0.08970  Biso   1.000  C
  C60      1.0000 0.20560  0.10570  0.91030  Biso   1.000  C
  H43      1.0000 0.89480  0.92020  0.14000  Biso   1.000  H
  H44      1.0000 0.10520  0.07980  0.86000  Biso   1.000  H
