data_image0
_cell_length_a       7.8407
_cell_length_b       32.422
_cell_length_c       10.3554
_cell_angle_alpha    90
_cell_angle_beta     106.372
_cell_angle_gamma    90

_symmetry_space_group_name_H-M    "P 1"
_symmetry_int_tables_number       1

loop_
  _symmetry_equiv_pos_as_xyz
  'x, y, z'

loop_
  _atom_site_label
  _atom_site_occupancy
  _atom_site_fract_x
  _atom_site_fract_y
  _atom_site_fract_z
  _atom_site_thermal_displace_type
  _atom_site_B_iso_or_equiv
  _atom_site_type_symbol
  Cu1      1.0000 0.83219  0.03633  0.36296  Biso   1.000  Cu
  Cu2      1.0000 0.66781  0.53633  0.13704  Biso   1.000  Cu
  Cu3      1.0000 0.16781  0.96367  0.63704  Biso   1.000  Cu
  Cu4      1.0000 0.33219  0.46367  0.86296  Biso   1.000  Cu
  Cu5      1.0000 0.81143  0.03048  0.64186  Biso   1.000  Cu
  Cu6      1.0000 0.68857  0.53048  0.85814  Biso   1.000  Cu
  Cu7      1.0000 0.18857  0.96952  0.35814  Biso   1.000  Cu
  Cu8      1.0000 0.31143  0.46952  0.14186  Biso   1.000  Cu
  Cu9      1.0000 0.88069  0.09275  0.04757  Biso   1.000  Cu
  Cu10     1.0000 0.61931  0.59275  0.45243  Biso   1.000  Cu
  Cu11     1.0000 0.11931  0.90725  0.95243  Biso   1.000  Cu
  Cu12     1.0000 0.38069  0.40725  0.54757  Biso   1.000  Cu
  O1       1.0000 0.78220  0.99696  0.48660  Biso   1.000  O
  O2       1.0000 0.71780  0.49696  0.01340  Biso   1.000  O
  O3       1.0000 0.21780  0.00304  0.51340  Biso   1.000  O
  O4       1.0000 0.28220  0.50304  0.98660  Biso   1.000  O
  O5       1.0000 0.83530  0.99442  0.23640  Biso   1.000  O
  O6       1.0000 0.66470  0.49442  0.26360  Biso   1.000  O
  O7       1.0000 0.16470  0.00558  0.76360  Biso   1.000  O
  O8       1.0000 0.33530  0.50558  0.73640  Biso   1.000  O
  O9       1.0000 0.74270  0.93770  0.12260  Biso   1.000  O
  O10      1.0000 0.75730  0.43770  0.37740  Biso   1.000  O
  O11      1.0000 0.25730  0.06230  0.87740  Biso   1.000  O
  O12      1.0000 0.24270  0.56230  0.62260  Biso   1.000  O
  O13      1.0000 0.70870  0.99126  0.73240  Biso   1.000  O
  O14      1.0000 0.79130  0.49126  0.76760  Biso   1.000  O
  O15      1.0000 0.29130  0.00874  0.26760  Biso   1.000  O
  O16      1.0000 0.20870  0.50874  0.23240  Biso   1.000  O
  O17      1.0000 0.47720  0.95176  0.72370  Biso   1.000  O
  O18      1.0000 0.02280  0.45176  0.77630  Biso   1.000  O
  O19      1.0000 0.52280  0.04824  0.27630  Biso   1.000  O
  O20      1.0000 0.97720  0.54824  0.22370  Biso   1.000  O
  O21      1.0000 0.88640  0.06827  0.52580  Biso   1.000  O
  O22      1.0000 0.61360  0.56827  0.97420  Biso   1.000  O
  O23      1.0000 0.11360  0.93173  0.47420  Biso   1.000  O
  O24      1.0000 0.38640  0.43173  0.02580  Biso   1.000  O
  O25      1.0000 0.90250  0.07971  0.26420  Biso   1.000  O
  O26      1.0000 0.59750  0.57971  0.23580  Biso   1.000  O
  O27      1.0000 0.09750  0.92029  0.73580  Biso   1.000  O
  O28      1.0000 0.40250  0.42029  0.76420  Biso   1.000  O
  O29      1.0000 0.03300  0.13627  0.23120  Biso   1.000  O
  O30      1.0000 0.46700  0.63627  0.26880  Biso   1.000  O
  O31      1.0000 0.96700  0.86373  0.76880  Biso   1.000  O
  O32      1.0000 0.53300  0.36373  0.73120  Biso   1.000  O
  O33      1.0000 0.84700  0.06887  0.78110  Biso   1.000  O
  O34      1.0000 0.65300  0.56887  0.71890  Biso   1.000  O
  O35      1.0000 0.15300  0.93113  0.21890  Biso   1.000  O
  O36      1.0000 0.34700  0.43113  0.28110  Biso   1.000  O
  O37      1.0000 0.94690  0.12394  0.89980  Biso   1.000  O
  O38      1.0000 0.55310  0.62394  0.60020  Biso   1.000  O
  O39      1.0000 0.05310  0.87606  0.10020  Biso   1.000  O
  O40      1.0000 0.44690  0.37606  0.39980  Biso   1.000  O
  O41      1.0000 0.08720  0.05838  0.06440  Biso   1.000  O
  O42      1.0000 0.41280  0.55838  0.43560  Biso   1.000  O
  O43      1.0000 0.91280  0.94162  0.93560  Biso   1.000  O
  O44      1.0000 0.58720  0.44162  0.56440  Biso   1.000  O
  H1       1.0000 0.13800  0.05800  0.00200  Biso   1.000  H
  H2       1.0000 0.36200  0.55800  0.49800  Biso   1.000  H
  H3       1.0000 0.86200  0.94200  0.99800  Biso   1.000  H
  H4       1.0000 0.63800  0.44200  0.50200  Biso   1.000  H
  H5       1.0000 0.13800  0.04220  0.12700  Biso   1.000  H
  H6       1.0000 0.36200  0.54220  0.37300  Biso   1.000  H
  H7       1.0000 0.86200  0.95780  0.87300  Biso   1.000  H
  H8       1.0000 0.63800  0.45780  0.62700  Biso   1.000  H
  O45      1.0000 0.70320  0.04100  0.99670  Biso   1.000  O
  O46      1.0000 0.79680  0.54100  0.50330  Biso   1.000  O
  O47      1.0000 0.29680  0.95900  0.00330  Biso   1.000  O
  O48      1.0000 0.20320  0.45900  0.49670  Biso   1.000  O
  H9       1.0000 0.71700  0.02210  0.05500  Biso   1.000  H
  H10      1.0000 0.78300  0.52210  0.44500  Biso   1.000  H
  H11      1.0000 0.28300  0.97790  0.94500  Biso   1.000  H
  H12      1.0000 0.21700  0.47790  0.55500  Biso   1.000  H
  H13      1.0000 0.69300  0.03080  0.92010  Biso   1.000  H
  H14      1.0000 0.80700  0.53080  0.57990  Biso   1.000  H
  H15      1.0000 0.30700  0.96920  0.07990  Biso   1.000  H
  H16      1.0000 0.19300  0.46920  0.42010  Biso   1.000  H
  N1       1.0000 0.67930  0.13163  0.03350  Biso   1.000  N
  N2       1.0000 0.82070  0.63163  0.46650  Biso   1.000  N
  N3       1.0000 0.32070  0.86837  0.96650  Biso   1.000  N
  N4       1.0000 0.17930  0.36837  0.53350  Biso   1.000  N
  C1       1.0000 0.69000  0.96187  0.45530  Biso   1.000  C
  C2       1.0000 0.81000  0.46187  0.04470  Biso   1.000  C
  C3       1.0000 0.31000  0.03813  0.54470  Biso   1.000  C
  C4       1.0000 0.19000  0.53813  0.95530  Biso   1.000  C
  C5       1.0000 0.60430  0.94372  0.54410  Biso   1.000  C
  C6       1.0000 0.89570  0.44372  0.95590  Biso   1.000  C
  C7       1.0000 0.39570  0.05628  0.45590  Biso   1.000  C
  C8       1.0000 0.10430  0.55628  0.04410  Biso   1.000  C
  C9       1.0000 0.52040  0.90579  0.51050  Biso   1.000  C
  C10      1.0000 0.97960  0.40579  0.98950  Biso   1.000  C
  C11      1.0000 0.47960  0.09421  0.48950  Biso   1.000  C
  C12      1.0000 0.02040  0.59421  0.01050  Biso   1.000  C
  H17      1.0000 0.46610  0.89350  0.56980  Biso   1.000  H
  H18      1.0000 0.03390  0.39350  0.93020  Biso   1.000  H
  H19      1.0000 0.53390  0.10650  0.43020  Biso   1.000  H
  H20      1.0000 0.96610  0.60650  0.06980  Biso   1.000  H
  C13      1.0000 0.51560  0.88617  0.39260  Biso   1.000  C
  C14      1.0000 0.98440  0.38617  0.10740  Biso   1.000  C
  C15      1.0000 0.48440  0.11383  0.60740  Biso   1.000  C
  C16      1.0000 0.01560  0.61383  0.89260  Biso   1.000  C
  H21      1.0000 0.46120  0.86050  0.37340  Biso   1.000  H
  H22      1.0000 0.03880  0.36050  0.12660  Biso   1.000  H
  H23      1.0000 0.53880  0.13950  0.62660  Biso   1.000  H
  H24      1.0000 0.96120  0.63950  0.87340  Biso   1.000  H
  C17      1.0000 0.59170  0.90457  0.30270  Biso   1.000  C
  C18      1.0000 0.90830  0.40457  0.19730  Biso   1.000  C
  C19      1.0000 0.40830  0.09543  0.69730  Biso   1.000  C
  C20      1.0000 0.09170  0.59543  0.80270  Biso   1.000  C
  H25      1.0000 0.58490  0.89140  0.22160  Biso   1.000  H
  H26      1.0000 0.91510  0.39140  0.27840  Biso   1.000  H
  H27      1.0000 0.41510  0.10860  0.77840  Biso   1.000  H
  H28      1.0000 0.08490  0.60860  0.72160  Biso   1.000  H
  C21      1.0000 0.67820  0.94219  0.33000  Biso   1.000  C
  C22      1.0000 0.82180  0.44219  0.17000  Biso   1.000  C
  C23      1.0000 0.32180  0.05781  0.67000  Biso   1.000  C
  C24      1.0000 0.17820  0.55781  0.83000  Biso   1.000  C
  C25      1.0000 0.59370  0.96346  0.67320  Biso   1.000  C
  C26      1.0000 0.90630  0.46346  0.82680  Biso   1.000  C
  C27      1.0000 0.40630  0.03654  0.32680  Biso   1.000  C
  C28      1.0000 0.09370  0.53654  0.17320  Biso   1.000  C
  C29      1.0000 0.75520  0.95900  0.22360  Biso   1.000  C
  C30      1.0000 0.74480  0.45900  0.27640  Biso   1.000  C
  C31      1.0000 0.24480  0.04100  0.77640  Biso   1.000  C
  C32      1.0000 0.25520  0.54100  0.72360  Biso   1.000  C
  C33      1.0000 0.94480  0.10696  0.54930  Biso   1.000  C
  C34      1.0000 0.55520  0.60696  0.95070  Biso   1.000  C
  C35      1.0000 0.05520  0.89304  0.45070  Biso   1.000  C
  C36      1.0000 0.44480  0.39304  0.04930  Biso   1.000  C
  C37      1.0000 0.96230  0.12559  0.67520  Biso   1.000  C
  C38      1.0000 0.53770  0.62559  0.82480  Biso   1.000  C
  C39      1.0000 0.03770  0.87441  0.32480  Biso   1.000  C
  C40      1.0000 0.46230  0.37441  0.17520  Biso   1.000  C
  C41      1.0000 0.02800  0.16543  0.69810  Biso   1.000  C
  C42      1.0000 0.47200  0.66543  0.80190  Biso   1.000  C
  C43      1.0000 0.97200  0.83457  0.30190  Biso   1.000  C
  C44      1.0000 0.52800  0.33457  0.19810  Biso   1.000  C
  H29      1.0000 0.03980  0.17760  0.78150  Biso   1.000  H
  H30      1.0000 0.46020  0.67760  0.71850  Biso   1.000  H
  H31      1.0000 0.96020  0.82240  0.21850  Biso   1.000  H
  H32      1.0000 0.53980  0.32240  0.28150  Biso   1.000  H
  C45      1.0000 0.07620  0.18743  0.60050  Biso   1.000  C
  C46      1.0000 0.42380  0.68743  0.89950  Biso   1.000  C
  C47      1.0000 0.92380  0.81257  0.39950  Biso   1.000  C
  C48      1.0000 0.57620  0.31257  0.10050  Biso   1.000  C
  H33      1.0000 0.11990  0.21420  0.61750  Biso   1.000  H
  H34      1.0000 0.38010  0.71420  0.88250  Biso   1.000  H
  H35      1.0000 0.88010  0.78580  0.38250  Biso   1.000  H
  H36      1.0000 0.61990  0.28580  0.11750  Biso   1.000  H
  C49      1.0000 0.05910  0.16936  0.47710  Biso   1.000  C
  C50      1.0000 0.44090  0.66936  0.02290  Biso   1.000  C
  C51      1.0000 0.94090  0.83064  0.52290  Biso   1.000  C
  C52      1.0000 0.55910  0.33064  0.97710  Biso   1.000  C
  H37      1.0000 0.09230  0.18420  0.41120  Biso   1.000  H
  H38      1.0000 0.40770  0.68420  0.08880  Biso   1.000  H
  H39      1.0000 0.90770  0.81580  0.58880  Biso   1.000  H
  H40      1.0000 0.59230  0.31580  0.91120  Biso   1.000  H
  C53      1.0000 0.99350  0.12950  0.44850  Biso   1.000  C
  C54      1.0000 0.50650  0.62950  0.05150  Biso   1.000  C
  C55      1.0000 0.00650  0.87050  0.55150  Biso   1.000  C
  C56      1.0000 0.49350  0.37050  0.94850  Biso   1.000  C
  C57      1.0000 0.97930  0.11453  0.30890  Biso   1.000  C
  C58      1.0000 0.52070  0.61453  0.19110  Biso   1.000  C
  C59      1.0000 0.02070  0.88547  0.69110  Biso   1.000  C
  C60      1.0000 0.47930  0.38547  0.80890  Biso   1.000  C
  C61      1.0000 0.91540  0.10454  0.79010  Biso   1.000  C
  C62      1.0000 0.58460  0.60454  0.70990  Biso   1.000  C
  C63      1.0000 0.08460  0.89546  0.20990  Biso   1.000  C
  C64      1.0000 0.41540  0.39546  0.29010  Biso   1.000  C
  C65      1.0000 0.53160  0.12159  0.06680  Biso   1.000  C
  C66      1.0000 0.96840  0.62159  0.43320  Biso   1.000  C
  C67      1.0000 0.46840  0.87841  0.93320  Biso   1.000  C
  C68      1.0000 0.03160  0.37841  0.56680  Biso   1.000  C
  H41      1.0000 0.52040  0.09490  0.09600  Biso   1.000  H
  H42      1.0000 0.97960  0.59490  0.40400  Biso   1.000  H
  H43      1.0000 0.47960  0.90510  0.90400  Biso   1.000  H
  H44      1.0000 0.02040  0.40510  0.59600  Biso   1.000  H
  C69      1.0000 0.39530  0.14916  0.05990  Biso   1.000  C
  C70      1.0000 0.10470  0.64916  0.44010  Biso   1.000  C
  C71      1.0000 0.60470  0.85084  0.94010  Biso   1.000  C
  C72      1.0000 0.89530  0.35084  0.55990  Biso   1.000  C
  H45      1.0000 0.29530  0.14100  0.08470  Biso   1.000  H
  H46      1.0000 0.20470  0.64100  0.41530  Biso   1.000  H
  H47      1.0000 0.70470  0.85900  0.91530  Biso   1.000  H
  H48      1.0000 0.79530  0.35900  0.58470  Biso   1.000  H
  C73      1.0000 0.40770  0.18938  0.01550  Biso   1.000  C
  C74      1.0000 0.09230  0.68938  0.48450  Biso   1.000  C
  C75      1.0000 0.59230  0.81062  0.98450  Biso   1.000  C
  C76      1.0000 0.90770  0.31062  0.51550  Biso   1.000  C
  C77      1.0000 0.56240  0.19913  0.98160  Biso   1.000  C
  C78      1.0000 0.93760  0.69913  0.51840  Biso   1.000  C
  C79      1.0000 0.43760  0.80087  0.01840  Biso   1.000  C
  C80      1.0000 0.06240  0.30087  0.48160  Biso   1.000  C
  H49      1.0000 0.57740  0.22560  0.95180  Biso   1.000  H
  H50      1.0000 0.92260  0.72560  0.54820  Biso   1.000  H
  H51      1.0000 0.42260  0.77440  0.04820  Biso   1.000  H
  H52      1.0000 0.07740  0.27440  0.45180  Biso   1.000  H
  C81      1.0000 0.69210  0.17035  0.99160  Biso   1.000  C
  C82      1.0000 0.80790  0.67035  0.50840  Biso   1.000  C
  C83      1.0000 0.30790  0.82965  0.00840  Biso   1.000  C
  C84      1.0000 0.19210  0.32965  0.49160  Biso   1.000  C
  H53      1.0000 0.79400  0.17790  0.96830  Biso   1.000  H
  H54      1.0000 0.70600  0.67790  0.53170  Biso   1.000  H
  H55      1.0000 0.20600  0.82210  0.03170  Biso   1.000  H
  H56      1.0000 0.29400  0.32210  0.46830  Biso   1.000  H
  C85      1.0000 0.26570  0.22060  0.00570  Biso   1.000  C
  C86      1.0000 0.23430  0.72060  0.49430  Biso   1.000  C
  C87      1.0000 0.73430  0.77940  0.99430  Biso   1.000  C
  C88      1.0000 0.76570  0.27940  0.50570  Biso   1.000  C
  C89      1.0000 0.15920  0.21960  0.09270  Biso   1.000  C
  C90      1.0000 0.34080  0.71960  0.40730  Biso   1.000  C
  C91      1.0000 0.84080  0.78040  0.90730  Biso   1.000  C
  C92      1.0000 0.65920  0.28040  0.59270  Biso   1.000  C
  H57      1.0000 0.17460  0.19900  0.15730  Biso   1.000  H
  H58      1.0000 0.32540  0.69900  0.34270  Biso   1.000  H
  H59      1.0000 0.82540  0.80100  0.84270  Biso   1.000  H
  H60      1.0000 0.67460  0.30100  0.65730  Biso   1.000  H
  C93      1.0000 0.03120  0.24930  0.08250  Biso   1.000  C
  C94      1.0000 0.46880  0.74930  0.41750  Biso   1.000  C
  C95      1.0000 0.96880  0.75070  0.91750  Biso   1.000  C
  C96      1.0000 0.53120  0.25070  0.58250  Biso   1.000  C
  H61      1.0000 0.96240  0.24890  0.14240  Biso   1.000  H
  H62      1.0000 0.53760  0.74890  0.35760  Biso   1.000  H
  H63      1.0000 0.03760  0.75110  0.85760  Biso   1.000  H
  H64      1.0000 0.46240  0.25110  0.64240  Biso   1.000  H
  C97      1.0000 0.00260  0.27930  0.98660  Biso   1.000  C
  C98      1.0000 0.49740  0.77930  0.51340  Biso   1.000  C
  C99      1.0000 0.99740  0.72070  0.01340  Biso   1.000  C
  C100     1.0000 0.50260  0.22070  0.48660  Biso   1.000  C
  H65      1.0000 0.91510  0.29910  0.98130  Biso   1.000  H
  H66      1.0000 0.58490  0.79910  0.51870  Biso   1.000  H
  H67      1.0000 0.08490  0.70090  0.01870  Biso   1.000  H
  H68      1.0000 0.41510  0.20090  0.48130  Biso   1.000  H
  C101     1.0000 0.10380  0.28019  0.89760  Biso   1.000  C
  C102     1.0000 0.39620  0.78019  0.60240  Biso   1.000  C
  C103     1.0000 0.89620  0.71981  0.10240  Biso   1.000  C
  C104     1.0000 0.60380  0.21981  0.39760  Biso   1.000  C
  H69      1.0000 0.08300  0.30010  0.83030  Biso   1.000  H
  H70      1.0000 0.41700  0.80010  0.66970  Biso   1.000  H
  H71      1.0000 0.91700  0.69990  0.16970  Biso   1.000  H
  H72      1.0000 0.58300  0.19990  0.33030  Biso   1.000  H
  C105     1.0000 0.23610  0.25135  0.90870  Biso   1.000  C
  C106     1.0000 0.26390  0.75135  0.59130  Biso   1.000  C
  C107     1.0000 0.76390  0.74865  0.09130  Biso   1.000  C
  C108     1.0000 0.73610  0.24865  0.40870  Biso   1.000  C
  H73      1.0000 0.30690  0.25250  0.85020  Biso   1.000  H
  H74      1.0000 0.19310  0.75250  0.64980  Biso   1.000  H
  H75      1.0000 0.69310  0.74750  0.14980  Biso   1.000  H
  H76      1.0000 0.80690  0.24750  0.35020  Biso   1.000  H
