data_image0
_cell_length_a       6.8274
_cell_length_b       12.1367
_cell_length_c       21.808
_cell_angle_alpha    90
_cell_angle_beta     90
_cell_angle_gamma    90

_symmetry_space_group_name_H-M    "P 1"
_symmetry_int_tables_number       1

loop_
  _symmetry_equiv_pos_as_xyz
  'x, y, z'

loop_
  _atom_site_label
  _atom_site_occupancy
  _atom_site_fract_x
  _atom_site_fract_y
  _atom_site_fract_z
  _atom_site_thermal_displace_type
  _atom_site_B_iso_or_equiv
  _atom_site_type_symbol
  Cu1      1.0000 0.52713  0.04897  0.56209  Biso   1.000  Cu
  Cu2      1.0000 0.97287  0.45103  0.06209  Biso   1.000  Cu
  Cu3      1.0000 0.52713  0.95103  0.93791  Biso   1.000  Cu
  Cu4      1.0000 0.97287  0.54897  0.43791  Biso   1.000  Cu
  Cu5      1.0000 0.47287  0.95103  0.43791  Biso   1.000  Cu
  Cu6      1.0000 0.02713  0.54897  0.93791  Biso   1.000  Cu
  Cu7      1.0000 0.47287  0.04897  0.06209  Biso   1.000  Cu
  Cu8      1.0000 0.02713  0.45103  0.56209  Biso   1.000  Cu
  Cu9      1.0000 0.99255  0.50000  0.25000  Biso   1.000  Cu
  Cu10     1.0000 0.50745  0.00000  0.75000  Biso   1.000  Cu
  Cu11     1.0000 0.00745  0.50000  0.75000  Biso   1.000  Cu
  Cu12     1.0000 0.49255  0.00000  0.25000  Biso   1.000  Cu
  O1       1.0000 0.26370  0.15600  0.58524  Biso   1.000  O
  O2       1.0000 0.23630  0.34400  0.08524  Biso   1.000  O
  O3       1.0000 0.26370  0.84400  0.91476  Biso   1.000  O
  O4       1.0000 0.23630  0.65600  0.41476  Biso   1.000  O
  O5       1.0000 0.73630  0.84400  0.41476  Biso   1.000  O
  O6       1.0000 0.76370  0.65600  0.91476  Biso   1.000  O
  O7       1.0000 0.73630  0.15600  0.08524  Biso   1.000  O
  O8       1.0000 0.76370  0.34400  0.58524  Biso   1.000  O
  O9       1.0000 0.18880  0.33140  0.58834  Biso   1.000  O
  O10      1.0000 0.31120  0.16860  0.08834  Biso   1.000  O
  O11      1.0000 0.18880  0.66860  0.91166  Biso   1.000  O
  O12      1.0000 0.31120  0.83140  0.41166  Biso   1.000  O
  O13      1.0000 0.81120  0.66860  0.41166  Biso   1.000  O
  O14      1.0000 0.68880  0.83140  0.91166  Biso   1.000  O
  O15      1.0000 0.81120  0.33140  0.08834  Biso   1.000  O
  O16      1.0000 0.68880  0.16860  0.58834  Biso   1.000  O
  O17      1.0000 0.07850  0.41850  0.47620  Biso   1.000  O
  O18      1.0000 0.42150  0.08150  0.97620  Biso   1.000  O
  O19      1.0000 0.07850  0.58150  0.02380  Biso   1.000  O
  O20      1.0000 0.42150  0.91850  0.52380  Biso   1.000  O
  O21      1.0000 0.92150  0.58150  0.52380  Biso   1.000  O
  O22      1.0000 0.57850  0.91850  0.02380  Biso   1.000  O
  O23      1.0000 0.92150  0.41850  0.97620  Biso   1.000  O
  O24      1.0000 0.57850  0.08150  0.47620  Biso   1.000  O
  O25      1.0000 0.99270  0.48220  0.35814  Biso   1.000  O
  O26      1.0000 0.50730  0.01780  0.85814  Biso   1.000  O
  O27      1.0000 0.99270  0.51780  0.14186  Biso   1.000  O
  O28      1.0000 0.50730  0.98220  0.64186  Biso   1.000  O
  O29      1.0000 0.00730  0.51780  0.64186  Biso   1.000  O
  O30      1.0000 0.49270  0.98220  0.14186  Biso   1.000  O
  O31      1.0000 0.00730  0.48220  0.85814  Biso   1.000  O
  O32      1.0000 0.49270  0.01780  0.35814  Biso   1.000  O
  O33      1.0000 0.99800  0.35190  0.29001  Biso   1.000  O
  O34      1.0000 0.50200  0.14810  0.79001  Biso   1.000  O
  O35      1.0000 0.99800  0.64810  0.20999  Biso   1.000  O
  O36      1.0000 0.50200  0.85190  0.70999  Biso   1.000  O
  O37      1.0000 0.00200  0.64810  0.70999  Biso   1.000  O
  O38      1.0000 0.49800  0.85190  0.20999  Biso   1.000  O
  O39      1.0000 0.00200  0.35190  0.79001  Biso   1.000  O
  O40      1.0000 0.49800  0.14810  0.29001  Biso   1.000  O
  N1       1.0000 0.29020  0.50000  0.25000  Biso   1.000  N
  N2       1.0000 0.20980  0.00000  0.75000  Biso   1.000  N
  N3       1.0000 0.70980  0.50000  0.75000  Biso   1.000  N
  N4       1.0000 0.79020  0.00000  0.25000  Biso   1.000  N
  N5       1.0000 0.69570  0.50000  0.25000  Biso   1.000  N
  N6       1.0000 0.80430  0.00000  0.75000  Biso   1.000  N
  N7       1.0000 0.30430  0.50000  0.75000  Biso   1.000  N
  N8       1.0000 0.19570  0.00000  0.25000  Biso   1.000  N
  C1       1.0000 0.12020  0.77280  0.00500  Biso   1.000  C
  C2       1.0000 0.37980  0.72720  0.50500  Biso   1.000  C
  C3       1.0000 0.12020  0.22720  0.49500  Biso   1.000  C
  C4       1.0000 0.37980  0.27280  0.99500  Biso   1.000  C
  C5       1.0000 0.87980  0.22720  0.99500  Biso   1.000  C
  C6       1.0000 0.62020  0.27280  0.49500  Biso   1.000  C
  C7       1.0000 0.87980  0.77280  0.50500  Biso   1.000  C
  C8       1.0000 0.62020  0.72720  0.00500  Biso   1.000  C
  C9       1.0000 0.10000  0.88010  0.02670  Biso   1.000  C
  C10      1.0000 0.40000  0.61990  0.52670  Biso   1.000  C
  C11      1.0000 0.10000  0.11990  0.47330  Biso   1.000  C
  C12      1.0000 0.40000  0.38010  0.97330  Biso   1.000  C
  C13      1.0000 0.90000  0.11990  0.97330  Biso   1.000  C
  C14      1.0000 0.60000  0.38010  0.47330  Biso   1.000  C
  C15      1.0000 0.90000  0.88010  0.52670  Biso   1.000  C
  C16      1.0000 0.60000  0.61990  0.02670  Biso   1.000  C
  H1       1.0000 0.12630  0.93840  0.00020  Biso   1.000  H
  H2       1.0000 0.37370  0.56160  0.50020  Biso   1.000  H
  H3       1.0000 0.12630  0.06160  0.49980  Biso   1.000  H
  H4       1.0000 0.37370  0.43840  0.99980  Biso   1.000  H
  H5       1.0000 0.87370  0.06160  0.99980  Biso   1.000  H
  H6       1.0000 0.62630  0.43840  0.49980  Biso   1.000  H
  H7       1.0000 0.87370  0.93840  0.50020  Biso   1.000  H
  H8       1.0000 0.62630  0.56160  0.00020  Biso   1.000  H
  C17      1.0000 0.04190  0.90340  0.08640  Biso   1.000  C
  C18      1.0000 0.45810  0.59660  0.58640  Biso   1.000  C
  C19      1.0000 0.04190  0.09660  0.41360  Biso   1.000  C
  C20      1.0000 0.45810  0.40340  0.91360  Biso   1.000  C
  C21      1.0000 0.95810  0.09660  0.91360  Biso   1.000  C
  C22      1.0000 0.54190  0.40340  0.41360  Biso   1.000  C
  C23      1.0000 0.95810  0.90340  0.58640  Biso   1.000  C
  C24      1.0000 0.54190  0.59660  0.08640  Biso   1.000  C
  H9       1.0000 0.02270  0.97580  0.09910  Biso   1.000  H
  H10      1.0000 0.47730  0.52420  0.59910  Biso   1.000  H
  H11      1.0000 0.02270  0.02420  0.40090  Biso   1.000  H
  H12      1.0000 0.47730  0.47580  0.90090  Biso   1.000  H
  H13      1.0000 0.97730  0.02420  0.90090  Biso   1.000  H
  H14      1.0000 0.52270  0.47580  0.40090  Biso   1.000  H
  H15      1.0000 0.97730  0.97580  0.59910  Biso   1.000  H
  H16      1.0000 0.52270  0.52420  0.09910  Biso   1.000  H
  C25      1.0000 0.01320  0.81650  0.12670  Biso   1.000  C
  C26      1.0000 0.48680  0.68350  0.62670  Biso   1.000  C
  C27      1.0000 0.01320  0.18350  0.37330  Biso   1.000  C
  C28      1.0000 0.48680  0.31650  0.87330  Biso   1.000  C
  C29      1.0000 0.98680  0.18350  0.87330  Biso   1.000  C
  C30      1.0000 0.51320  0.31650  0.37330  Biso   1.000  C
  C31      1.0000 0.98680  0.81650  0.62670  Biso   1.000  C
  C32      1.0000 0.51320  0.68350  0.12670  Biso   1.000  C
  H17      1.0000 0.98270  0.83130  0.16750  Biso   1.000  H
  H18      1.0000 0.51730  0.66870  0.66750  Biso   1.000  H
  H19      1.0000 0.98270  0.16870  0.33250  Biso   1.000  H
  H20      1.0000 0.51730  0.33130  0.83250  Biso   1.000  H
  H21      1.0000 0.01730  0.16870  0.83250  Biso   1.000  H
  H22      1.0000 0.48270  0.33130  0.33250  Biso   1.000  H
  H23      1.0000 0.01730  0.83130  0.66750  Biso   1.000  H
  H24      1.0000 0.48270  0.66870  0.16750  Biso   1.000  H
  C33      1.0000 0.02920  0.70710  0.10730  Biso   1.000  C
  C34      1.0000 0.47080  0.79290  0.60730  Biso   1.000  C
  C35      1.0000 0.02920  0.29290  0.39270  Biso   1.000  C
  C36      1.0000 0.47080  0.20710  0.89270  Biso   1.000  C
  C37      1.0000 0.97080  0.29290  0.89270  Biso   1.000  C
  C38      1.0000 0.52920  0.20710  0.39270  Biso   1.000  C
  C39      1.0000 0.97080  0.70710  0.60730  Biso   1.000  C
  C40      1.0000 0.52920  0.79290  0.10730  Biso   1.000  C
  C41      1.0000 0.07590  0.68480  0.04490  Biso   1.000  C
  C42      1.0000 0.42410  0.81520  0.54490  Biso   1.000  C
  C43      1.0000 0.07590  0.31520  0.45510  Biso   1.000  C
  C44      1.0000 0.42410  0.18480  0.95510  Biso   1.000  C
  C45      1.0000 0.92410  0.31520  0.95510  Biso   1.000  C
  C46      1.0000 0.57590  0.18480  0.45510  Biso   1.000  C
  C47      1.0000 0.92410  0.68480  0.54490  Biso   1.000  C
  C48      1.0000 0.57590  0.81520  0.04490  Biso   1.000  C
  C49      1.0000 0.19380  0.23870  0.56000  Biso   1.000  C
  C50      1.0000 0.30620  0.26130  0.06000  Biso   1.000  C
  C51      1.0000 0.19380  0.76130  0.94000  Biso   1.000  C
  C52      1.0000 0.30620  0.73870  0.44000  Biso   1.000  C
  C53      1.0000 0.80620  0.76130  0.44000  Biso   1.000  C
  C54      1.0000 0.69380  0.73870  0.94000  Biso   1.000  C
  C55      1.0000 0.80620  0.23870  0.06000  Biso   1.000  C
  C56      1.0000 0.69380  0.26130  0.56000  Biso   1.000  C
  C57      1.0000 0.00370  0.38000  0.34590  Biso   1.000  C
  C58      1.0000 0.49630  0.12000  0.84590  Biso   1.000  C
  C59      1.0000 0.00370  0.62000  0.15410  Biso   1.000  C
  C60      1.0000 0.49630  0.88000  0.65410  Biso   1.000  C
  C61      1.0000 0.99630  0.62000  0.65410  Biso   1.000  C
  C62      1.0000 0.50370  0.88000  0.15410  Biso   1.000  C
  C63      1.0000 0.99630  0.38000  0.84590  Biso   1.000  C
  C64      1.0000 0.50370  0.12000  0.34590  Biso   1.000  C
  C65      1.0000 0.39130  0.43050  0.21450  Biso   1.000  C
  C66      1.0000 0.10870  0.06950  0.71450  Biso   1.000  C
  C67      1.0000 0.39130  0.56950  0.28550  Biso   1.000  C
  C68      1.0000 0.10870  0.93050  0.78550  Biso   1.000  C
  C69      1.0000 0.60870  0.56950  0.78550  Biso   1.000  C
  C70      1.0000 0.89130  0.93050  0.28550  Biso   1.000  C
  C71      1.0000 0.60870  0.43050  0.71450  Biso   1.000  C
  C72      1.0000 0.89130  0.06950  0.21450  Biso   1.000  C
  H25      1.0000 0.32440  0.38140  0.18920  Biso   1.000  H
  H26      1.0000 0.17560  0.11860  0.68920  Biso   1.000  H
  H27      1.0000 0.32440  0.61860  0.31080  Biso   1.000  H
  H28      1.0000 0.17560  0.88140  0.81080  Biso   1.000  H
  H29      1.0000 0.67560  0.61860  0.81080  Biso   1.000  H
  H30      1.0000 0.82440  0.88140  0.31080  Biso   1.000  H
  H31      1.0000 0.67560  0.38140  0.68920  Biso   1.000  H
  H32      1.0000 0.82440  0.11860  0.18920  Biso   1.000  H
  C73      1.0000 0.59480  0.43050  0.21470  Biso   1.000  C
  C74      1.0000 0.90520  0.06950  0.71470  Biso   1.000  C
  C75      1.0000 0.59480  0.56950  0.28530  Biso   1.000  C
  C76      1.0000 0.90520  0.93050  0.78530  Biso   1.000  C
  C77      1.0000 0.40520  0.56950  0.78530  Biso   1.000  C
  C78      1.0000 0.09480  0.93050  0.28530  Biso   1.000  C
  C79      1.0000 0.40520  0.43050  0.71470  Biso   1.000  C
  C80      1.0000 0.09480  0.06950  0.21470  Biso   1.000  C
  H33      1.0000 0.66190  0.61880  0.31030  Biso   1.000  H
  H34      1.0000 0.83810  0.88120  0.81030  Biso   1.000  H
  H35      1.0000 0.66190  0.38120  0.18970  Biso   1.000  H
  H36      1.0000 0.83810  0.11880  0.68970  Biso   1.000  H
  H37      1.0000 0.33810  0.38120  0.68970  Biso   1.000  H
  H38      1.0000 0.16190  0.11880  0.18970  Biso   1.000  H
  H39      1.0000 0.33810  0.61880  0.81030  Biso   1.000  H
  H40      1.0000 0.16190  0.88120  0.31030  Biso   1.000  H
