data_image0
_cell_length_a       22.7841
_cell_length_b       22.7841
_cell_length_c       15.297
_cell_angle_alpha    90
_cell_angle_beta     90
_cell_angle_gamma    90

_symmetry_space_group_name_H-M    "P 1"
_symmetry_int_tables_number       1

loop_
  _symmetry_equiv_pos_as_xyz
  'x, y, z'

loop_
  _atom_site_label
  _atom_site_occupancy
  _atom_site_fract_x
  _atom_site_fract_y
  _atom_site_fract_z
  _atom_site_thermal_displace_type
  _atom_site_B_iso_or_equiv
  _atom_site_type_symbol
  Cu1      1.0000 0.32046  0.43845  0.43776  Biso   1.000  Cu
  Cu2      1.0000 0.17954  0.06155  0.43776  Biso   1.000  Cu
  Cu3      1.0000 0.56155  0.82046  0.93776  Biso   1.000  Cu
  Cu4      1.0000 0.93845  0.67954  0.93776  Biso   1.000  Cu
  Cu5      1.0000 0.67954  0.56155  0.56224  Biso   1.000  Cu
  Cu6      1.0000 0.82046  0.93845  0.56224  Biso   1.000  Cu
  Cu7      1.0000 0.43845  0.17954  0.06224  Biso   1.000  Cu
  Cu8      1.0000 0.06155  0.32046  0.06224  Biso   1.000  Cu
  N1       1.0000 0.55790  0.60000  0.12650  Biso   1.000  N
  N2       1.0000 0.94210  0.90000  0.12650  Biso   1.000  N
  N3       1.0000 0.40000  0.05790  0.62650  Biso   1.000  N
  N4       1.0000 0.10000  0.44210  0.62650  Biso   1.000  N
  N5       1.0000 0.44210  0.40000  0.87350  Biso   1.000  N
  N6       1.0000 0.05790  0.10000  0.87350  Biso   1.000  N
  N7       1.0000 0.60000  0.94210  0.37350  Biso   1.000  N
  N8       1.0000 0.90000  0.55790  0.37350  Biso   1.000  N
  N9       1.0000 0.50160  0.57930  0.10580  Biso   1.000  N
  N10      1.0000 0.99840  0.92070  0.10580  Biso   1.000  N
  N11      1.0000 0.42070  0.00160  0.60580  Biso   1.000  N
  N12      1.0000 0.07930  0.49840  0.60580  Biso   1.000  N
  N13      1.0000 0.49840  0.42070  0.89420  Biso   1.000  N
  N14      1.0000 0.00160  0.07930  0.89420  Biso   1.000  N
  N15      1.0000 0.57930  0.99840  0.39420  Biso   1.000  N
  N16      1.0000 0.92070  0.50160  0.39420  Biso   1.000  N
  N17      1.0000 0.31460  0.51790  0.37780  Biso   1.000  N
  N18      1.0000 0.18540  0.98210  0.37780  Biso   1.000  N
  N19      1.0000 0.48210  0.81460  0.87780  Biso   1.000  N
  N20      1.0000 0.01790  0.68540  0.87780  Biso   1.000  N
  N21      1.0000 0.68540  0.48210  0.62220  Biso   1.000  N
  N22      1.0000 0.81460  0.01790  0.62220  Biso   1.000  N
  N23      1.0000 0.51790  0.18540  0.12220  Biso   1.000  N
  N24      1.0000 0.98210  0.31460  0.12220  Biso   1.000  N
  N25      1.0000 0.65586  0.63560  0.49560  Biso   1.000  N
  N26      1.0000 0.84414  0.86440  0.49560  Biso   1.000  N
  N27      1.0000 0.36440  0.15586  0.99560  Biso   1.000  N
  N28      1.0000 0.13560  0.34414  0.99560  Biso   1.000  N
  N29      1.0000 0.34414  0.36440  0.50440  Biso   1.000  N
  N30      1.0000 0.15586  0.13560  0.50440  Biso   1.000  N
  N31      1.0000 0.63560  0.84414  0.00440  Biso   1.000  N
  N32      1.0000 0.86440  0.65586  0.00440  Biso   1.000  N
  N33      1.0000 0.59430  0.72610  0.89310  Biso   1.000  N
  N34      1.0000 0.90570  0.77390  0.89310  Biso   1.000  N
  N35      1.0000 0.27390  0.09430  0.39310  Biso   1.000  N
  N36      1.0000 0.22610  0.40570  0.39310  Biso   1.000  N
  N37      1.0000 0.40570  0.27390  0.10690  Biso   1.000  N
  N38      1.0000 0.09430  0.22610  0.10690  Biso   1.000  N
  N39      1.0000 0.72610  0.90570  0.60690  Biso   1.000  N
  N40      1.0000 0.77390  0.59430  0.60690  Biso   1.000  N
  N41      1.0000 0.24250  0.50960  0.80070  Biso   1.000  N
  N42      1.0000 0.25750  0.99040  0.80070  Biso   1.000  N
  N43      1.0000 0.49040  0.74250  0.30070  Biso   1.000  N
  N44      1.0000 0.00960  0.75750  0.30070  Biso   1.000  N
  N45      1.0000 0.75750  0.49040  0.19930  Biso   1.000  N
  N46      1.0000 0.74250  0.00960  0.19930  Biso   1.000  N
  N47      1.0000 0.50960  0.25750  0.69930  Biso   1.000  N
  N48      1.0000 0.99040  0.24250  0.69930  Biso   1.000  N
  C1       1.0000 0.56260  0.59760  0.21030  Biso   1.000  C
  C2       1.0000 0.93740  0.90240  0.21030  Biso   1.000  C
  C3       1.0000 0.40240  0.06260  0.71030  Biso   1.000  C
  C4       1.0000 0.09760  0.43740  0.71030  Biso   1.000  C
  C5       1.0000 0.43740  0.40240  0.78970  Biso   1.000  C
  C6       1.0000 0.06260  0.09760  0.78970  Biso   1.000  C
  C7       1.0000 0.59760  0.93740  0.28970  Biso   1.000  C
  C8       1.0000 0.90240  0.56260  0.28970  Biso   1.000  C
  C9       1.0000 0.61250  0.61380  0.26290  Biso   1.000  C
  C10      1.0000 0.88750  0.88620  0.26290  Biso   1.000  C
  C11      1.0000 0.38620  0.11250  0.76290  Biso   1.000  C
  C12      1.0000 0.11380  0.38750  0.76290  Biso   1.000  C
  C13      1.0000 0.38750  0.38620  0.73710  Biso   1.000  C
  C14      1.0000 0.11250  0.11380  0.73710  Biso   1.000  C
  C15      1.0000 0.61380  0.88750  0.23710  Biso   1.000  C
  C16      1.0000 0.88620  0.61250  0.23710  Biso   1.000  C
  C17      1.0000 0.66300  0.63040  0.22040  Biso   1.000  C
  C18      1.0000 0.83700  0.86960  0.22040  Biso   1.000  C
  C19      1.0000 0.36960  0.16300  0.72040  Biso   1.000  C
  C20      1.0000 0.13040  0.33700  0.72040  Biso   1.000  C
  C21      1.0000 0.33700  0.36960  0.77960  Biso   1.000  C
  C22      1.0000 0.16300  0.13040  0.77960  Biso   1.000  C
  C23      1.0000 0.63040  0.83700  0.27960  Biso   1.000  C
  C24      1.0000 0.86960  0.66300  0.27960  Biso   1.000  C
  H1       1.0000 0.66390  0.63050  0.15970  Biso   1.000  H
  H2       1.0000 0.83610  0.86950  0.15970  Biso   1.000  H
  H3       1.0000 0.36950  0.16390  0.65970  Biso   1.000  H
  H4       1.0000 0.13050  0.33610  0.65970  Biso   1.000  H
  H5       1.0000 0.33610  0.36950  0.84030  Biso   1.000  H
  H6       1.0000 0.16390  0.13050  0.84030  Biso   1.000  H
  H7       1.0000 0.63050  0.83610  0.34030  Biso   1.000  H
  H8       1.0000 0.86950  0.66390  0.34030  Biso   1.000  H
  C25      1.0000 0.71190  0.64670  0.26610  Biso   1.000  C
  C26      1.0000 0.78810  0.85330  0.26610  Biso   1.000  C
  C27      1.0000 0.35330  0.21190  0.76610  Biso   1.000  C
  C28      1.0000 0.14670  0.28810  0.76610  Biso   1.000  C
  C29      1.0000 0.28810  0.35330  0.73390  Biso   1.000  C
  C30      1.0000 0.21190  0.14670  0.73390  Biso   1.000  C
  C31      1.0000 0.64670  0.78810  0.23390  Biso   1.000  C
  C32      1.0000 0.85330  0.71190  0.23390  Biso   1.000  C
  H9       1.0000 0.74640  0.65620  0.23690  Biso   1.000  H
  H10      1.0000 0.75360  0.84380  0.23690  Biso   1.000  H
  H11      1.0000 0.34380  0.24640  0.73690  Biso   1.000  H
  H12      1.0000 0.15620  0.25360  0.73690  Biso   1.000  H
  H13      1.0000 0.25360  0.34380  0.76310  Biso   1.000  H
  H14      1.0000 0.24640  0.15620  0.76310  Biso   1.000  H
  H15      1.0000 0.65620  0.75360  0.26310  Biso   1.000  H
  H16      1.0000 0.84380  0.74640  0.26310  Biso   1.000  H
  C33      1.0000 0.70930  0.64890  0.35810  Biso   1.000  C
  C34      1.0000 0.79070  0.85110  0.35810  Biso   1.000  C
  C35      1.0000 0.35110  0.20930  0.85810  Biso   1.000  C
  C36      1.0000 0.14890  0.29070  0.85810  Biso   1.000  C
  C37      1.0000 0.29070  0.35110  0.64190  Biso   1.000  C
  C38      1.0000 0.20930  0.14890  0.64190  Biso   1.000  C
  C39      1.0000 0.64890  0.79070  0.14190  Biso   1.000  C
  C40      1.0000 0.85110  0.70930  0.14190  Biso   1.000  C
  H17      1.0000 0.74210  0.66030  0.39010  Biso   1.000  H
  H18      1.0000 0.75790  0.83970  0.39010  Biso   1.000  H
  H19      1.0000 0.33970  0.24210  0.89010  Biso   1.000  H
  H20      1.0000 0.16030  0.25790  0.89010  Biso   1.000  H
  H21      1.0000 0.25790  0.33970  0.60990  Biso   1.000  H
  H22      1.0000 0.24210  0.16030  0.60990  Biso   1.000  H
  H23      1.0000 0.66030  0.75790  0.10990  Biso   1.000  H
  H24      1.0000 0.83970  0.74210  0.10990  Biso   1.000  H
  C41      1.0000 0.65870  0.63410  0.39980  Biso   1.000  C
  C42      1.0000 0.84130  0.86590  0.39980  Biso   1.000  C
  C43      1.0000 0.36590  0.15870  0.89980  Biso   1.000  C
  C44      1.0000 0.13410  0.34130  0.89980  Biso   1.000  C
  C45      1.0000 0.34130  0.36590  0.60020  Biso   1.000  C
  C46      1.0000 0.15870  0.13410  0.60020  Biso   1.000  C
  C47      1.0000 0.63410  0.84130  0.10020  Biso   1.000  C
  C48      1.0000 0.86590  0.65870  0.10020  Biso   1.000  C
  C49      1.0000 0.61080  0.61620  0.35470  Biso   1.000  C
  C50      1.0000 0.88920  0.88380  0.35470  Biso   1.000  C
  C51      1.0000 0.38380  0.11080  0.85470  Biso   1.000  C
  C52      1.0000 0.11620  0.38920  0.85470  Biso   1.000  C
  C53      1.0000 0.38920  0.38380  0.64530  Biso   1.000  C
  C54      1.0000 0.11080  0.11620  0.64530  Biso   1.000  C
  C55      1.0000 0.61620  0.88920  0.14530  Biso   1.000  C
  C56      1.0000 0.88380  0.61080  0.14530  Biso   1.000  C
  H25      1.0000 0.57680  0.60550  0.38440  Biso   1.000  H
  H26      1.0000 0.92320  0.89450  0.38440  Biso   1.000  H
  H27      1.0000 0.39450  0.07680  0.88440  Biso   1.000  H
  H28      1.0000 0.10550  0.42320  0.88440  Biso   1.000  H
  H29      1.0000 0.42320  0.39450  0.61560  Biso   1.000  H
  H30      1.0000 0.07680  0.10550  0.61560  Biso   1.000  H
  H31      1.0000 0.60550  0.92320  0.11560  Biso   1.000  H
  H32      1.0000 0.89450  0.57680  0.11560  Biso   1.000  H
  C57      1.0000 0.47570  0.56800  0.17940  Biso   1.000  C
  C58      1.0000 0.02430  0.93200  0.17940  Biso   1.000  C
  C59      1.0000 0.43200  0.97570  0.67940  Biso   1.000  C
  C60      1.0000 0.06800  0.52430  0.67940  Biso   1.000  C
  C61      1.0000 0.52430  0.43200  0.82060  Biso   1.000  C
  C62      1.0000 0.97570  0.06800  0.82060  Biso   1.000  C
  C63      1.0000 0.56800  0.02430  0.32060  Biso   1.000  C
  C64      1.0000 0.93200  0.47570  0.32060  Biso   1.000  C
  C65      1.0000 0.41740  0.54820  0.19390  Biso   1.000  C
  C66      1.0000 0.08260  0.95180  0.19390  Biso   1.000  C
  C67      1.0000 0.45180  0.91740  0.69390  Biso   1.000  C
  C68      1.0000 0.04820  0.58260  0.69390  Biso   1.000  C
  C69      1.0000 0.58260  0.45180  0.80610  Biso   1.000  C
  C70      1.0000 0.91740  0.04820  0.80610  Biso   1.000  C
  C71      1.0000 0.54820  0.08260  0.30610  Biso   1.000  C
  C72      1.0000 0.95180  0.41740  0.30610  Biso   1.000  C
  C73      1.0000 0.37820  0.54180  0.12220  Biso   1.000  C
  C74      1.0000 0.12180  0.95820  0.12220  Biso   1.000  C
  C75      1.0000 0.45820  0.87820  0.62220  Biso   1.000  C
  C76      1.0000 0.04180  0.62180  0.62220  Biso   1.000  C
  C77      1.0000 0.62180  0.45820  0.87780  Biso   1.000  C
  C78      1.0000 0.87820  0.04180  0.87780  Biso   1.000  C
  C79      1.0000 0.54180  0.12180  0.37780  Biso   1.000  C
  C80      1.0000 0.95820  0.37820  0.37780  Biso   1.000  C
  H33      1.0000 0.39150  0.54830  0.06550  Biso   1.000  H
  H34      1.0000 0.10850  0.95170  0.06550  Biso   1.000  H
  H35      1.0000 0.45170  0.89150  0.56550  Biso   1.000  H
  H36      1.0000 0.04830  0.60850  0.56550  Biso   1.000  H
  H37      1.0000 0.60850  0.45170  0.93450  Biso   1.000  H
  H38      1.0000 0.89150  0.04830  0.93450  Biso   1.000  H
  H39      1.0000 0.54830  0.10850  0.43450  Biso   1.000  H
  H40      1.0000 0.95170  0.39150  0.43450  Biso   1.000  H
  C81      1.0000 0.32090  0.52600  0.13590  Biso   1.000  C
  C82      1.0000 0.17910  0.97400  0.13590  Biso   1.000  C
  C83      1.0000 0.47400  0.82090  0.63590  Biso   1.000  C
  C84      1.0000 0.02600  0.67910  0.63590  Biso   1.000  C
  C85      1.0000 0.67910  0.47400  0.86410  Biso   1.000  C
  C86      1.0000 0.82090  0.02600  0.86410  Biso   1.000  C
  C87      1.0000 0.52600  0.17910  0.36410  Biso   1.000  C
  C88      1.0000 0.97400  0.32090  0.36410  Biso   1.000  C
  H41      1.0000 0.29610  0.52120  0.08810  Biso   1.000  H
  H42      1.0000 0.20390  0.97880  0.08810  Biso   1.000  H
  H43      1.0000 0.47880  0.79610  0.58810  Biso   1.000  H
  H44      1.0000 0.02120  0.70390  0.58810  Biso   1.000  H
  H45      1.0000 0.70390  0.47880  0.91190  Biso   1.000  H
  H46      1.0000 0.79610  0.02120  0.91190  Biso   1.000  H
  H47      1.0000 0.52120  0.20390  0.41190  Biso   1.000  H
  H48      1.0000 0.97880  0.29610  0.41190  Biso   1.000  H
  C89      1.0000 0.29920  0.51710  0.21870  Biso   1.000  C
  C90      1.0000 0.20080  0.98290  0.21870  Biso   1.000  C
  C91      1.0000 0.48290  0.79920  0.71870  Biso   1.000  C
  C92      1.0000 0.01710  0.70080  0.71870  Biso   1.000  C
  C93      1.0000 0.70080  0.48290  0.78130  Biso   1.000  C
  C94      1.0000 0.79920  0.01710  0.78130  Biso   1.000  C
  C95      1.0000 0.51710  0.20080  0.28130  Biso   1.000  C
  C96      1.0000 0.98290  0.29920  0.28130  Biso   1.000  C
  H49      1.0000 0.26010  0.50690  0.22720  Biso   1.000  H
  H50      1.0000 0.23990  0.99310  0.22720  Biso   1.000  H
  H51      1.0000 0.49310  0.76010  0.72720  Biso   1.000  H
  H52      1.0000 0.00690  0.73990  0.72720  Biso   1.000  H
  H53      1.0000 0.73990  0.49310  0.77280  Biso   1.000  H
  H54      1.0000 0.76010  0.00690  0.77280  Biso   1.000  H
  H55      1.0000 0.50690  0.23990  0.27280  Biso   1.000  H
  H56      1.0000 0.99310  0.26010  0.27280  Biso   1.000  H
  C97      1.0000 0.33720  0.52370  0.29020  Biso   1.000  C
  C98      1.0000 0.16280  0.97630  0.29020  Biso   1.000  C
  C99      1.0000 0.47630  0.83720  0.79020  Biso   1.000  C
  C100     1.0000 0.02370  0.66280  0.79020  Biso   1.000  C
  C101     1.0000 0.66280  0.47630  0.70980  Biso   1.000  C
  C102     1.0000 0.83720  0.02370  0.70980  Biso   1.000  C
  C103     1.0000 0.52370  0.16280  0.20980  Biso   1.000  C
  C104     1.0000 0.97630  0.33720  0.20980  Biso   1.000  C
  C105     1.0000 0.39430  0.53830  0.27780  Biso   1.000  C
  C106     1.0000 0.10570  0.96170  0.27780  Biso   1.000  C
  C107     1.0000 0.46170  0.89430  0.77780  Biso   1.000  C
  C108     1.0000 0.03830  0.60570  0.77780  Biso   1.000  C
  C109     1.0000 0.60570  0.46170  0.72220  Biso   1.000  C
  C110     1.0000 0.89430  0.03830  0.72220  Biso   1.000  C
  C111     1.0000 0.53830  0.10570  0.22220  Biso   1.000  C
  C112     1.0000 0.96170  0.39430  0.22220  Biso   1.000  C
  H57      1.0000 0.41890  0.54180  0.32600  Biso   1.000  H
  H58      1.0000 0.08110  0.95820  0.32600  Biso   1.000  H
  H59      1.0000 0.45820  0.91890  0.82600  Biso   1.000  H
  H60      1.0000 0.04180  0.58110  0.82600  Biso   1.000  H
  H61      1.0000 0.58110  0.45820  0.67400  Biso   1.000  H
  H62      1.0000 0.91890  0.04180  0.67400  Biso   1.000  H
  H63      1.0000 0.54180  0.08110  0.17400  Biso   1.000  H
  H64      1.0000 0.95820  0.41890  0.17400  Biso   1.000  H
  C113     1.0000 0.28570  0.62260  0.36010  Biso   1.000  C
  C114     1.0000 0.21430  0.87740  0.36010  Biso   1.000  C
  C115     1.0000 0.37740  0.78570  0.86010  Biso   1.000  C
  C116     1.0000 0.12260  0.71430  0.86010  Biso   1.000  C
  C117     1.0000 0.71430  0.37740  0.63990  Biso   1.000  C
  C118     1.0000 0.78570  0.12260  0.63990  Biso   1.000  C
  C119     1.0000 0.62260  0.21430  0.13990  Biso   1.000  C
  C120     1.0000 0.87740  0.28570  0.13990  Biso   1.000  C
  H65      1.0000 0.32350  0.64120  0.35750  Biso   1.000  H
  H66      1.0000 0.17650  0.85880  0.35750  Biso   1.000  H
  H67      1.0000 0.35880  0.82350  0.85750  Biso   1.000  H
  H68      1.0000 0.14120  0.67650  0.85750  Biso   1.000  H
  H69      1.0000 0.67650  0.35880  0.64250  Biso   1.000  H
  H70      1.0000 0.82350  0.14120  0.64250  Biso   1.000  H
  H71      1.0000 0.64120  0.17650  0.14250  Biso   1.000  H
  H72      1.0000 0.85880  0.32350  0.14250  Biso   1.000  H
  H73      1.0000 0.25840  0.64810  0.38900  Biso   1.000  H
  H74      1.0000 0.24160  0.85190  0.38900  Biso   1.000  H
  H75      1.0000 0.35190  0.75840  0.88900  Biso   1.000  H
  H76      1.0000 0.14810  0.74160  0.88900  Biso   1.000  H
  H77      1.0000 0.74160  0.35190  0.61100  Biso   1.000  H
  H78      1.0000 0.75840  0.14810  0.61100  Biso   1.000  H
  H79      1.0000 0.64810  0.24160  0.11100  Biso   1.000  H
  H80      1.0000 0.85190  0.25840  0.11100  Biso   1.000  H
  H81      1.0000 0.27220  0.61460  0.30190  Biso   1.000  H
  H82      1.0000 0.22780  0.88540  0.30190  Biso   1.000  H
  H83      1.0000 0.38540  0.77220  0.80190  Biso   1.000  H
  H84      1.0000 0.11460  0.72780  0.80190  Biso   1.000  H
  H85      1.0000 0.72780  0.38540  0.69810  Biso   1.000  H
  H86      1.0000 0.77220  0.11460  0.69810  Biso   1.000  H
  H87      1.0000 0.61460  0.22780  0.19810  Biso   1.000  H
  H88      1.0000 0.88540  0.27220  0.19810  Biso   1.000  H
  C121     1.0000 0.29080  0.56490  0.41110  Biso   1.000  C
  C122     1.0000 0.20920  0.93510  0.41110  Biso   1.000  C
  C123     1.0000 0.43510  0.79080  0.91110  Biso   1.000  C
  C124     1.0000 0.06490  0.70920  0.91110  Biso   1.000  C
  C125     1.0000 0.70920  0.43510  0.58890  Biso   1.000  C
  C126     1.0000 0.79080  0.06490  0.58890  Biso   1.000  C
  C127     1.0000 0.56490  0.20920  0.08890  Biso   1.000  C
  C128     1.0000 0.93510  0.29080  0.08890  Biso   1.000  C
  C129     1.0000 0.26800  0.56650  0.49750  Biso   1.000  C
  C130     1.0000 0.23200  0.93350  0.49750  Biso   1.000  C
  C131     1.0000 0.43350  0.76800  0.99750  Biso   1.000  C
  C132     1.0000 0.06650  0.73200  0.99750  Biso   1.000  C
  C133     1.0000 0.73200  0.43350  0.50250  Biso   1.000  C
  C134     1.0000 0.76800  0.06650  0.50250  Biso   1.000  C
  C135     1.0000 0.56650  0.23200  0.00250  Biso   1.000  C
  C136     1.0000 0.93350  0.26800  0.00250  Biso   1.000  C
  H89      1.0000 0.24880  0.60080  0.51410  Biso   1.000  H
  H90      1.0000 0.25120  0.89920  0.51410  Biso   1.000  H
  H91      1.0000 0.39920  0.74880  0.01410  Biso   1.000  H
  H92      1.0000 0.10080  0.75120  0.01410  Biso   1.000  H
  H93      1.0000 0.75120  0.39920  0.48590  Biso   1.000  H
  H94      1.0000 0.74880  0.10080  0.48590  Biso   1.000  H
  H95      1.0000 0.60080  0.25120  0.98590  Biso   1.000  H
  H96      1.0000 0.89920  0.24880  0.98590  Biso   1.000  H
  C137     1.0000 0.27120  0.52400  0.55710  Biso   1.000  C
  C138     1.0000 0.22880  0.97600  0.55710  Biso   1.000  C
  C139     1.0000 0.47600  0.77120  0.05710  Biso   1.000  C
  C140     1.0000 0.02400  0.72880  0.05710  Biso   1.000  C
  C141     1.0000 0.72880  0.47600  0.44290  Biso   1.000  C
  C142     1.0000 0.77120  0.02400  0.44290  Biso   1.000  C
  C143     1.0000 0.52400  0.22880  0.94290  Biso   1.000  C
  C144     1.0000 0.97600  0.27120  0.94290  Biso   1.000  C
  C145     1.0000 0.24970  0.53360  0.64940  Biso   1.000  C
  C146     1.0000 0.25030  0.96640  0.64940  Biso   1.000  C
  C147     1.0000 0.46640  0.74970  0.14940  Biso   1.000  C
  C148     1.0000 0.03360  0.75030  0.14940  Biso   1.000  C
  C149     1.0000 0.75030  0.46640  0.35060  Biso   1.000  C
  C150     1.0000 0.74970  0.03360  0.35060  Biso   1.000  C
  C151     1.0000 0.53360  0.25030  0.85060  Biso   1.000  C
  C152     1.0000 0.96640  0.24970  0.85060  Biso   1.000  C
  C153     1.0000 0.21320  0.57720  0.66980  Biso   1.000  C
  C154     1.0000 0.28680  0.92280  0.66980  Biso   1.000  C
  C155     1.0000 0.42280  0.71320  0.16980  Biso   1.000  C
  C156     1.0000 0.07720  0.78680  0.16980  Biso   1.000  C
  C157     1.0000 0.78680  0.42280  0.33020  Biso   1.000  C
  C158     1.0000 0.71320  0.07720  0.33020  Biso   1.000  C
  C159     1.0000 0.57720  0.28680  0.83020  Biso   1.000  C
  C160     1.0000 0.92280  0.21320  0.83020  Biso   1.000  C
  H97      1.0000 0.20030  0.60110  0.62440  Biso   1.000  H
  H98      1.0000 0.29970  0.89890  0.62440  Biso   1.000  H
  H99      1.0000 0.39890  0.70030  0.12440  Biso   1.000  H
  H100     1.0000 0.10110  0.79970  0.12440  Biso   1.000  H
  H101     1.0000 0.79970  0.39890  0.37560  Biso   1.000  H
  H102     1.0000 0.70030  0.10110  0.37560  Biso   1.000  H
  H103     1.0000 0.60110  0.29970  0.87560  Biso   1.000  H
  H104     1.0000 0.89890  0.20030  0.87560  Biso   1.000  H
  C161     1.0000 0.20850  0.55670  0.81360  Biso   1.000  C
  C162     1.0000 0.29150  0.94330  0.81360  Biso   1.000  C
  C163     1.0000 0.44330  0.70850  0.31360  Biso   1.000  C
  C164     1.0000 0.05670  0.79150  0.31360  Biso   1.000  C
  C165     1.0000 0.79150  0.44330  0.18640  Biso   1.000  C
  C166     1.0000 0.70850  0.05670  0.18640  Biso   1.000  C
  C167     1.0000 0.55670  0.29150  0.68640  Biso   1.000  C
  C168     1.0000 0.94330  0.20850  0.68640  Biso   1.000  C
  H105     1.0000 0.19580  0.56550  0.86990  Biso   1.000  H
  H106     1.0000 0.30420  0.93450  0.86990  Biso   1.000  H
  H107     1.0000 0.43450  0.69580  0.36990  Biso   1.000  H
  H108     1.0000 0.06550  0.80420  0.36990  Biso   1.000  H
  H109     1.0000 0.80420  0.43450  0.13010  Biso   1.000  H
  H110     1.0000 0.69580  0.06550  0.13010  Biso   1.000  H
  H111     1.0000 0.56550  0.30420  0.63010  Biso   1.000  H
  H112     1.0000 0.93450  0.19580  0.63010  Biso   1.000  H
  C169     1.0000 0.19330  0.58950  0.75120  Biso   1.000  C
  C170     1.0000 0.30670  0.91050  0.75120  Biso   1.000  C
  C171     1.0000 0.41050  0.69330  0.25120  Biso   1.000  C
  C172     1.0000 0.08950  0.80670  0.25120  Biso   1.000  C
  C173     1.0000 0.80670  0.41050  0.24880  Biso   1.000  C
  C174     1.0000 0.69330  0.08950  0.24880  Biso   1.000  C
  C175     1.0000 0.58950  0.30670  0.74880  Biso   1.000  C
  C176     1.0000 0.91050  0.19330  0.74880  Biso   1.000  C
  H113     1.0000 0.16890  0.62160  0.76090  Biso   1.000  H
  H114     1.0000 0.33110  0.87840  0.76090  Biso   1.000  H
  H115     1.0000 0.37840  0.66890  0.26090  Biso   1.000  H
  H116     1.0000 0.12160  0.83110  0.26090  Biso   1.000  H
  H117     1.0000 0.83110  0.37840  0.23910  Biso   1.000  H
  H118     1.0000 0.66890  0.12160  0.23910  Biso   1.000  H
  H119     1.0000 0.62160  0.33110  0.73910  Biso   1.000  H
  H120     1.0000 0.87840  0.16890  0.73910  Biso   1.000  H
  C177     1.0000 0.63640  0.74110  0.47850  Biso   1.000  C
  C178     1.0000 0.86360  0.75890  0.47850  Biso   1.000  C
  C179     1.0000 0.25890  0.13640  0.97850  Biso   1.000  C
  C180     1.0000 0.24110  0.36360  0.97850  Biso   1.000  C
  C181     1.0000 0.36360  0.25890  0.52150  Biso   1.000  C
  C182     1.0000 0.13640  0.24110  0.52150  Biso   1.000  C
  C183     1.0000 0.74110  0.86360  0.02150  Biso   1.000  C
  C184     1.0000 0.75890  0.63640  0.02150  Biso   1.000  C
  H121     1.0000 0.62300  0.73110  0.42090  Biso   1.000  H
  H122     1.0000 0.87700  0.76890  0.42090  Biso   1.000  H
  H123     1.0000 0.26890  0.12300  0.92090  Biso   1.000  H
  H124     1.0000 0.23110  0.37700  0.92090  Biso   1.000  H
  H125     1.0000 0.37700  0.26890  0.57910  Biso   1.000  H
  H126     1.0000 0.12300  0.23110  0.57910  Biso   1.000  H
  H127     1.0000 0.73110  0.87700  0.07910  Biso   1.000  H
  H128     1.0000 0.76890  0.62300  0.07910  Biso   1.000  H
  H129     1.0000 0.60820  0.76610  0.50640  Biso   1.000  H
  H130     1.0000 0.89180  0.73390  0.50640  Biso   1.000  H
  H131     1.0000 0.23390  0.10820  0.00640  Biso   1.000  H
  H132     1.0000 0.26610  0.39180  0.00640  Biso   1.000  H
  H133     1.0000 0.39180  0.23390  0.49360  Biso   1.000  H
  H134     1.0000 0.10820  0.26610  0.49360  Biso   1.000  H
  H135     1.0000 0.76610  0.89180  0.99360  Biso   1.000  H
  H136     1.0000 0.73390  0.60820  0.99360  Biso   1.000  H
  H137     1.0000 0.67340  0.76120  0.47450  Biso   1.000  H
  H138     1.0000 0.82660  0.73880  0.47450  Biso   1.000  H
  H139     1.0000 0.23880  0.17340  0.97450  Biso   1.000  H
  H140     1.0000 0.26120  0.32660  0.97450  Biso   1.000  H
  H141     1.0000 0.32660  0.23880  0.52550  Biso   1.000  H
  H142     1.0000 0.17340  0.26120  0.52550  Biso   1.000  H
  H143     1.0000 0.76120  0.82660  0.02550  Biso   1.000  H
  H144     1.0000 0.73880  0.67340  0.02550  Biso   1.000  H
  C185     1.0000 0.64400  0.68540  0.53210  Biso   1.000  C
  C186     1.0000 0.85600  0.81460  0.53210  Biso   1.000  C
  C187     1.0000 0.31460  0.14400  0.03210  Biso   1.000  C
  C188     1.0000 0.18540  0.35600  0.03210  Biso   1.000  C
  C189     1.0000 0.35600  0.31460  0.46790  Biso   1.000  C
  C190     1.0000 0.14400  0.18540  0.46790  Biso   1.000  C
  C191     1.0000 0.68540  0.85600  0.96790  Biso   1.000  C
  C192     1.0000 0.81460  0.64400  0.96790  Biso   1.000  C
  C193     1.0000 0.63760  0.69220  0.62450  Biso   1.000  C
  C194     1.0000 0.86240  0.80780  0.62450  Biso   1.000  C
  C195     1.0000 0.30780  0.13760  0.12450  Biso   1.000  C
  C196     1.0000 0.19220  0.36240  0.12450  Biso   1.000  C
  C197     1.0000 0.36240  0.30780  0.37550  Biso   1.000  C
  C198     1.0000 0.13760  0.19220  0.37550  Biso   1.000  C
  C199     1.0000 0.69220  0.86240  0.87550  Biso   1.000  C
  C200     1.0000 0.80780  0.63760  0.87550  Biso   1.000  C
  H145     1.0000 0.63460  0.73030  0.64580  Biso   1.000  H
  H146     1.0000 0.86540  0.76970  0.64580  Biso   1.000  H
  H147     1.0000 0.26970  0.13460  0.14580  Biso   1.000  H
  H148     1.0000 0.23030  0.36540  0.14580  Biso   1.000  H
  H149     1.0000 0.36540  0.26970  0.35420  Biso   1.000  H
  H150     1.0000 0.13460  0.23030  0.35420  Biso   1.000  H
  H151     1.0000 0.73030  0.86540  0.85420  Biso   1.000  H
  H152     1.0000 0.76970  0.63460  0.85420  Biso   1.000  H
  C201     1.0000 0.63550  0.64760  0.68430  Biso   1.000  C
  C202     1.0000 0.86450  0.85240  0.68430  Biso   1.000  C
  C203     1.0000 0.35240  0.13550  0.18430  Biso   1.000  C
  C204     1.0000 0.14760  0.36450  0.18430  Biso   1.000  C
  C205     1.0000 0.36450  0.35240  0.31570  Biso   1.000  C
  C206     1.0000 0.13550  0.14760  0.31570  Biso   1.000  C
  C207     1.0000 0.64760  0.86450  0.81570  Biso   1.000  C
  C208     1.0000 0.85240  0.63550  0.81570  Biso   1.000  C
  C209     1.0000 0.61960  0.65990  0.77580  Biso   1.000  C
  C210     1.0000 0.88040  0.84010  0.77580  Biso   1.000  C
  C211     1.0000 0.34010  0.11960  0.27580  Biso   1.000  C
  C212     1.0000 0.15990  0.38040  0.27580  Biso   1.000  C
  C213     1.0000 0.38040  0.34010  0.22420  Biso   1.000  C
  C214     1.0000 0.11960  0.15990  0.22420  Biso   1.000  C
  C215     1.0000 0.65990  0.88040  0.72420  Biso   1.000  C
  C216     1.0000 0.84010  0.61960  0.72420  Biso   1.000  C
  C217     1.0000 0.61030  0.71410  0.80920  Biso   1.000  C
  C218     1.0000 0.88970  0.78590  0.80920  Biso   1.000  C
  C219     1.0000 0.28590  0.11030  0.30920  Biso   1.000  C
  C220     1.0000 0.21410  0.38970  0.30920  Biso   1.000  C
  C221     1.0000 0.38970  0.28590  0.19080  Biso   1.000  C
  C222     1.0000 0.11030  0.21410  0.19080  Biso   1.000  C
  C223     1.0000 0.71410  0.88970  0.69080  Biso   1.000  C
  C224     1.0000 0.78590  0.61030  0.69080  Biso   1.000  C
  H153     1.0000 0.61520  0.74590  0.77170  Biso   1.000  H
  H154     1.0000 0.88480  0.75410  0.77170  Biso   1.000  H
  H155     1.0000 0.25410  0.11520  0.27170  Biso   1.000  H
  H156     1.0000 0.24590  0.38480  0.27170  Biso   1.000  H
  H157     1.0000 0.38480  0.25410  0.22830  Biso   1.000  H
  H158     1.0000 0.11520  0.24590  0.22830  Biso   1.000  H
  H159     1.0000 0.74590  0.88480  0.72830  Biso   1.000  H
  H160     1.0000 0.75410  0.61520  0.72830  Biso   1.000  H
  C225     1.0000 0.58740  0.67950  0.94620  Biso   1.000  C
  C226     1.0000 0.91260  0.82050  0.94620  Biso   1.000  C
  C227     1.0000 0.32050  0.08740  0.44620  Biso   1.000  C
  C228     1.0000 0.17950  0.41260  0.44620  Biso   1.000  C
  C229     1.0000 0.41260  0.32050  0.05380  Biso   1.000  C
  C230     1.0000 0.08740  0.17950  0.05380  Biso   1.000  C
  C231     1.0000 0.67950  0.91260  0.55380  Biso   1.000  C
  C232     1.0000 0.82050  0.58740  0.55380  Biso   1.000  C
  H161     1.0000 0.57640  0.68580  0.00400  Biso   1.000  H
  H162     1.0000 0.92360  0.81420  0.00400  Biso   1.000  H
  H163     1.0000 0.31420  0.07640  0.50400  Biso   1.000  H
  H164     1.0000 0.18580  0.42360  0.50400  Biso   1.000  H
  H165     1.0000 0.42360  0.31420  0.99600  Biso   1.000  H
  H166     1.0000 0.07640  0.18580  0.99600  Biso   1.000  H
  H167     1.0000 0.68580  0.92360  0.49600  Biso   1.000  H
  H168     1.0000 0.81420  0.57640  0.49600  Biso   1.000  H
  C233     1.0000 0.59580  0.62430  0.91880  Biso   1.000  C
  C234     1.0000 0.90420  0.87570  0.91880  Biso   1.000  C
  C235     1.0000 0.37570  0.09580  0.41880  Biso   1.000  C
  C236     1.0000 0.12430  0.40420  0.41880  Biso   1.000  C
  C237     1.0000 0.40420  0.37570  0.08120  Biso   1.000  C
  C238     1.0000 0.09580  0.12430  0.08120  Biso   1.000  C
  C239     1.0000 0.62430  0.90420  0.58120  Biso   1.000  C
  C240     1.0000 0.87570  0.59580  0.58120  Biso   1.000  C
  H169     1.0000 0.59010  0.59330  0.95750  Biso   1.000  H
  H170     1.0000 0.90990  0.90670  0.95750  Biso   1.000  H
  H171     1.0000 0.40670  0.09010  0.45750  Biso   1.000  H
  H172     1.0000 0.09330  0.40990  0.45750  Biso   1.000  H
  H173     1.0000 0.40990  0.40670  0.04250  Biso   1.000  H
  H174     1.0000 0.09010  0.09330  0.04250  Biso   1.000  H
  H175     1.0000 0.59330  0.90990  0.54250  Biso   1.000  H
  H176     1.0000 0.90670  0.59010  0.54250  Biso   1.000  H
  C241     1.0000 0.61290  0.61260  0.83290  Biso   1.000  C
  C242     1.0000 0.88710  0.88740  0.83290  Biso   1.000  C
  C243     1.0000 0.38740  0.11290  0.33290  Biso   1.000  C
  C244     1.0000 0.11260  0.38710  0.33290  Biso   1.000  C
  C245     1.0000 0.38710  0.38740  0.16710  Biso   1.000  C
  C246     1.0000 0.11290  0.11260  0.16710  Biso   1.000  C
  C247     1.0000 0.61260  0.88710  0.66710  Biso   1.000  C
  C248     1.0000 0.88740  0.61290  0.66710  Biso   1.000  C
  H177     1.0000 0.61960  0.57430  0.81430  Biso   1.000  H
  H178     1.0000 0.88040  0.92570  0.81430  Biso   1.000  H
  H179     1.0000 0.42570  0.11960  0.31430  Biso   1.000  H
  H180     1.0000 0.07430  0.38040  0.31430  Biso   1.000  H
  H181     1.0000 0.38040  0.42570  0.18570  Biso   1.000  H
  H182     1.0000 0.11960  0.07430  0.18570  Biso   1.000  H
  H183     1.0000 0.57430  0.88040  0.68570  Biso   1.000  H
  H184     1.0000 0.92570  0.61960  0.68570  Biso   1.000  H
  C249     1.0000 0.26370  0.49760  0.71340  Biso   1.000  C
  C250     1.0000 0.23630  0.00240  0.71340  Biso   1.000  C
  C251     1.0000 0.50240  0.76370  0.21340  Biso   1.000  C
  C252     1.0000 0.99760  0.73630  0.21340  Biso   1.000  C
  C253     1.0000 0.73630  0.50240  0.28660  Biso   1.000  C
  C254     1.0000 0.76370  0.99760  0.28660  Biso   1.000  C
  C255     1.0000 0.49760  0.23630  0.78660  Biso   1.000  C
  C256     1.0000 0.00240  0.26370  0.78660  Biso   1.000  C
  H185     1.0000 0.28690  0.46480  0.70260  Biso   1.000  H
  H186     1.0000 0.21310  0.03520  0.70260  Biso   1.000  H
  H187     1.0000 0.53520  0.78690  0.20260  Biso   1.000  H
  H188     1.0000 0.96480  0.71310  0.20260  Biso   1.000  H
  H189     1.0000 0.71310  0.53520  0.29740  Biso   1.000  H
  H190     1.0000 0.78690  0.96480  0.29740  Biso   1.000  H
  H191     1.0000 0.46480  0.21310  0.79740  Biso   1.000  H
  H192     1.0000 0.03520  0.28690  0.79740  Biso   1.000  H
  O1       1.0000 0.51235  0.57758  0.24810  Biso   1.000  O
  O2       1.0000 0.98765  0.92242  0.24810  Biso   1.000  O
  O3       1.0000 0.42242  0.01235  0.74810  Biso   1.000  O
  O4       1.0000 0.07758  0.48765  0.74810  Biso   1.000  O
  O5       1.0000 0.48765  0.42242  0.75190  Biso   1.000  O
  O6       1.0000 0.01235  0.07758  0.75190  Biso   1.000  O
  O7       1.0000 0.57758  0.98765  0.25190  Biso   1.000  O
  O8       1.0000 0.92242  0.51235  0.25190  Biso   1.000  O
  O9       1.0000 0.29367  0.47188  0.54530  Biso   1.000  O
  O10      1.0000 0.20633  0.02812  0.54530  Biso   1.000  O
  O11      1.0000 0.52812  0.79367  0.04530  Biso   1.000  O
  O12      1.0000 0.97188  0.70633  0.04530  Biso   1.000  O
  O13      1.0000 0.70633  0.52812  0.45470  Biso   1.000  O
  O14      1.0000 0.79367  0.97188  0.45470  Biso   1.000  O
  O15      1.0000 0.47188  0.20633  0.95470  Biso   1.000  O
  O16      1.0000 0.02812  0.29367  0.95470  Biso   1.000  O
  O17      1.0000 0.64450  0.59364  0.66620  Biso   1.000  O
  O18      1.0000 0.85550  0.90636  0.66620  Biso   1.000  O
  O19      1.0000 0.40636  0.14450  0.16620  Biso   1.000  O
  O20      1.0000 0.09364  0.35550  0.16620  Biso   1.000  O
  O21      1.0000 0.35550  0.40636  0.33380  Biso   1.000  O
  O22      1.0000 0.14450  0.09364  0.33380  Biso   1.000  O
  O23      1.0000 0.59364  0.85550  0.83380  Biso   1.000  O
  O24      1.0000 0.90636  0.64450  0.83380  Biso   1.000  O
