data_image0
_cell_length_a       14.739
_cell_length_b       9.994
_cell_length_c       7.101
_cell_angle_alpha    90
_cell_angle_beta     98.52
_cell_angle_gamma    90

_symmetry_space_group_name_H-M    "P 1"
_symmetry_int_tables_number       1

loop_
  _symmetry_equiv_pos_as_xyz
  'x, y, z'

loop_
  _atom_site_label
  _atom_site_occupancy
  _atom_site_fract_x
  _atom_site_fract_y
  _atom_site_fract_z
  _atom_site_thermal_displace_type
  _atom_site_B_iso_or_equiv
  _atom_site_type_symbol
  Cu1      1.0000 0.06657  0.44154  0.83314  Biso   1.000  Cu
  Cu2      1.0000 0.43343  0.94154  0.66686  Biso   1.000  Cu
  Cu3      1.0000 0.93343  0.55846  0.16686  Biso   1.000  Cu
  Cu4      1.0000 0.56657  0.05846  0.33314  Biso   1.000  Cu
  O1       1.0000 0.89500  0.28360  0.67080  Biso   1.000  O
  O2       1.0000 0.60500  0.78360  0.82920  Biso   1.000  O
  O3       1.0000 0.10500  0.71640  0.32920  Biso   1.000  O
  O4       1.0000 0.39500  0.21640  0.17080  Biso   1.000  O
  O5       1.0000 0.24530  0.28720  0.95220  Biso   1.000  O
  O6       1.0000 0.25470  0.78720  0.54780  Biso   1.000  O
  O7       1.0000 0.75470  0.71280  0.04780  Biso   1.000  O
  O8       1.0000 0.74530  0.21280  0.45220  Biso   1.000  O
  O9       1.0000 0.15100  0.59090  0.91700  Biso   1.000  O
  O10      1.0000 0.34900  0.09090  0.58300  Biso   1.000  O
  O11      1.0000 0.84900  0.40910  0.08300  Biso   1.000  O
  O12      1.0000 0.65100  0.90910  0.41700  Biso   1.000  O
  O13      1.0000 0.27440  0.51330  0.10510  Biso   1.000  O
  O14      1.0000 0.22560  0.01330  0.39490  Biso   1.000  O
  O15      1.0000 0.72560  0.48670  0.89490  Biso   1.000  O
  O16      1.0000 0.77440  0.98670  0.60510  Biso   1.000  O
  O17      1.0000 0.37830  0.97930  0.02440  Biso   1.000  O
  O18      1.0000 0.12170  0.47930  0.47560  Biso   1.000  O
  O19      1.0000 0.62170  0.02070  0.97560  Biso   1.000  O
  O20      1.0000 0.87830  0.52070  0.52440  Biso   1.000  O
  O21      1.0000 0.46820  0.92130  0.29500  Biso   1.000  O
  O22      1.0000 0.03180  0.42130  0.20500  Biso   1.000  O
  O23      1.0000 0.53180  0.07870  0.70500  Biso   1.000  O
  O24      1.0000 0.96820  0.57870  0.79500  Biso   1.000  O
  O25      1.0000 0.08130  0.81920  0.72460  Biso   1.000  O
  O26      1.0000 0.41870  0.31920  0.77540  Biso   1.000  O
  O27      1.0000 0.91870  0.18080  0.27540  Biso   1.000  O
  O28      1.0000 0.58130  0.68080  0.22460  Biso   1.000  O
  N1       1.0000 0.98790  0.28660  0.74200  Biso   1.000  N
  N2       1.0000 0.51210  0.78660  0.75800  Biso   1.000  N
  N3       1.0000 0.01210  0.71340  0.25800  Biso   1.000  N
  N4       1.0000 0.48790  0.21340  0.24200  Biso   1.000  N
  N5       1.0000 0.15190  0.28920  0.88520  Biso   1.000  N
  N6       1.0000 0.34810  0.78920  0.61480  Biso   1.000  N
  N7       1.0000 0.84810  0.71080  0.11480  Biso   1.000  N
  N8       1.0000 0.65190  0.21080  0.38520  Biso   1.000  N
  N9       1.0000 0.97450  0.05380  0.74470  Biso   1.000  N
  N10      1.0000 0.52550  0.55380  0.75530  Biso   1.000  N
  N11      1.0000 0.02550  0.94620  0.25530  Biso   1.000  N
  N12      1.0000 0.47450  0.44620  0.24470  Biso   1.000  N
  N13      1.0000 0.16990  0.05750  0.87290  Biso   1.000  N
  N14      1.0000 0.33010  0.55750  0.62710  Biso   1.000  N
  N15      1.0000 0.83010  0.94250  0.12710  Biso   1.000  N
  N16      1.0000 0.66990  0.44250  0.37290  Biso   1.000  N
  C1       1.0000 0.02110  0.16750  0.77300  Biso   1.000  C
  C2       1.0000 0.47890  0.66750  0.72700  Biso   1.000  C
  C3       1.0000 0.97890  0.83250  0.22700  Biso   1.000  C
  C4       1.0000 0.52110  0.33250  0.27300  Biso   1.000  C
  C5       1.0000 0.12090  0.16970  0.84760  Biso   1.000  C
  C6       1.0000 0.37910  0.66970  0.65240  Biso   1.000  C
  C7       1.0000 0.87910  0.83030  0.15240  Biso   1.000  C
  C8       1.0000 0.62090  0.33030  0.34760  Biso   1.000  C
  C9       1.0000 0.40480  0.89750  0.15520  Biso   1.000  C
  C10      1.0000 0.09520  0.39750  0.34480  Biso   1.000  C
  C11      1.0000 0.59520  0.10250  0.84480  Biso   1.000  C
  C12      1.0000 0.90480  0.60250  0.65520  Biso   1.000  C
  C13      1.0000 0.36430  0.75820  0.14460  Biso   1.000  C
  C14      1.0000 0.13570  0.25820  0.35540  Biso   1.000  C
  C15      1.0000 0.63570  0.24180  0.85540  Biso   1.000  C
  C16      1.0000 0.86430  0.74180  0.64460  Biso   1.000  C
  C17      1.0000 0.22880  0.60600  0.02240  Biso   1.000  C
  C18      1.0000 0.27120  0.10600  0.47760  Biso   1.000  C
  C19      1.0000 0.77120  0.39400  0.97760  Biso   1.000  C
  C20      1.0000 0.72880  0.89400  0.52240  Biso   1.000  C
  C21      1.0000 0.26550  0.74870  0.04380  Biso   1.000  C
  C22      1.0000 0.23450  0.24870  0.45620  Biso   1.000  C
  C23      1.0000 0.73450  0.25130  0.95620  Biso   1.000  C
  C24      1.0000 0.76550  0.75130  0.54380  Biso   1.000  C
