data_image0
_cell_length_a       19.97
_cell_length_b       5.5067
_cell_length_c       12.672
_cell_angle_alpha    90
_cell_angle_beta     120.357
_cell_angle_gamma    90

_symmetry_space_group_name_H-M    "P 1"
_symmetry_int_tables_number       1

loop_
  _symmetry_equiv_pos_as_xyz
  'x, y, z'

loop_
  _atom_site_label
  _atom_site_occupancy
  _atom_site_fract_x
  _atom_site_fract_y
  _atom_site_fract_z
  _atom_site_thermal_displace_type
  _atom_site_B_iso_or_equiv
  _atom_site_type_symbol
  Cu1      1.0000 0.50000  0.50000  0.50000  Biso   1.000  Cu
  Cu2      1.0000 0.50000  0.50000  0.00000  Biso   1.000  Cu
  Cu3      1.0000 0.00000  0.00000  0.50000  Biso   1.000  Cu
  Cu4      1.0000 0.00000  0.00000  0.00000  Biso   1.000  Cu
  C1       1.0000 0.37443  0.71620  0.25660  Biso   1.000  C
  C2       1.0000 0.62557  0.71620  0.24340  Biso   1.000  C
  C3       1.0000 0.87443  0.21620  0.25660  Biso   1.000  C
  C4       1.0000 0.12557  0.21620  0.24340  Biso   1.000  C
  C5       1.0000 0.62557  0.28380  0.74340  Biso   1.000  C
  C6       1.0000 0.37443  0.28380  0.75660  Biso   1.000  C
  C7       1.0000 0.12557  0.78380  0.74340  Biso   1.000  C
  C8       1.0000 0.87443  0.78380  0.75660  Biso   1.000  C
  H1       1.0000 0.40080  0.86100  0.26560  Biso   1.000  H
  H2       1.0000 0.59920  0.86100  0.23440  Biso   1.000  H
  H3       1.0000 0.90080  0.36100  0.26560  Biso   1.000  H
  H4       1.0000 0.09920  0.36100  0.23440  Biso   1.000  H
  H5       1.0000 0.59920  0.13900  0.73440  Biso   1.000  H
  H6       1.0000 0.40080  0.13900  0.76560  Biso   1.000  H
  H7       1.0000 0.09920  0.63900  0.73440  Biso   1.000  H
  H8       1.0000 0.90080  0.63900  0.76560  Biso   1.000  H
  C9       1.0000 0.25088  0.80350  0.05630  Biso   1.000  C
  C10      1.0000 0.74912  0.80350  0.44370  Biso   1.000  C
  C11      1.0000 0.75088  0.30350  0.05630  Biso   1.000  C
  C12      1.0000 0.24912  0.30350  0.44370  Biso   1.000  C
  C13      1.0000 0.74912  0.19650  0.94370  Biso   1.000  C
  C14      1.0000 0.25088  0.19650  0.55630  Biso   1.000  C
  C15      1.0000 0.24912  0.69650  0.94370  Biso   1.000  C
  C16      1.0000 0.75088  0.69650  0.55630  Biso   1.000  C
  H9       1.0000 0.26770  0.97140  0.06690  Biso   1.000  H
  H10      1.0000 0.73230  0.97140  0.43310  Biso   1.000  H
  H11      1.0000 0.76770  0.47140  0.06690  Biso   1.000  H
  H12      1.0000 0.23230  0.47140  0.43310  Biso   1.000  H
  H13      1.0000 0.73230  0.02860  0.93310  Biso   1.000  H
  H14      1.0000 0.26770  0.02860  0.56690  Biso   1.000  H
  H15      1.0000 0.23230  0.52860  0.93310  Biso   1.000  H
  H16      1.0000 0.76770  0.52860  0.56690  Biso   1.000  H
  H17      1.0000 0.19920  0.79910  0.04560  Biso   1.000  H
  H18      1.0000 0.80080  0.79910  0.45440  Biso   1.000  H
  H19      1.0000 0.69920  0.29910  0.04560  Biso   1.000  H
  H20      1.0000 0.30080  0.29910  0.45440  Biso   1.000  H
  H21      1.0000 0.80080  0.20090  0.95440  Biso   1.000  H
  H22      1.0000 0.19920  0.20090  0.54560  Biso   1.000  H
  H23      1.0000 0.30080  0.70090  0.95440  Biso   1.000  H
  H24      1.0000 0.69920  0.70090  0.54560  Biso   1.000  H
  C17      1.0000 0.56026  0.96530  0.44090  Biso   1.000  C
  C18      1.0000 0.43974  0.96530  0.05910  Biso   1.000  C
  C19      1.0000 0.06026  0.46530  0.44090  Biso   1.000  C
  C20      1.0000 0.93974  0.46530  0.05910  Biso   1.000  C
  C21      1.0000 0.43974  0.03470  0.55910  Biso   1.000  C
  C22      1.0000 0.56026  0.03470  0.94090  Biso   1.000  C
  C23      1.0000 0.93974  0.53470  0.55910  Biso   1.000  C
  C24      1.0000 0.06026  0.53470  0.94090  Biso   1.000  C
  N1       1.0000 0.40058  0.53190  0.33280  Biso   1.000  N
  N2       1.0000 0.59942  0.53190  0.16720  Biso   1.000  N
  N3       1.0000 0.90058  0.03190  0.33280  Biso   1.000  N
  N4       1.0000 0.09942  0.03190  0.16720  Biso   1.000  N
  N5       1.0000 0.59942  0.46810  0.66720  Biso   1.000  N
  N6       1.0000 0.40058  0.46810  0.83280  Biso   1.000  N
  N7       1.0000 0.09942  0.96810  0.66720  Biso   1.000  N
  N8       1.0000 0.90058  0.96810  0.83280  Biso   1.000  N
  N9       1.0000 0.34368  0.36130  0.28560  Biso   1.000  N
  N10      1.0000 0.65632  0.36130  0.21440  Biso   1.000  N
  N11      1.0000 0.84368  0.86130  0.28560  Biso   1.000  N
  N12      1.0000 0.15632  0.86130  0.21440  Biso   1.000  N
  N13      1.0000 0.65632  0.63870  0.71440  Biso   1.000  N
  N14      1.0000 0.34368  0.63870  0.78560  Biso   1.000  N
  N15      1.0000 0.15632  0.13870  0.71440  Biso   1.000  N
  N16      1.0000 0.84368  0.13870  0.78560  Biso   1.000  N
  N17      1.0000 0.28586  0.43750  0.18450  Biso   1.000  N
  N18      1.0000 0.71414  0.43750  0.31550  Biso   1.000  N
  N19      1.0000 0.78586  0.93750  0.18450  Biso   1.000  N
  N20      1.0000 0.21414  0.93750  0.31550  Biso   1.000  N
  N21      1.0000 0.71414  0.56250  0.81550  Biso   1.000  N
  N22      1.0000 0.28586  0.56250  0.68450  Biso   1.000  N
  N23      1.0000 0.21414  0.06250  0.81550  Biso   1.000  N
  N24      1.0000 0.78586  0.06250  0.68450  Biso   1.000  N
  N25      1.0000 0.30451  0.66180  0.16480  Biso   1.000  N
  N26      1.0000 0.69549  0.66180  0.33520  Biso   1.000  N
  N27      1.0000 0.80451  0.16180  0.16480  Biso   1.000  N
  N28      1.0000 0.19549  0.16180  0.33520  Biso   1.000  N
  N29      1.0000 0.69549  0.33820  0.83520  Biso   1.000  N
  N30      1.0000 0.30451  0.33820  0.66480  Biso   1.000  N
  N31      1.0000 0.19549  0.83820  0.83520  Biso   1.000  N
  N32      1.0000 0.80451  0.83820  0.66480  Biso   1.000  N
  N33      1.0000 0.54075  0.78280  0.46130  Biso   1.000  N
  N34      1.0000 0.45925  0.78280  0.03870  Biso   1.000  N
  N35      1.0000 0.04075  0.28280  0.46130  Biso   1.000  N
  N36      1.0000 0.95925  0.28280  0.03870  Biso   1.000  N
  N37      1.0000 0.45925  0.21720  0.53870  Biso   1.000  N
  N38      1.0000 0.54075  0.21720  0.96130  Biso   1.000  N
  N39      1.0000 0.95925  0.71720  0.53870  Biso   1.000  N
  N40      1.0000 0.04075  0.71720  0.96130  Biso   1.000  N
  S1       1.0000 0.58697  0.22104  0.41116  Biso   1.000  S
  S2       1.0000 0.41303  0.22104  0.08884  Biso   1.000  S
  S3       1.0000 0.08697  0.72104  0.41116  Biso   1.000  S
  S4       1.0000 0.91303  0.72104  0.08884  Biso   1.000  S
  S5       1.0000 0.41303  0.77896  0.58884  Biso   1.000  S
  S6       1.0000 0.58697  0.77896  0.91116  Biso   1.000  S
  S7       1.0000 0.91303  0.27896  0.58884  Biso   1.000  S
  S8       1.0000 0.08697  0.27896  0.91116  Biso   1.000  S
