data_image0
_cell_length_a       6.26
_cell_length_b       18.55
_cell_length_c       15.659
_cell_angle_alpha    90
_cell_angle_beta     91.78
_cell_angle_gamma    90

_symmetry_space_group_name_H-M    "P 1"
_symmetry_int_tables_number       1

loop_
  _symmetry_equiv_pos_as_xyz
  'x, y, z'

loop_
  _atom_site_label
  _atom_site_occupancy
  _atom_site_fract_x
  _atom_site_fract_y
  _atom_site_fract_z
  _atom_site_thermal_displace_type
  _atom_site_B_iso_or_equiv
  _atom_site_type_symbol
  Cu1      1.0000 0.52200  0.49596  0.21850  Biso   1.000  Cu
  Cu2      1.0000 0.97800  0.99596  0.28150  Biso   1.000  Cu
  Cu3      1.0000 0.47800  0.50404  0.78150  Biso   1.000  Cu
  Cu4      1.0000 0.02200  0.00404  0.71850  Biso   1.000  Cu
  C1       1.0000 0.62200  0.35390  0.24970  Biso   1.000  C
  C2       1.0000 0.87800  0.85390  0.25030  Biso   1.000  C
  C3       1.0000 0.37800  0.64610  0.75030  Biso   1.000  C
  C4       1.0000 0.12200  0.14610  0.74970  Biso   1.000  C
  C5       1.0000 0.41300  0.36740  0.29780  Biso   1.000  C
  C6       1.0000 0.08700  0.86740  0.20220  Biso   1.000  C
  C7       1.0000 0.58700  0.63260  0.70220  Biso   1.000  C
  C8       1.0000 0.91300  0.13260  0.79780  Biso   1.000  C
  C9       1.0000 0.28500  0.29780  0.31420  Biso   1.000  C
  C10      1.0000 0.21500  0.79780  0.18580  Biso   1.000  C
  C11      1.0000 0.71500  0.70220  0.68580  Biso   1.000  C
  C12      1.0000 0.78500  0.20220  0.81420  Biso   1.000  C
  C13      1.0000 0.34700  0.25990  0.39710  Biso   1.000  C
  C14      1.0000 0.15300  0.75990  0.10290  Biso   1.000  C
  C15      1.0000 0.65300  0.74010  0.60290  Biso   1.000  C
  C16      1.0000 0.84700  0.24010  0.89710  Biso   1.000  C
  C17      1.0000 0.19300  0.39780  0.17030  Biso   1.000  C
  C18      1.0000 0.30700  0.89780  0.32970  Biso   1.000  C
  C19      1.0000 0.80700  0.60220  0.82970  Biso   1.000  C
  C20      1.0000 0.69300  0.10220  0.67030  Biso   1.000  C
  C21      1.0000 0.17300  0.45840  0.10600  Biso   1.000  C
  C22      1.0000 0.32700  0.95840  0.39400  Biso   1.000  C
  C23      1.0000 0.82700  0.54160  0.89400  Biso   1.000  C
  C24      1.0000 0.67300  0.04160  0.60600  Biso   1.000  C
  C25      1.0000 0.13800  0.46240  0.30440  Biso   1.000  C
  C26      1.0000 0.36200  0.96240  0.19560  Biso   1.000  C
  C27      1.0000 0.86200  0.53760  0.69560  Biso   1.000  C
  C28      1.0000 0.63800  0.03760  0.80440  Biso   1.000  C
  C29      1.0000 0.21500  0.53650  0.33110  Biso   1.000  C
  C30      1.0000 0.28500  0.03650  0.16890  Biso   1.000  C
  C31      1.0000 0.78500  0.46350  0.66890  Biso   1.000  C
  C32      1.0000 0.71500  0.96350  0.83110  Biso   1.000  C
  C33      1.0000 0.66400  0.21730  0.48110  Biso   1.000  C
  C34      1.0000 0.83600  0.71730  0.01890  Biso   1.000  C
  C35      1.0000 0.33600  0.78270  0.51890  Biso   1.000  C
  C36      1.0000 0.16400  0.28270  0.98110  Biso   1.000  C
  C37      1.0000 0.78600  0.28390  0.50840  Biso   1.000  C
  C38      1.0000 0.71400  0.78390  0.99160  Biso   1.000  C
  C39      1.0000 0.21400  0.71610  0.49160  Biso   1.000  C
  C40      1.0000 0.28600  0.21610  0.00840  Biso   1.000  C
  C41      1.0000 0.53800  0.14960  0.35270  Biso   1.000  C
  C42      1.0000 0.96200  0.64960  0.14730  Biso   1.000  C
  C43      1.0000 0.46200  0.85040  0.64730  Biso   1.000  C
  C44      1.0000 0.03800  0.35040  0.85270  Biso   1.000  C
  C45      1.0000 0.75200  0.11800  0.33220  Biso   1.000  C
  C46      1.0000 0.74800  0.61800  0.16780  Biso   1.000  C
  C47      1.0000 0.24800  0.88200  0.66780  Biso   1.000  C
  C48      1.0000 0.25200  0.38200  0.83220  Biso   1.000  C
  N1       1.0000 0.29500  0.42400  0.25090  Biso   1.000  N
  N2       1.0000 0.20500  0.92400  0.24910  Biso   1.000  N
  N3       1.0000 0.70500  0.57600  0.74910  Biso   1.000  N
  N4       1.0000 0.79500  0.07600  0.75090  Biso   1.000  N
  N5       1.0000 0.56100  0.22210  0.39410  Biso   1.000  N
  N6       1.0000 0.93900  0.72210  0.10590  Biso   1.000  N
  N7       1.0000 0.43900  0.77790  0.60590  Biso   1.000  N
  N8       1.0000 0.06100  0.27790  0.89410  Biso   1.000  N
  O1       1.0000 0.69000  0.40670  0.20760  Biso   1.000  O
  O2       1.0000 0.81000  0.90670  0.29240  Biso   1.000  O
  O3       1.0000 0.31000  0.59330  0.79240  Biso   1.000  O
  O4       1.0000 0.19000  0.09330  0.70760  Biso   1.000  O
  O5       1.0000 0.71300  0.29500  0.25630  Biso   1.000  O
  O6       1.0000 0.78700  0.79500  0.24370  Biso   1.000  O
  O7       1.0000 0.28700  0.70500  0.74370  Biso   1.000  O
  O8       1.0000 0.21300  0.20500  0.75630  Biso   1.000  O
  O9       1.0000 0.28900  0.51180  0.11330  Biso   1.000  O
  O10      1.0000 0.21100  0.01180  0.38670  Biso   1.000  O
  O11      1.0000 0.71100  0.48820  0.88670  Biso   1.000  O
  O12      1.0000 0.78900  0.98820  0.61330  Biso   1.000  O
  O13      1.0000 0.03300  0.44690  0.04710  Biso   1.000  O
  O14      1.0000 0.46700  0.94690  0.45290  Biso   1.000  O
  O15      1.0000 0.96700  0.55310  0.95290  Biso   1.000  O
  O16      1.0000 0.53300  0.05310  0.54710  Biso   1.000  O
  O17      1.0000 0.38200  0.56040  0.30300  Biso   1.000  O
  O18      1.0000 0.11800  0.06040  0.19700  Biso   1.000  O
  O19      1.0000 0.61800  0.43960  0.69700  Biso   1.000  O
  O20      1.0000 0.88200  0.93960  0.80300  Biso   1.000  O
  O21      1.0000 0.09500  0.56990  0.38170  Biso   1.000  O
  O22      1.0000 0.40500  0.06990  0.11830  Biso   1.000  O
  O23      1.0000 0.90500  0.43010  0.61830  Biso   1.000  O
  O24      1.0000 0.59500  0.93010  0.88170  Biso   1.000  O
  O25      1.0000 0.73700  0.05220  0.30850  Biso   1.000  O
  O26      1.0000 0.76300  0.55220  0.19150  Biso   1.000  O
  O27      1.0000 0.26300  0.94780  0.69150  Biso   1.000  O
  O28      1.0000 0.23700  0.44780  0.80850  Biso   1.000  O
  O29      1.0000 0.91200  0.15480  0.33720  Biso   1.000  O
  O30      1.0000 0.58800  0.65480  0.16280  Biso   1.000  O
  O31      1.0000 0.08800  0.84520  0.66280  Biso   1.000  O
  O32      1.0000 0.41200  0.34520  0.83720  Biso   1.000  O
  O33      1.0000 0.73600  0.33980  0.45500  Biso   1.000  O
  O34      1.0000 0.76400  0.83980  0.04500  Biso   1.000  O
  O35      1.0000 0.26400  0.66020  0.54500  Biso   1.000  O
  O36      1.0000 0.23600  0.16020  0.95500  Biso   1.000  O
  O37      1.0000 0.90100  0.27410  0.57560  Biso   1.000  O
  O38      1.0000 0.59900  0.77410  0.92440  Biso   1.000  O
  O39      1.0000 0.09900  0.72590  0.42440  Biso   1.000  O
  O40      1.0000 0.40100  0.22590  0.07560  Biso   1.000  O
  H1       1.0000 0.48770  0.38620  0.35920  Biso   1.000  H
  H2       1.0000 0.01230  0.88620  0.14080  Biso   1.000  H
  H3       1.0000 0.51230  0.61380  0.64080  Biso   1.000  H
  H4       1.0000 0.98770  0.11380  0.85920  Biso   1.000  H
  H5       1.0000 0.64470  0.25210  0.35770  Biso   1.000  H
  H6       1.0000 0.85530  0.75210  0.14230  Biso   1.000  H
  H7       1.0000 0.35530  0.74790  0.64230  Biso   1.000  H
  H8       1.0000 0.14470  0.24790  0.85770  Biso   1.000  H
  H9       1.0000 0.13660  0.31400  0.31090  Biso   1.000  H
  H10      1.0000 0.36340  0.81400  0.18910  Biso   1.000  H
  H11      1.0000 0.86340  0.68600  0.68910  Biso   1.000  H
  H12      1.0000 0.63660  0.18600  0.81090  Biso   1.000  H
  H13      1.0000 0.29030  0.26620  0.26270  Biso   1.000  H
  H14      1.0000 0.20970  0.76620  0.23730  Biso   1.000  H
  H15      1.0000 0.70970  0.73380  0.73730  Biso   1.000  H
  H16      1.0000 0.79030  0.23380  0.76270  Biso   1.000  H
  H17      1.0000 0.34980  0.29610  0.43700  Biso   1.000  H
  H18      1.0000 0.15020  0.79610  0.06300  Biso   1.000  H
  H19      1.0000 0.65020  0.70390  0.56300  Biso   1.000  H
  H20      1.0000 0.84980  0.20390  0.93700  Biso   1.000  H
  H21      1.0000 0.24190  0.22590  0.42090  Biso   1.000  H
  H22      1.0000 0.25810  0.72590  0.07910  Biso   1.000  H
  H23      1.0000 0.75810  0.77410  0.57910  Biso   1.000  H
  H24      1.0000 0.74190  0.27410  0.92090  Biso   1.000  H
  H25      1.0000 0.07510  0.37410  0.18260  Biso   1.000  H
  H26      1.0000 0.42490  0.87410  0.31740  Biso   1.000  H
  H27      1.0000 0.92490  0.62590  0.81740  Biso   1.000  H
  H28      1.0000 0.57510  0.12590  0.68260  Biso   1.000  H
  H29      1.0000 0.29060  0.36990  0.13960  Biso   1.000  H
  H30      1.0000 0.20940  0.86990  0.36040  Biso   1.000  H
  H31      1.0000 0.70940  0.63010  0.86040  Biso   1.000  H
  H32      1.0000 0.79060  0.13010  0.63960  Biso   1.000  H
  H33      1.0000 0.12590  0.44100  0.35310  Biso   1.000  H
  H34      1.0000 0.37410  0.94100  0.14690  Biso   1.000  H
  H35      1.0000 0.87410  0.55900  0.64690  Biso   1.000  H
  H36      1.0000 0.62590  0.05900  0.85310  Biso   1.000  H
  H37      1.0000 0.00430  0.46430  0.26580  Biso   1.000  H
  H38      1.0000 0.49570  0.96430  0.23420  Biso   1.000  H
  H39      1.0000 0.99570  0.53570  0.73420  Biso   1.000  H
  H40      1.0000 0.50430  0.03570  0.76580  Biso   1.000  H
  H41      1.0000 0.56930  0.20710  0.51680  Biso   1.000  H
  H42      1.0000 0.93070  0.70710  0.98320  Biso   1.000  H
  H43      1.0000 0.43070  0.79290  0.48320  Biso   1.000  H
  H44      1.0000 0.06930  0.29290  0.01680  Biso   1.000  H
  H45      1.0000 0.74780  0.18410  0.48110  Biso   1.000  H
  H46      1.0000 0.75220  0.68410  0.01890  Biso   1.000  H
  H47      1.0000 0.25220  0.81590  0.51890  Biso   1.000  H
  H48      1.0000 0.24780  0.31590  0.98110  Biso   1.000  H
  H49      1.0000 0.46030  0.15670  0.30490  Biso   1.000  H
  H50      1.0000 0.03970  0.65670  0.19510  Biso   1.000  H
  H51      1.0000 0.53970  0.84330  0.69510  Biso   1.000  H
  H52      1.0000 0.96030  0.34330  0.80490  Biso   1.000  H
  H53      1.0000 0.46600  0.11630  0.38880  Biso   1.000  H
  H54      1.0000 0.03400  0.61630  0.11120  Biso   1.000  H
  H55      1.0000 0.53400  0.88370  0.61120  Biso   1.000  H
  H56      1.0000 0.96600  0.38370  0.88880  Biso   1.000  H
  O41      1.0000 0.90400  0.88020  0.48100  Biso   1.000  O
  O42      1.0000 0.59600  0.38020  0.01900  Biso   1.000  O
  O43      1.0000 0.09600  0.11980  0.51900  Biso   1.000  O
  O44      1.0000 0.40400  0.61980  0.98100  Biso   1.000  O
  O45      1.0000 0.23100  0.51900  0.57400  Biso   1.000  O
  O46      1.0000 0.26900  0.01900  0.92600  Biso   1.000  O
  O47      1.0000 0.76900  0.48100  0.42600  Biso   1.000  O
  O48      1.0000 0.73100  0.98100  0.07400  Biso   1.000  O
  O49      1.0000 0.73500  0.59100  0.46500  Biso   1.000  O
  O50      1.0000 0.76500  0.09100  0.03500  Biso   1.000  O
  O51      1.0000 0.26500  0.40900  0.53500  Biso   1.000  O
  O52      1.0000 0.23500  0.90900  0.96500  Biso   1.000  O
  O53      1.0000 0.69300  0.68200  0.36800  Biso   1.000  O
  O54      1.0000 0.80700  0.18200  0.13200  Biso   1.000  O
  O55      1.0000 0.30700  0.31800  0.63200  Biso   1.000  O
  O56      1.0000 0.19300  0.81800  0.86800  Biso   1.000  O
  O57      1.0000 0.84500  0.32910  0.45500  Biso   1.000  O
  O58      1.0000 0.65500  0.82910  0.04500  Biso   1.000  O
  O59      1.0000 0.15500  0.67090  0.54500  Biso   1.000  O
  O60      1.0000 0.34500  0.17090  0.95500  Biso   1.000  O
  O61      1.0000 0.78700  0.29300  0.58700  Biso   1.000  O
  O62      1.0000 0.71300  0.79300  0.91300  Biso   1.000  O
  O63      1.0000 0.21300  0.70700  0.41300  Biso   1.000  O
  O64      1.0000 0.28700  0.20700  0.08700  Biso   1.000  O
  O65      1.0000 0.48200  0.53000  0.53200  Biso   1.000  O
  O66      1.0000 0.01800  0.03000  0.96800  Biso   1.000  O
  O67      1.0000 0.51800  0.47000  0.46800  Biso   1.000  O
  O68      1.0000 0.98200  0.97000  0.03200  Biso   1.000  O
  O69      1.0000 0.56700  0.70000  0.35600  Biso   1.000  O
  O70      1.0000 0.93300  0.20000  0.14400  Biso   1.000  O
  O71      1.0000 0.43300  0.30000  0.64400  Biso   1.000  O
  O72      1.0000 0.06700  0.80000  0.85600  Biso   1.000  O
  H57      1.0000 0.02000  0.47920  0.03060  Biso   1.000  H
  H58      1.0000 0.48000  0.97920  0.46940  Biso   1.000  H
  H59      1.0000 0.98000  0.52080  0.96940  Biso   1.000  H
  H60      1.0000 0.52000  0.02080  0.53060  Biso   1.000  H
