data_image0
_cell_length_a       8.807
_cell_length_b       11.139
_cell_length_c       11.291
_cell_angle_alpha    75.337
_cell_angle_beta     73.584
_cell_angle_gamma    66.795

_symmetry_space_group_name_H-M    "P 1"
_symmetry_int_tables_number       1

loop_
  _symmetry_equiv_pos_as_xyz
  'x, y, z'

loop_
  _atom_site_label
  _atom_site_occupancy
  _atom_site_fract_x
  _atom_site_fract_y
  _atom_site_fract_z
  _atom_site_thermal_displace_type
  _atom_site_B_iso_or_equiv
  _atom_site_type_symbol
  Cu1      1.0000 0.50000  0.50000  0.00000  Biso   1.000  Cu
  Cu2      1.0000 0.50000  0.00000  0.00000  Biso   1.000  Cu
  S1       1.0000 0.99950  0.27876  0.49718  Biso   1.000  S
  S2       1.0000 0.00050  0.72124  0.50282  Biso   1.000  S
  O1       1.0000 0.33220  0.68880  0.02030  Biso   1.000  O
  O2       1.0000 0.66780  0.31120  0.97970  Biso   1.000  O
  O3       1.0000 0.47060  0.82990  0.97660  Biso   1.000  O
  O4       1.0000 0.52940  0.17010  0.02340  Biso   1.000  O
  O5       1.0000 0.30460  0.01270  0.15800  Biso   1.000  O
  O6       1.0000 0.69540  0.98730  0.84200  Biso   1.000  O
  O7       1.0000 0.08690  0.98740  0.30340  Biso   1.000  O
  O8       1.0000 0.91310  0.01260  0.69660  Biso   1.000  O
  O9       1.0000 0.31240  0.43320  0.12830  Biso   1.000  O
  O10      1.0000 0.68760  0.56680  0.87170  Biso   1.000  O
  H1       1.0000 0.27450  0.47360  0.18770  Biso   1.000  H
  H2       1.0000 0.72550  0.52640  0.81230  Biso   1.000  H
  H3       1.0000 0.35680  0.35250  0.14990  Biso   1.000  H
  H4       1.0000 0.64320  0.64750  0.85010  Biso   1.000  H
  O11      1.0000 0.77240  0.07670  0.47750  Biso   1.000  O
  O12      1.0000 0.22760  0.92330  0.52250  Biso   1.000  O
  H5       1.0000 0.77880  0.10440  0.53710  Biso   1.000  H
  H6       1.0000 0.22120  0.89560  0.46290  Biso   1.000  H
  H7       1.0000 0.86070  0.06260  0.42300  Biso   1.000  H
  H8       1.0000 0.13930  0.93740  0.57700  Biso   1.000  H
  O13      1.0000 0.26620  0.21690  0.26580  Biso   1.000  O
  O14      1.0000 0.73380  0.78310  0.73420  Biso   1.000  O
  H9       1.0000 0.22990  0.18240  0.21860  Biso   1.000  H
  H10      1.0000 0.77010  0.81760  0.78140  Biso   1.000  H
  H11      1.0000 0.35800  0.22540  0.22270  Biso   1.000  H
  H12      1.0000 0.64200  0.77460  0.77730  Biso   1.000  H
  O15      1.0000 0.51270  0.77020  0.61990  Biso   1.000  O
  O16      1.0000 0.48730  0.22980  0.38010  Biso   1.000  O
  H13      1.0000 0.58220  0.77420  0.65640  Biso   1.000  H
  H14      1.0000 0.41780  0.22580  0.34360  Biso   1.000  H
  H15      1.0000 0.45430  0.84660  0.59280  Biso   1.000  H
  H16      1.0000 0.54570  0.15340  0.40720  Biso   1.000  H
  N1       1.0000 0.62040  0.49740  0.14630  Biso   1.000  N
  N2       1.0000 0.37960  0.50260  0.85370  Biso   1.000  N
  N3       1.0000 0.77220  0.49700  0.55240  Biso   1.000  N
  N4       1.0000 0.22780  0.50300  0.44760  Biso   1.000  N
  N5       1.0000 0.86050  0.44700  0.64790  Biso   1.000  N
  N6       1.0000 0.13950  0.55300  0.35210  Biso   1.000  N
  N7       1.0000 0.33560  0.12710  0.87140  Biso   1.000  N
  N8       1.0000 0.66440  0.87290  0.12860  Biso   1.000  N
  C1       1.0000 0.54040  0.56990  0.23930  Biso   1.000  C
  C2       1.0000 0.45960  0.43010  0.76070  Biso   1.000  C
  H17      1.0000 0.43700  0.63690  0.23280  Biso   1.000  H
  H18      1.0000 0.56300  0.36310  0.76720  Biso   1.000  H
  C3       1.0000 0.60540  0.54930  0.34530  Biso   1.000  C
  C4       1.0000 0.39460  0.45070  0.65470  Biso   1.000  C
  H19      1.0000 0.54630  0.60060  0.40830  Biso   1.000  H
  H20      1.0000 0.45370  0.39940  0.59170  Biso   1.000  H
  C5       1.0000 0.76030  0.45030  0.35410  Biso   1.000  C
  C6       1.0000 0.23970  0.54970  0.64590  Biso   1.000  C
  C7       1.0000 0.84790  0.38130  0.25530  Biso   1.000  C
  C8       1.0000 0.15210  0.61870  0.74470  Biso   1.000  C
  H21      1.0000 0.95480  0.31790  0.25680  Biso   1.000  H
  H22      1.0000 0.04520  0.68210  0.74320  Biso   1.000  H
  C9       1.0000 0.77260  0.40880  0.15300  Biso   1.000  C
  C10      1.0000 0.22740  0.59120  0.84700  Biso   1.000  C
  H23      1.0000 0.83240  0.36240  0.08650  Biso   1.000  H
  H24      1.0000 0.16760  0.63760  0.91350  Biso   1.000  H
  C11      1.0000 0.83100  0.42050  0.46770  Biso   1.000  C
  C12      1.0000 0.16900  0.57950  0.53230  Biso   1.000  C
  C13      1.0000 0.98350  0.33340  0.63040  Biso   1.000  C
  C14      1.0000 0.01650  0.66660  0.36960  Biso   1.000  C
  C15      1.0000 0.10580  0.26190  0.71420  Biso   1.000  C
  C16      1.0000 0.89420  0.73810  0.28580  Biso   1.000  C
  C17      1.0000 0.08140  0.30160  0.82840  Biso   1.000  C
  C18      1.0000 0.91860  0.69840  0.17160  Biso   1.000  C
  H25      1.0000 0.98760  0.37310  0.85400  Biso   1.000  H
  H26      1.0000 0.01240  0.62690  0.14600  Biso   1.000  H
  C19      1.0000 0.20120  0.23120  0.90280  Biso   1.000  C
  C20      1.0000 0.79880  0.76880  0.09720  Biso   1.000  C
  H27      1.0000 0.18610  0.25860  0.97790  Biso   1.000  H
  H28      1.0000 0.81390  0.74140  0.02210  Biso   1.000  H
  C21      1.0000 0.25090  0.15490  0.68010  Biso   1.000  C
  C22      1.0000 0.74910  0.84510  0.31990  Biso   1.000  C
  H29      1.0000 0.27320  0.12830  0.60340  Biso   1.000  H
  H30      1.0000 0.72680  0.87170  0.39660  Biso   1.000  H
  C23      1.0000 0.35990  0.08950  0.76010  Biso   1.000  C
  C24      1.0000 0.64010  0.91050  0.23990  Biso   1.000  C
  H31      1.0000 0.45400  0.01680  0.73730  Biso   1.000  H
  H32      1.0000 0.54600  0.98320  0.26270  Biso   1.000  H
  C25      1.0000 0.33960  0.80350  0.99890  Biso   1.000  C
  C26      1.0000 0.66040  0.19650  0.00110  Biso   1.000  C
  C27      1.0000 0.16610  0.91220  0.00030  Biso   1.000  C
  C28      1.0000 0.83390  0.08780  0.99970  Biso   1.000  C
  C29      1.0000 0.08260  0.99120  0.09380  Biso   1.000  C
  C30      1.0000 0.91740  0.00880  0.90620  Biso   1.000  C
  C31      1.0000 0.16500  0.99490  0.19430  Biso   1.000  C
  C32      1.0000 0.83500  0.00510  0.80570  Biso   1.000  C
  C33      1.0000 0.08320  0.92310  0.90700  Biso   1.000  C
  C34      1.0000 0.91680  0.07690  0.09300  Biso   1.000  C
  H33      1.0000 0.14010  0.87190  0.84370  Biso   1.000  H
  H34      1.0000 0.85990  0.12810  0.15630  Biso   1.000  H
