data_image0
_cell_length_a       18.6
_cell_length_b       9.711
_cell_length_c       19.362
_cell_angle_alpha    90
_cell_angle_beta     99.346
_cell_angle_gamma    90

_symmetry_space_group_name_H-M    "P 1"
_symmetry_int_tables_number       1

loop_
  _symmetry_equiv_pos_as_xyz
  'x, y, z'

loop_
  _atom_site_label
  _atom_site_occupancy
  _atom_site_fract_x
  _atom_site_fract_y
  _atom_site_fract_z
  _atom_site_thermal_displace_type
  _atom_site_B_iso_or_equiv
  _atom_site_type_symbol
  C1       1.0000 0.12380  0.73030  0.21170  Biso   1.000  C
  C2       1.0000 0.87620  0.73030  0.28830  Biso   1.000  C
  C3       1.0000 0.62380  0.23030  0.21170  Biso   1.000  C
  C4       1.0000 0.37620  0.23030  0.28830  Biso   1.000  C
  C5       1.0000 0.87620  0.26970  0.78830  Biso   1.000  C
  C6       1.0000 0.12380  0.26970  0.71170  Biso   1.000  C
  C7       1.0000 0.37620  0.76970  0.78830  Biso   1.000  C
  C8       1.0000 0.62380  0.76970  0.71170  Biso   1.000  C
  C9       1.0000 0.19740  0.73150  0.19120  Biso   1.000  C
  C10      1.0000 0.80260  0.73150  0.30880  Biso   1.000  C
  C11      1.0000 0.69740  0.23150  0.19120  Biso   1.000  C
  C12      1.0000 0.30260  0.23150  0.30880  Biso   1.000  C
  C13      1.0000 0.80260  0.26850  0.80880  Biso   1.000  C
  C14      1.0000 0.19740  0.26850  0.69120  Biso   1.000  C
  C15      1.0000 0.30260  0.76850  0.80880  Biso   1.000  C
  C16      1.0000 0.69740  0.76850  0.69120  Biso   1.000  C
  C17      1.0000 0.22700  0.85160  0.17010  Biso   1.000  C
  C18      1.0000 0.77300  0.85160  0.32990  Biso   1.000  C
  C19      1.0000 0.72700  0.35160  0.17010  Biso   1.000  C
  C20      1.0000 0.27300  0.35160  0.32990  Biso   1.000  C
  C21      1.0000 0.77300  0.14840  0.82990  Biso   1.000  C
  C22      1.0000 0.22700  0.14840  0.67010  Biso   1.000  C
  C23      1.0000 0.27300  0.64840  0.82990  Biso   1.000  C
  C24      1.0000 0.72700  0.64840  0.67010  Biso   1.000  C
  H1       1.0000 0.20100  0.93360  0.16950  Biso   1.000  H
  H2       1.0000 0.79900  0.93360  0.33050  Biso   1.000  H
  H3       1.0000 0.70100  0.43360  0.16950  Biso   1.000  H
  H4       1.0000 0.29900  0.43360  0.33050  Biso   1.000  H
  H5       1.0000 0.79900  0.06640  0.83050  Biso   1.000  H
  H6       1.0000 0.20100  0.06640  0.66950  Biso   1.000  H
  H7       1.0000 0.29900  0.56640  0.83050  Biso   1.000  H
  H8       1.0000 0.70100  0.56640  0.66950  Biso   1.000  H
  C25      1.0000 0.29400  0.85140  0.15010  Biso   1.000  C
  C26      1.0000 0.70600  0.85140  0.34990  Biso   1.000  C
  C27      1.0000 0.79400  0.35140  0.15010  Biso   1.000  C
  C28      1.0000 0.20600  0.35140  0.34990  Biso   1.000  C
  C29      1.0000 0.70600  0.14860  0.84990  Biso   1.000  C
  C30      1.0000 0.29400  0.14860  0.65010  Biso   1.000  C
  C31      1.0000 0.20600  0.64860  0.84990  Biso   1.000  C
  C32      1.0000 0.79400  0.64860  0.65010  Biso   1.000  C
  H9       1.0000 0.31360  0.93290  0.13610  Biso   1.000  H
  H10      1.0000 0.68640  0.93290  0.36390  Biso   1.000  H
  H11      1.0000 0.81360  0.43290  0.13610  Biso   1.000  H
  H12      1.0000 0.18640  0.43290  0.36390  Biso   1.000  H
  H13      1.0000 0.68640  0.06710  0.86390  Biso   1.000  H
  H14      1.0000 0.31360  0.06710  0.63610  Biso   1.000  H
  H15      1.0000 0.18640  0.56710  0.86390  Biso   1.000  H
  H16      1.0000 0.81360  0.56710  0.63610  Biso   1.000  H
  C33      1.0000 0.33230  0.73170  0.15040  Biso   1.000  C
  C34      1.0000 0.66770  0.73170  0.34960  Biso   1.000  C
  C35      1.0000 0.83230  0.23170  0.15040  Biso   1.000  C
  C36      1.0000 0.16770  0.23170  0.34960  Biso   1.000  C
  C37      1.0000 0.66770  0.26830  0.84960  Biso   1.000  C
  C38      1.0000 0.33230  0.26830  0.65040  Biso   1.000  C
  C39      1.0000 0.16770  0.76830  0.84960  Biso   1.000  C
  C40      1.0000 0.83230  0.76830  0.65040  Biso   1.000  C
  H17      1.0000 0.37690  0.73130  0.13470  Biso   1.000  H
  H18      1.0000 0.62310  0.73130  0.36530  Biso   1.000  H
  H19      1.0000 0.87690  0.23130  0.13470  Biso   1.000  H
  H20      1.0000 0.12310  0.23130  0.36530  Biso   1.000  H
  H21      1.0000 0.62310  0.26870  0.86530  Biso   1.000  H
  H22      1.0000 0.37690  0.26870  0.63470  Biso   1.000  H
  H23      1.0000 0.12310  0.76870  0.86530  Biso   1.000  H
  H24      1.0000 0.87690  0.76870  0.63470  Biso   1.000  H
  C41      1.0000 0.30580  0.61330  0.17360  Biso   1.000  C
  C42      1.0000 0.69420  0.61330  0.32640  Biso   1.000  C
  C43      1.0000 0.80580  0.11330  0.17360  Biso   1.000  C
  C44      1.0000 0.19420  0.11330  0.32640  Biso   1.000  C
  C45      1.0000 0.69420  0.38670  0.82640  Biso   1.000  C
  C46      1.0000 0.30580  0.38670  0.67360  Biso   1.000  C
  C47      1.0000 0.19420  0.88670  0.82640  Biso   1.000  C
  C48      1.0000 0.80580  0.88670  0.67360  Biso   1.000  C
  H25      1.0000 0.33320  0.53290  0.17570  Biso   1.000  H
  H26      1.0000 0.66680  0.53290  0.32430  Biso   1.000  H
  H27      1.0000 0.83320  0.03290  0.17570  Biso   1.000  H
  H28      1.0000 0.16680  0.03290  0.32430  Biso   1.000  H
  H29      1.0000 0.66680  0.46710  0.82430  Biso   1.000  H
  H30      1.0000 0.33320  0.46710  0.67570  Biso   1.000  H
  H31      1.0000 0.16680  0.96710  0.82430  Biso   1.000  H
  H32      1.0000 0.83320  0.96710  0.67570  Biso   1.000  H
  C49      1.0000 0.23770  0.61230  0.19410  Biso   1.000  C
  C50      1.0000 0.76230  0.61230  0.30590  Biso   1.000  C
  C51      1.0000 0.73770  0.11230  0.19410  Biso   1.000  C
  C52      1.0000 0.26230  0.11230  0.30590  Biso   1.000  C
  C53      1.0000 0.76230  0.38770  0.80590  Biso   1.000  C
  C54      1.0000 0.23770  0.38770  0.69410  Biso   1.000  C
  C55      1.0000 0.26230  0.88770  0.80590  Biso   1.000  C
  C56      1.0000 0.73770  0.88770  0.69410  Biso   1.000  C
  H33      1.0000 0.21940  0.53110  0.20990  Biso   1.000  H
  H34      1.0000 0.78060  0.53110  0.29010  Biso   1.000  H
  H35      1.0000 0.71940  0.03110  0.20990  Biso   1.000  H
  H36      1.0000 0.28060  0.03110  0.29010  Biso   1.000  H
  H37      1.0000 0.78060  0.46890  0.79010  Biso   1.000  H
  H38      1.0000 0.21940  0.46890  0.70990  Biso   1.000  H
  H39      1.0000 0.28060  0.96890  0.79010  Biso   1.000  H
  H40      1.0000 0.71940  0.96890  0.70990  Biso   1.000  H
  C57      1.0000 0.06490  0.72250  0.37690  Biso   1.000  C
  C58      1.0000 0.93510  0.72250  0.12310  Biso   1.000  C
  C59      1.0000 0.56490  0.22250  0.37690  Biso   1.000  C
  C60      1.0000 0.43510  0.22250  0.12310  Biso   1.000  C
  C61      1.0000 0.93510  0.27750  0.62310  Biso   1.000  C
  C62      1.0000 0.06490  0.27750  0.87690  Biso   1.000  C
  C63      1.0000 0.43510  0.77750  0.62310  Biso   1.000  C
  C64      1.0000 0.56490  0.77750  0.87690  Biso   1.000  C
  C65      1.0000 0.10510  0.71800  0.44820  Biso   1.000  C
  C66      1.0000 0.89490  0.71800  0.05180  Biso   1.000  C
  C67      1.0000 0.60510  0.21800  0.44820  Biso   1.000  C
  C68      1.0000 0.39490  0.21800  0.05180  Biso   1.000  C
  C69      1.0000 0.89490  0.28200  0.55180  Biso   1.000  C
  C70      1.0000 0.10510  0.28200  0.94820  Biso   1.000  C
  C71      1.0000 0.39490  0.78200  0.55180  Biso   1.000  C
  C72      1.0000 0.60510  0.78200  0.94820  Biso   1.000  C
  C73      1.0000 0.14070  0.83360  0.47850  Biso   1.000  C
  C74      1.0000 0.85930  0.83360  0.02150  Biso   1.000  C
  C75      1.0000 0.64070  0.33360  0.47850  Biso   1.000  C
  C76      1.0000 0.35930  0.33360  0.02150  Biso   1.000  C
  C77      1.0000 0.85930  0.16640  0.52150  Biso   1.000  C
  C78      1.0000 0.14070  0.16640  0.97850  Biso   1.000  C
  C79      1.0000 0.35930  0.66640  0.52150  Biso   1.000  C
  C80      1.0000 0.64070  0.66640  0.97850  Biso   1.000  C
  H41      1.0000 0.13980  0.91510  0.45320  Biso   1.000  H
  H42      1.0000 0.86020  0.91510  0.04680  Biso   1.000  H
  H43      1.0000 0.63980  0.41510  0.45320  Biso   1.000  H
  H44      1.0000 0.36020  0.41510  0.04680  Biso   1.000  H
  H45      1.0000 0.86020  0.08490  0.54680  Biso   1.000  H
  H46      1.0000 0.13980  0.08490  0.95320  Biso   1.000  H
  H47      1.0000 0.36020  0.58490  0.54680  Biso   1.000  H
  H48      1.0000 0.63980  0.58490  0.95320  Biso   1.000  H
  C81      1.0000 0.17730  0.82790  0.54560  Biso   1.000  C
  C82      1.0000 0.82270  0.82790  0.95440  Biso   1.000  C
  C83      1.0000 0.67730  0.32790  0.54560  Biso   1.000  C
  C84      1.0000 0.32270  0.32790  0.95440  Biso   1.000  C
  C85      1.0000 0.82270  0.17210  0.45440  Biso   1.000  C
  C86      1.0000 0.17730  0.17210  0.04560  Biso   1.000  C
  C87      1.0000 0.32270  0.67210  0.45440  Biso   1.000  C
  C88      1.0000 0.67730  0.67210  0.04560  Biso   1.000  C
  H49      1.0000 0.20140  0.90590  0.56530  Biso   1.000  H
  H50      1.0000 0.79860  0.90590  0.93470  Biso   1.000  H
  H51      1.0000 0.70140  0.40590  0.56530  Biso   1.000  H
  H52      1.0000 0.29860  0.40590  0.93470  Biso   1.000  H
  H53      1.0000 0.79860  0.09410  0.43470  Biso   1.000  H
  H54      1.0000 0.20140  0.09410  0.06530  Biso   1.000  H
  H55      1.0000 0.29860  0.59410  0.43470  Biso   1.000  H
  H56      1.0000 0.70140  0.59410  0.06530  Biso   1.000  H
  C89      1.0000 0.17930  0.71110  0.58420  Biso   1.000  C
  C90      1.0000 0.82070  0.71110  0.91580  Biso   1.000  C
  C91      1.0000 0.67930  0.21110  0.58420  Biso   1.000  C
  C92      1.0000 0.32070  0.21110  0.91580  Biso   1.000  C
  C93      1.0000 0.82070  0.28890  0.41580  Biso   1.000  C
  C94      1.0000 0.17930  0.28890  0.08420  Biso   1.000  C
  C95      1.0000 0.32070  0.78890  0.41580  Biso   1.000  C
  C96      1.0000 0.67930  0.78890  0.08420  Biso   1.000  C
  H57      1.0000 0.20470  0.70840  0.62960  Biso   1.000  H
  H58      1.0000 0.79530  0.70840  0.87040  Biso   1.000  H
  H59      1.0000 0.70470  0.20840  0.62960  Biso   1.000  H
  H60      1.0000 0.29530  0.20840  0.87040  Biso   1.000  H
  H61      1.0000 0.79530  0.29160  0.37040  Biso   1.000  H
  H62      1.0000 0.20470  0.29160  0.12960  Biso   1.000  H
  H63      1.0000 0.29530  0.79160  0.37040  Biso   1.000  H
  H64      1.0000 0.70470  0.79160  0.12960  Biso   1.000  H
  C97      1.0000 0.14320  0.59740  0.55500  Biso   1.000  C
  C98      1.0000 0.85680  0.59740  0.94500  Biso   1.000  C
  C99      1.0000 0.64320  0.09740  0.55500  Biso   1.000  C
  C100     1.0000 0.35680  0.09740  0.94500  Biso   1.000  C
  C101     1.0000 0.85680  0.40260  0.44500  Biso   1.000  C
  C102     1.0000 0.14320  0.40260  0.05500  Biso   1.000  C
  C103     1.0000 0.35680  0.90260  0.44500  Biso   1.000  C
  C104     1.0000 0.64320  0.90260  0.05500  Biso   1.000  C
  H65      1.0000 0.14310  0.51740  0.58140  Biso   1.000  H
  H66      1.0000 0.85690  0.51740  0.91860  Biso   1.000  H
  H67      1.0000 0.64310  0.01740  0.58140  Biso   1.000  H
  H68      1.0000 0.35690  0.01740  0.91860  Biso   1.000  H
  H69      1.0000 0.85690  0.48260  0.41860  Biso   1.000  H
  H70      1.0000 0.14310  0.48260  0.08140  Biso   1.000  H
  H71      1.0000 0.35690  0.98260  0.41860  Biso   1.000  H
  H72      1.0000 0.64310  0.98260  0.08140  Biso   1.000  H
  C105     1.0000 0.10790  0.59990  0.48870  Biso   1.000  C
  C106     1.0000 0.89210  0.59990  0.01130  Biso   1.000  C
  C107     1.0000 0.60790  0.09990  0.48870  Biso   1.000  C
  C108     1.0000 0.39210  0.09990  0.01130  Biso   1.000  C
  C109     1.0000 0.89210  0.40010  0.51130  Biso   1.000  C
  C110     1.0000 0.10790  0.40010  0.98870  Biso   1.000  C
  C111     1.0000 0.39210  0.90010  0.51130  Biso   1.000  C
  C112     1.0000 0.60790  0.90010  0.98870  Biso   1.000  C
  H73      1.0000 0.08490  0.52050  0.46950  Biso   1.000  H
  H74      1.0000 0.91510  0.52050  0.03050  Biso   1.000  H
  H75      1.0000 0.58490  0.02050  0.46950  Biso   1.000  H
  H76      1.0000 0.41510  0.02050  0.03050  Biso   1.000  H
  H77      1.0000 0.91510  0.47950  0.53050  Biso   1.000  H
  H78      1.0000 0.08490  0.47950  0.96950  Biso   1.000  H
  H79      1.0000 0.41510  0.97950  0.53050  Biso   1.000  H
  H80      1.0000 0.58490  0.97950  0.96950  Biso   1.000  H
  C113     1.0000 0.03030  0.15570  0.20370  Biso   1.000  C
  C114     1.0000 0.96970  0.15570  0.29630  Biso   1.000  C
  C115     1.0000 0.53030  0.65570  0.20370  Biso   1.000  C
  C116     1.0000 0.46970  0.65570  0.29630  Biso   1.000  C
  C117     1.0000 0.96970  0.84430  0.79630  Biso   1.000  C
  C118     1.0000 0.03030  0.84430  0.70370  Biso   1.000  C
  C119     1.0000 0.46970  0.34430  0.79630  Biso   1.000  C
  C120     1.0000 0.53030  0.34430  0.70370  Biso   1.000  C
  H81      1.0000 0.05220  0.10920  0.17070  Biso   1.000  H
  H82      1.0000 0.94780  0.10920  0.32930  Biso   1.000  H
  H83      1.0000 0.55220  0.60920  0.17070  Biso   1.000  H
  H84      1.0000 0.44780  0.60920  0.32930  Biso   1.000  H
  H85      1.0000 0.94780  0.89080  0.82930  Biso   1.000  H
  H86      1.0000 0.05220  0.89080  0.67070  Biso   1.000  H
  H87      1.0000 0.44780  0.39080  0.82930  Biso   1.000  H
  H88      1.0000 0.55220  0.39080  0.67070  Biso   1.000  H
  C121     1.0000 0.02970  0.29780  0.20350  Biso   1.000  C
  C122     1.0000 0.97030  0.29780  0.29650  Biso   1.000  C
  C123     1.0000 0.52970  0.79780  0.20350  Biso   1.000  C
  C124     1.0000 0.47030  0.79780  0.29650  Biso   1.000  C
  C125     1.0000 0.97030  0.70220  0.79650  Biso   1.000  C
  C126     1.0000 0.02970  0.70220  0.70350  Biso   1.000  C
  C127     1.0000 0.47030  0.20220  0.79650  Biso   1.000  C
  C128     1.0000 0.52970  0.20220  0.70350  Biso   1.000  C
  H89      1.0000 0.05080  0.34450  0.16990  Biso   1.000  H
  H90      1.0000 0.94920  0.34450  0.33010  Biso   1.000  H
  H91      1.0000 0.55080  0.84450  0.16990  Biso   1.000  H
  H92      1.0000 0.44920  0.84450  0.33010  Biso   1.000  H
  H93      1.0000 0.94920  0.65550  0.83010  Biso   1.000  H
  H94      1.0000 0.05080  0.65550  0.66990  Biso   1.000  H
  H95      1.0000 0.44920  0.15550  0.83010  Biso   1.000  H
  H96      1.0000 0.55080  0.15550  0.66990  Biso   1.000  H
  Cu1      1.0000 0.00000  0.85939  0.25000  Biso   1.000  Cu
  Cu2      1.0000 0.50000  0.35939  0.25000  Biso   1.000  Cu
  Cu3      1.0000 0.00000  0.14061  0.75000  Biso   1.000  Cu
  Cu4      1.0000 0.50000  0.64061  0.75000  Biso   1.000  Cu
  Cu5      1.0000 0.00000  0.59284  0.25000  Biso   1.000  Cu
  Cu6      1.0000 0.50000  0.09284  0.25000  Biso   1.000  Cu
  Cu7      1.0000 0.00000  0.40716  0.75000  Biso   1.000  Cu
  Cu8      1.0000 0.50000  0.90716  0.75000  Biso   1.000  Cu
  N1       1.0000 0.00000  0.08370  0.25000  Biso   1.000  N
  N2       1.0000 0.50000  0.58370  0.25000  Biso   1.000  N
  N3       1.0000 0.00000  0.91630  0.75000  Biso   1.000  N
  N4       1.0000 0.50000  0.41630  0.75000  Biso   1.000  N
  N5       1.0000 0.00000  0.37000  0.25000  Biso   1.000  N
  N6       1.0000 0.50000  0.87000  0.25000  Biso   1.000  N
  N7       1.0000 0.00000  0.63000  0.75000  Biso   1.000  N
  N8       1.0000 0.50000  0.13000  0.75000  Biso   1.000  N
  O1       1.0000 0.09160  0.84430  0.21370  Biso   1.000  O
  O2       1.0000 0.90840  0.84430  0.28630  Biso   1.000  O
  O3       1.0000 0.59160  0.34430  0.21370  Biso   1.000  O
  O4       1.0000 0.40840  0.34430  0.28630  Biso   1.000  O
  O5       1.0000 0.90840  0.15570  0.78630  Biso   1.000  O
  O6       1.0000 0.09160  0.15570  0.71370  Biso   1.000  O
  O7       1.0000 0.40840  0.65570  0.78630  Biso   1.000  O
  O8       1.0000 0.59160  0.65570  0.71370  Biso   1.000  O
  O9       1.0000 0.09720  0.61570  0.22510  Biso   1.000  O
  O10      1.0000 0.90280  0.61570  0.27490  Biso   1.000  O
  O11      1.0000 0.59720  0.11570  0.22510  Biso   1.000  O
  O12      1.0000 0.40280  0.11570  0.27490  Biso   1.000  O
  O13      1.0000 0.90280  0.38430  0.77490  Biso   1.000  O
  O14      1.0000 0.09720  0.38430  0.72510  Biso   1.000  O
  O15      1.0000 0.40280  0.88430  0.77490  Biso   1.000  O
  O16      1.0000 0.59720  0.88430  0.72510  Biso   1.000  O
  O17      1.0000 0.05500  0.83660  0.34520  Biso   1.000  O
  O18      1.0000 0.94500  0.83660  0.15480  Biso   1.000  O
  O19      1.0000 0.55500  0.33660  0.34520  Biso   1.000  O
  O20      1.0000 0.44500  0.33660  0.15480  Biso   1.000  O
  O21      1.0000 0.94500  0.16340  0.65480  Biso   1.000  O
  O22      1.0000 0.05500  0.16340  0.84520  Biso   1.000  O
  O23      1.0000 0.44500  0.66340  0.65480  Biso   1.000  O
  O24      1.0000 0.55500  0.66340  0.84520  Biso   1.000  O
  O25      1.0000 0.04260  0.60830  0.34770  Biso   1.000  O
  O26      1.0000 0.95740  0.60830  0.15230  Biso   1.000  O
  O27      1.0000 0.54260  0.10830  0.34770  Biso   1.000  O
  O28      1.0000 0.45740  0.10830  0.15230  Biso   1.000  O
  O29      1.0000 0.95740  0.39170  0.65230  Biso   1.000  O
  O30      1.0000 0.04260  0.39170  0.84770  Biso   1.000  O
  O31      1.0000 0.45740  0.89170  0.65230  Biso   1.000  O
  O32      1.0000 0.54260  0.89170  0.84770  Biso   1.000  O
  C129     1.0000 0.07330  0.80590  0.01260  Biso   1.000  C
  C130     1.0000 0.92670  0.80590  0.48740  Biso   1.000  C
  C131     1.0000 0.57330  0.30590  0.01260  Biso   1.000  C
  C132     1.0000 0.42670  0.30590  0.48740  Biso   1.000  C
  C133     1.0000 0.92670  0.19410  0.98740  Biso   1.000  C
  C134     1.0000 0.07330  0.19410  0.51260  Biso   1.000  C
  C135     1.0000 0.42670  0.69410  0.98740  Biso   1.000  C
  C136     1.0000 0.57330  0.69410  0.51260  Biso   1.000  C
  H97      1.0000 0.06600  0.87700  0.04500  Biso   1.000  H
  H98      1.0000 0.93400  0.87700  0.45500  Biso   1.000  H
  H99      1.0000 0.56600  0.37700  0.04500  Biso   1.000  H
  H100     1.0000 0.43400  0.37700  0.45500  Biso   1.000  H
  H101     1.0000 0.93400  0.12300  0.95500  Biso   1.000  H
  H102     1.0000 0.06600  0.12300  0.54500  Biso   1.000  H
  H103     1.0000 0.43400  0.62300  0.95500  Biso   1.000  H
  H104     1.0000 0.56600  0.62300  0.54500  Biso   1.000  H
  H105     1.0000 0.12460  0.79100  0.01400  Biso   1.000  H
  H106     1.0000 0.87540  0.79100  0.48600  Biso   1.000  H
  H107     1.0000 0.62460  0.29100  0.01400  Biso   1.000  H
  H108     1.0000 0.37540  0.29100  0.48600  Biso   1.000  H
  H109     1.0000 0.87540  0.20900  0.98600  Biso   1.000  H
  H110     1.0000 0.12460  0.20900  0.51400  Biso   1.000  H
  H111     1.0000 0.37540  0.70900  0.98600  Biso   1.000  H
  H112     1.0000 0.62460  0.70900  0.51400  Biso   1.000  H
  H113     1.0000 0.05100  0.72200  0.02500  Biso   1.000  H
  H114     1.0000 0.94900  0.72200  0.47500  Biso   1.000  H
  H115     1.0000 0.55100  0.22200  0.02500  Biso   1.000  H
  H116     1.0000 0.44900  0.22200  0.47500  Biso   1.000  H
  H117     1.0000 0.94900  0.27800  0.97500  Biso   1.000  H
  H118     1.0000 0.05100  0.27800  0.52500  Biso   1.000  H
  H119     1.0000 0.44900  0.77800  0.97500  Biso   1.000  H
  H120     1.0000 0.55100  0.77800  0.52500  Biso   1.000  H
  H121     1.0000 0.05200  0.83400  0.96600  Biso   1.000  H
  H122     1.0000 0.94800  0.83400  0.53400  Biso   1.000  H
  H123     1.0000 0.55200  0.33400  0.96600  Biso   1.000  H
  H124     1.0000 0.44800  0.33400  0.53400  Biso   1.000  H
  H125     1.0000 0.94800  0.16600  0.03400  Biso   1.000  H
  H126     1.0000 0.05200  0.16600  0.46600  Biso   1.000  H
  H127     1.0000 0.44800  0.66600  0.03400  Biso   1.000  H
  H128     1.0000 0.55200  0.66600  0.46600  Biso   1.000  H
