data_image0
_cell_length_a       18.509
_cell_length_b       9.6992
_cell_length_c       19.275
_cell_angle_alpha    90
_cell_angle_beta     99.255
_cell_angle_gamma    90

_symmetry_space_group_name_H-M    "P 1"
_symmetry_int_tables_number       1

loop_
  _symmetry_equiv_pos_as_xyz
  'x, y, z'

loop_
  _atom_site_label
  _atom_site_occupancy
  _atom_site_fract_x
  _atom_site_fract_y
  _atom_site_fract_z
  _atom_site_thermal_displace_type
  _atom_site_B_iso_or_equiv
  _atom_site_type_symbol
  C1       1.0000 0.06510  0.77840  0.37591  Biso   1.000  C
  C2       1.0000 0.93490  0.77840  0.12409  Biso   1.000  C
  C3       1.0000 0.56510  0.27840  0.37591  Biso   1.000  C
  C4       1.0000 0.43490  0.27840  0.12409  Biso   1.000  C
  C5       1.0000 0.93490  0.22160  0.62409  Biso   1.000  C
  C6       1.0000 0.06510  0.22160  0.87591  Biso   1.000  C
  C7       1.0000 0.43490  0.72160  0.62409  Biso   1.000  C
  C8       1.0000 0.56510  0.72160  0.87591  Biso   1.000  C
  C9       1.0000 0.10560  0.78230  0.44942  Biso   1.000  C
  C10      1.0000 0.89440  0.78230  0.05058  Biso   1.000  C
  C11      1.0000 0.60560  0.28230  0.44942  Biso   1.000  C
  C12      1.0000 0.39440  0.28230  0.05058  Biso   1.000  C
  C13      1.0000 0.89440  0.21770  0.55058  Biso   1.000  C
  C14      1.0000 0.10560  0.21770  0.94942  Biso   1.000  C
  C15      1.0000 0.39440  0.71770  0.55058  Biso   1.000  C
  C16      1.0000 0.60560  0.71770  0.94942  Biso   1.000  C
  C17      1.0000 0.14220  0.66720  0.47890  Biso   1.000  C
  C18      1.0000 0.85780  0.66720  0.02110  Biso   1.000  C
  C19      1.0000 0.64220  0.16720  0.47890  Biso   1.000  C
  C20      1.0000 0.35780  0.16720  0.02110  Biso   1.000  C
  C21      1.0000 0.85780  0.33280  0.52110  Biso   1.000  C
  C22      1.0000 0.14220  0.33280  0.97890  Biso   1.000  C
  C23      1.0000 0.35780  0.83280  0.52110  Biso   1.000  C
  C24      1.0000 0.64220  0.83280  0.97890  Biso   1.000  C
  H1       1.0000 0.14150  0.58540  0.45260  Biso   1.000  H
  H2       1.0000 0.85850  0.58540  0.04740  Biso   1.000  H
  H3       1.0000 0.64150  0.08540  0.45260  Biso   1.000  H
  H4       1.0000 0.35850  0.08540  0.04740  Biso   1.000  H
  H5       1.0000 0.85850  0.41460  0.54740  Biso   1.000  H
  H6       1.0000 0.14150  0.41460  0.95260  Biso   1.000  H
  H7       1.0000 0.35850  0.91460  0.54740  Biso   1.000  H
  H8       1.0000 0.64150  0.91460  0.95260  Biso   1.000  H
  C25      1.0000 0.17970  0.67190  0.54660  Biso   1.000  C
  C26      1.0000 0.82030  0.67190  0.95340  Biso   1.000  C
  C27      1.0000 0.67970  0.17190  0.54660  Biso   1.000  C
  C28      1.0000 0.32030  0.17190  0.95340  Biso   1.000  C
  C29      1.0000 0.82030  0.32810  0.45340  Biso   1.000  C
  C30      1.0000 0.17970  0.32810  0.04660  Biso   1.000  C
  C31      1.0000 0.32030  0.82810  0.45340  Biso   1.000  C
  C32      1.0000 0.67970  0.82810  0.04660  Biso   1.000  C
  H9       1.0000 0.20480  0.59330  0.56620  Biso   1.000  H
  H10      1.0000 0.79520  0.59330  0.93380  Biso   1.000  H
  H11      1.0000 0.70480  0.09330  0.56620  Biso   1.000  H
  H12      1.0000 0.29520  0.09330  0.93380  Biso   1.000  H
  H13      1.0000 0.79520  0.40670  0.43380  Biso   1.000  H
  H14      1.0000 0.20480  0.40670  0.06620  Biso   1.000  H
  H15      1.0000 0.29520  0.90670  0.43380  Biso   1.000  H
  H16      1.0000 0.70480  0.90670  0.06620  Biso   1.000  H
  C33      1.0000 0.18060  0.78910  0.58530  Biso   1.000  C
  C34      1.0000 0.81940  0.78910  0.91470  Biso   1.000  C
  C35      1.0000 0.68060  0.28910  0.58530  Biso   1.000  C
  C36      1.0000 0.31940  0.28910  0.91470  Biso   1.000  C
  C37      1.0000 0.81940  0.21090  0.41470  Biso   1.000  C
  C38      1.0000 0.18060  0.21090  0.08530  Biso   1.000  C
  C39      1.0000 0.31940  0.71090  0.41470  Biso   1.000  C
  C40      1.0000 0.68060  0.71090  0.08530  Biso   1.000  C
  H17      1.0000 0.20570  0.79140  0.63170  Biso   1.000  H
  H18      1.0000 0.79430  0.79140  0.86830  Biso   1.000  H
  H19      1.0000 0.70570  0.29140  0.63170  Biso   1.000  H
  H20      1.0000 0.29430  0.29140  0.86830  Biso   1.000  H
  H21      1.0000 0.79430  0.20860  0.36830  Biso   1.000  H
  H22      1.0000 0.20570  0.20860  0.13170  Biso   1.000  H
  H23      1.0000 0.29430  0.70860  0.36830  Biso   1.000  H
  H24      1.0000 0.70570  0.70860  0.13170  Biso   1.000  H
  C41      1.0000 0.14500  0.90370  0.55640  Biso   1.000  C
  C42      1.0000 0.85500  0.90370  0.94360  Biso   1.000  C
  C43      1.0000 0.64500  0.40370  0.55640  Biso   1.000  C
  C44      1.0000 0.35500  0.40370  0.94360  Biso   1.000  C
  C45      1.0000 0.85500  0.09630  0.44360  Biso   1.000  C
  C46      1.0000 0.14500  0.09630  0.05640  Biso   1.000  C
  C47      1.0000 0.35500  0.59630  0.44360  Biso   1.000  C
  C48      1.0000 0.64500  0.59630  0.05640  Biso   1.000  C
  H25      1.0000 0.14590  0.98510  0.58290  Biso   1.000  H
  H26      1.0000 0.85410  0.98510  0.91710  Biso   1.000  H
  H27      1.0000 0.64590  0.48510  0.58290  Biso   1.000  H
  H28      1.0000 0.35410  0.48510  0.91710  Biso   1.000  H
  H29      1.0000 0.85410  0.01490  0.41710  Biso   1.000  H
  H30      1.0000 0.14590  0.01490  0.08290  Biso   1.000  H
  H31      1.0000 0.35410  0.51490  0.41710  Biso   1.000  H
  H32      1.0000 0.64590  0.51490  0.08290  Biso   1.000  H
  C49      1.0000 0.10800  0.90070  0.48920  Biso   1.000  C
  C50      1.0000 0.89200  0.90070  0.01080  Biso   1.000  C
  C51      1.0000 0.60800  0.40070  0.48920  Biso   1.000  C
  C52      1.0000 0.39200  0.40070  0.01080  Biso   1.000  C
  C53      1.0000 0.89200  0.09930  0.51080  Biso   1.000  C
  C54      1.0000 0.10800  0.09930  0.98920  Biso   1.000  C
  C55      1.0000 0.39200  0.59930  0.51080  Biso   1.000  C
  C56      1.0000 0.60800  0.59930  0.98920  Biso   1.000  C
  H33      1.0000 0.08380  0.98040  0.46980  Biso   1.000  H
  H34      1.0000 0.91620  0.98040  0.03020  Biso   1.000  H
  H35      1.0000 0.58380  0.48040  0.46980  Biso   1.000  H
  H36      1.0000 0.41620  0.48040  0.03020  Biso   1.000  H
  H37      1.0000 0.91620  0.01960  0.53020  Biso   1.000  H
  H38      1.0000 0.08380  0.01960  0.96980  Biso   1.000  H
  H39      1.0000 0.41620  0.51960  0.53020  Biso   1.000  H
  H40      1.0000 0.58380  0.51960  0.96980  Biso   1.000  H
  C57      1.0000 0.12370  0.76920  0.21121  Biso   1.000  C
  C58      1.0000 0.87630  0.76920  0.28879  Biso   1.000  C
  C59      1.0000 0.62370  0.26920  0.21121  Biso   1.000  C
  C60      1.0000 0.37630  0.26920  0.28879  Biso   1.000  C
  C61      1.0000 0.87630  0.23080  0.78879  Biso   1.000  C
  C62      1.0000 0.12370  0.23080  0.71121  Biso   1.000  C
  C63      1.0000 0.37630  0.73080  0.78879  Biso   1.000  C
  C64      1.0000 0.62370  0.73080  0.71121  Biso   1.000  C
  C65      1.0000 0.19900  0.76770  0.19144  Biso   1.000  C
  C66      1.0000 0.80100  0.76770  0.30856  Biso   1.000  C
  C67      1.0000 0.69900  0.26770  0.19144  Biso   1.000  C
  C68      1.0000 0.30100  0.26770  0.30856  Biso   1.000  C
  C69      1.0000 0.80100  0.23230  0.80856  Biso   1.000  C
  C70      1.0000 0.19900  0.23230  0.69144  Biso   1.000  C
  C71      1.0000 0.30100  0.73230  0.80856  Biso   1.000  C
  C72      1.0000 0.69900  0.73230  0.69144  Biso   1.000  C
  C73      1.0000 0.22850  0.64710  0.17000  Biso   1.000  C
  C74      1.0000 0.77150  0.64710  0.33000  Biso   1.000  C
  C75      1.0000 0.72850  0.14710  0.17000  Biso   1.000  C
  C76      1.0000 0.27150  0.14710  0.33000  Biso   1.000  C
  C77      1.0000 0.77150  0.35290  0.83000  Biso   1.000  C
  C78      1.0000 0.22850  0.35290  0.67000  Biso   1.000  C
  C79      1.0000 0.27150  0.85290  0.83000  Biso   1.000  C
  C80      1.0000 0.72850  0.85290  0.67000  Biso   1.000  C
  H41      1.0000 0.20200  0.56430  0.16960  Biso   1.000  H
  H42      1.0000 0.79800  0.56430  0.33040  Biso   1.000  H
  H43      1.0000 0.70200  0.06430  0.16960  Biso   1.000  H
  H44      1.0000 0.29800  0.06430  0.33040  Biso   1.000  H
  H45      1.0000 0.79800  0.43570  0.83040  Biso   1.000  H
  H46      1.0000 0.20200  0.43570  0.66960  Biso   1.000  H
  H47      1.0000 0.29800  0.93570  0.83040  Biso   1.000  H
  H48      1.0000 0.70200  0.93570  0.66960  Biso   1.000  H
  C81      1.0000 0.29600  0.64680  0.14920  Biso   1.000  C
  C82      1.0000 0.70400  0.64680  0.35080  Biso   1.000  C
  C83      1.0000 0.79600  0.14680  0.14920  Biso   1.000  C
  C84      1.0000 0.20400  0.14680  0.35080  Biso   1.000  C
  C85      1.0000 0.70400  0.35320  0.85080  Biso   1.000  C
  C86      1.0000 0.29600  0.35320  0.64920  Biso   1.000  C
  C87      1.0000 0.20400  0.85320  0.85080  Biso   1.000  C
  C88      1.0000 0.79600  0.85320  0.64920  Biso   1.000  C
  H49      1.0000 0.31570  0.56480  0.13410  Biso   1.000  H
  H50      1.0000 0.68430  0.56480  0.36590  Biso   1.000  H
  H51      1.0000 0.81570  0.06480  0.13410  Biso   1.000  H
  H52      1.0000 0.18430  0.06480  0.36590  Biso   1.000  H
  H53      1.0000 0.68430  0.43520  0.86590  Biso   1.000  H
  H54      1.0000 0.31570  0.43520  0.63410  Biso   1.000  H
  H55      1.0000 0.18430  0.93520  0.86590  Biso   1.000  H
  H56      1.0000 0.81570  0.93520  0.63410  Biso   1.000  H
  C89      1.0000 0.33460  0.76820  0.15080  Biso   1.000  C
  C90      1.0000 0.66540  0.76820  0.34920  Biso   1.000  C
  C91      1.0000 0.83460  0.26820  0.15080  Biso   1.000  C
  C92      1.0000 0.16540  0.26820  0.34920  Biso   1.000  C
  C93      1.0000 0.66540  0.23180  0.84920  Biso   1.000  C
  C94      1.0000 0.33460  0.23180  0.65080  Biso   1.000  C
  C95      1.0000 0.16540  0.73180  0.84920  Biso   1.000  C
  C96      1.0000 0.83460  0.73180  0.65080  Biso   1.000  C
  H57      1.0000 0.38070  0.76900  0.13630  Biso   1.000  H
  H58      1.0000 0.61930  0.76900  0.36370  Biso   1.000  H
  H59      1.0000 0.88070  0.26900  0.13630  Biso   1.000  H
  H60      1.0000 0.11930  0.26900  0.36370  Biso   1.000  H
  H61      1.0000 0.61930  0.23100  0.86370  Biso   1.000  H
  H62      1.0000 0.38070  0.23100  0.63630  Biso   1.000  H
  H63      1.0000 0.11930  0.73100  0.86370  Biso   1.000  H
  H64      1.0000 0.88070  0.73100  0.63630  Biso   1.000  H
  C97      1.0000 0.30670  0.88760  0.17310  Biso   1.000  C
  C98      1.0000 0.69330  0.88760  0.32690  Biso   1.000  C
  C99      1.0000 0.80670  0.38760  0.17310  Biso   1.000  C
  C100     1.0000 0.19330  0.38760  0.32690  Biso   1.000  C
  C101     1.0000 0.69330  0.11240  0.82690  Biso   1.000  C
  C102     1.0000 0.30670  0.11240  0.67310  Biso   1.000  C
  C103     1.0000 0.19330  0.61240  0.82690  Biso   1.000  C
  C104     1.0000 0.80670  0.61240  0.67310  Biso   1.000  C
  H65      1.0000 0.33390  0.96970  0.17430  Biso   1.000  H
  H66      1.0000 0.66610  0.96970  0.32570  Biso   1.000  H
  H67      1.0000 0.83390  0.46970  0.17430  Biso   1.000  H
  H68      1.0000 0.16610  0.46970  0.32570  Biso   1.000  H
  H69      1.0000 0.66610  0.03030  0.82570  Biso   1.000  H
  H70      1.0000 0.33390  0.03030  0.67430  Biso   1.000  H
  H71      1.0000 0.16610  0.53030  0.82570  Biso   1.000  H
  H72      1.0000 0.83390  0.53030  0.67430  Biso   1.000  H
  C105     1.0000 0.23940  0.88800  0.19390  Biso   1.000  C
  C106     1.0000 0.76060  0.88800  0.30610  Biso   1.000  C
  C107     1.0000 0.73940  0.38800  0.19390  Biso   1.000  C
  C108     1.0000 0.26060  0.38800  0.30610  Biso   1.000  C
  C109     1.0000 0.76060  0.11200  0.80610  Biso   1.000  C
  C110     1.0000 0.23940  0.11200  0.69390  Biso   1.000  C
  C111     1.0000 0.26060  0.61200  0.80610  Biso   1.000  C
  C112     1.0000 0.73940  0.61200  0.69390  Biso   1.000  C
  H73      1.0000 0.22070  0.97010  0.20980  Biso   1.000  H
  H74      1.0000 0.77930  0.97010  0.29020  Biso   1.000  H
  H75      1.0000 0.72070  0.47010  0.20980  Biso   1.000  H
  H76      1.0000 0.27930  0.47010  0.29020  Biso   1.000  H
  H77      1.0000 0.77930  0.02990  0.79020  Biso   1.000  H
  H78      1.0000 0.22070  0.02990  0.70980  Biso   1.000  H
  H79      1.0000 0.27930  0.52990  0.79020  Biso   1.000  H
  H80      1.0000 0.72070  0.52990  0.70980  Biso   1.000  H
  C113     1.0000 0.03111  0.34420  0.20410  Biso   1.000  C
  C114     1.0000 0.96889  0.34420  0.29590  Biso   1.000  C
  C115     1.0000 0.53111  0.84420  0.20410  Biso   1.000  C
  C116     1.0000 0.46889  0.84420  0.29590  Biso   1.000  C
  C117     1.0000 0.96889  0.65580  0.79590  Biso   1.000  C
  C118     1.0000 0.03111  0.65580  0.70410  Biso   1.000  C
  C119     1.0000 0.46889  0.15580  0.79590  Biso   1.000  C
  C120     1.0000 0.53111  0.15580  0.70410  Biso   1.000  C
  H81      1.0000 0.05380  0.39180  0.17100  Biso   1.000  H
  H82      1.0000 0.94620  0.39180  0.32900  Biso   1.000  H
  H83      1.0000 0.55380  0.89180  0.17100  Biso   1.000  H
  H84      1.0000 0.44620  0.89180  0.32900  Biso   1.000  H
  H85      1.0000 0.94620  0.60820  0.82900  Biso   1.000  H
  H86      1.0000 0.05380  0.60820  0.67100  Biso   1.000  H
  H87      1.0000 0.44620  0.10820  0.82900  Biso   1.000  H
  H88      1.0000 0.55380  0.10820  0.67100  Biso   1.000  H
  C121     1.0000 0.03110  0.20180  0.20351  Biso   1.000  C
  C122     1.0000 0.96890  0.20180  0.29649  Biso   1.000  C
  C123     1.0000 0.53110  0.70180  0.20351  Biso   1.000  C
  C124     1.0000 0.46890  0.70180  0.29649  Biso   1.000  C
  C125     1.0000 0.96890  0.79820  0.79649  Biso   1.000  C
  C126     1.0000 0.03110  0.79820  0.70351  Biso   1.000  C
  C127     1.0000 0.46890  0.29820  0.79649  Biso   1.000  C
  C128     1.0000 0.53110  0.29820  0.70351  Biso   1.000  C
  H89      1.0000 0.05330  0.15440  0.17000  Biso   1.000  H
  H90      1.0000 0.94670  0.15440  0.33000  Biso   1.000  H
  H91      1.0000 0.55330  0.65440  0.17000  Biso   1.000  H
  H92      1.0000 0.44670  0.65440  0.33000  Biso   1.000  H
  H93      1.0000 0.94670  0.84560  0.83000  Biso   1.000  H
  H94      1.0000 0.05330  0.84560  0.67000  Biso   1.000  H
  H95      1.0000 0.44670  0.34560  0.83000  Biso   1.000  H
  H96      1.0000 0.55330  0.34560  0.67000  Biso   1.000  H
  Cu1      1.0000 0.00000  0.64066  0.25000  Biso   1.000  Cu
  Cu2      1.0000 0.50000  0.14066  0.25000  Biso   1.000  Cu
  Cu3      1.0000 0.00000  0.35934  0.75000  Biso   1.000  Cu
  Cu4      1.0000 0.50000  0.85934  0.75000  Biso   1.000  Cu
  Cu5      1.0000 0.00000  0.90706  0.25000  Biso   1.000  Cu
  Cu6      1.0000 0.50000  0.40706  0.25000  Biso   1.000  Cu
  Cu7      1.0000 0.00000  0.09294  0.75000  Biso   1.000  Cu
  Cu8      1.0000 0.50000  0.59294  0.75000  Biso   1.000  Cu
  N1       1.0000 0.00000  0.41600  0.25000  Biso   1.000  N
  N2       1.0000 0.50000  0.91600  0.25000  Biso   1.000  N
  N3       1.0000 0.00000  0.58400  0.75000  Biso   1.000  N
  N4       1.0000 0.50000  0.08400  0.75000  Biso   1.000  N
  N5       1.0000 0.00000  0.13120  0.25000  Biso   1.000  N
  N6       1.0000 0.50000  0.63120  0.25000  Biso   1.000  N
  N7       1.0000 0.00000  0.86880  0.75000  Biso   1.000  N
  N8       1.0000 0.50000  0.36880  0.75000  Biso   1.000  N
  O1       1.0000 0.05599  0.66310  0.34537  Biso   1.000  O
  O2       1.0000 0.94401  0.66310  0.15463  Biso   1.000  O
  O3       1.0000 0.55599  0.16310  0.34537  Biso   1.000  O
  O4       1.0000 0.44401  0.16310  0.15463  Biso   1.000  O
  O5       1.0000 0.94401  0.33690  0.65463  Biso   1.000  O
  O6       1.0000 0.05599  0.33690  0.84537  Biso   1.000  O
  O7       1.0000 0.44401  0.83690  0.65463  Biso   1.000  O
  O8       1.0000 0.55599  0.83690  0.84537  Biso   1.000  O
  O9       1.0000 0.04203  0.89230  0.34899  Biso   1.000  O
  O10      1.0000 0.95797  0.89230  0.15101  Biso   1.000  O
  O11      1.0000 0.54203  0.39230  0.34899  Biso   1.000  O
  O12      1.0000 0.45797  0.39230  0.15101  Biso   1.000  O
  O13      1.0000 0.95797  0.10770  0.65101  Biso   1.000  O
  O14      1.0000 0.04203  0.10770  0.84899  Biso   1.000  O
  O15      1.0000 0.45797  0.60770  0.65101  Biso   1.000  O
  O16      1.0000 0.54203  0.60770  0.84899  Biso   1.000  O
  O17      1.0000 0.09162  0.65520  0.21288  Biso   1.000  O
  O18      1.0000 0.90838  0.65520  0.28712  Biso   1.000  O
  O19      1.0000 0.59162  0.15520  0.21288  Biso   1.000  O
  O20      1.0000 0.40838  0.15520  0.28712  Biso   1.000  O
  O21      1.0000 0.90838  0.34480  0.78712  Biso   1.000  O
  O22      1.0000 0.09162  0.34480  0.71288  Biso   1.000  O
  O23      1.0000 0.40838  0.84480  0.78712  Biso   1.000  O
  O24      1.0000 0.59162  0.84480  0.71288  Biso   1.000  O
  O25      1.0000 0.09833  0.88440  0.22554  Biso   1.000  O
  O26      1.0000 0.90167  0.88440  0.27446  Biso   1.000  O
  O27      1.0000 0.59833  0.38440  0.22554  Biso   1.000  O
  O28      1.0000 0.40167  0.38440  0.27446  Biso   1.000  O
  O29      1.0000 0.90167  0.11560  0.77446  Biso   1.000  O
  O30      1.0000 0.09833  0.11560  0.72554  Biso   1.000  O
  O31      1.0000 0.40167  0.61560  0.77446  Biso   1.000  O
  O32      1.0000 0.59833  0.61560  0.72554  Biso   1.000  O
  C129     1.0000 0.07230  0.69090  0.01390  Biso   1.000  C
  C130     1.0000 0.92770  0.69090  0.48610  Biso   1.000  C
  C131     1.0000 0.57230  0.19090  0.01390  Biso   1.000  C
  C132     1.0000 0.42770  0.19090  0.48610  Biso   1.000  C
  C133     1.0000 0.92770  0.30910  0.98610  Biso   1.000  C
  C134     1.0000 0.07230  0.30910  0.51390  Biso   1.000  C
  C135     1.0000 0.42770  0.80910  0.98610  Biso   1.000  C
  C136     1.0000 0.57230  0.80910  0.51390  Biso   1.000  C
  H97      1.0000 0.06400  0.62900  0.05060  Biso   1.000  H
  H98      1.0000 0.93600  0.62900  0.44940  Biso   1.000  H
  H99      1.0000 0.56400  0.12900  0.05060  Biso   1.000  H
  H100     1.0000 0.43600  0.12900  0.44940  Biso   1.000  H
  H101     1.0000 0.93600  0.37100  0.94940  Biso   1.000  H
  H102     1.0000 0.06400  0.37100  0.55060  Biso   1.000  H
  H103     1.0000 0.43600  0.87100  0.94940  Biso   1.000  H
  H104     1.0000 0.56400  0.87100  0.55060  Biso   1.000  H
  H105     1.0000 0.12390  0.70000  0.01400  Biso   1.000  H
  H106     1.0000 0.87610  0.70000  0.48600  Biso   1.000  H
  H107     1.0000 0.62390  0.20000  0.01400  Biso   1.000  H
  H108     1.0000 0.37610  0.20000  0.48600  Biso   1.000  H
  H109     1.0000 0.87610  0.30000  0.98600  Biso   1.000  H
  H110     1.0000 0.12390  0.30000  0.51400  Biso   1.000  H
  H111     1.0000 0.37610  0.80000  0.98600  Biso   1.000  H
  H112     1.0000 0.62390  0.80000  0.51400  Biso   1.000  H
  H113     1.0000 0.04900  0.65500  0.96940  Biso   1.000  H
  H114     1.0000 0.95100  0.65500  0.53060  Biso   1.000  H
  H115     1.0000 0.54900  0.15500  0.96940  Biso   1.000  H
  H116     1.0000 0.45100  0.15500  0.53060  Biso   1.000  H
  H117     1.0000 0.95100  0.34500  0.03060  Biso   1.000  H
  H118     1.0000 0.04900  0.34500  0.46940  Biso   1.000  H
  H119     1.0000 0.45100  0.84500  0.03060  Biso   1.000  H
  H120     1.0000 0.54900  0.84500  0.46940  Biso   1.000  H
  H121     1.0000 0.05200  0.77900  0.02200  Biso   1.000  H
  H122     1.0000 0.94800  0.77900  0.47800  Biso   1.000  H
  H123     1.0000 0.55200  0.27900  0.02200  Biso   1.000  H
  H124     1.0000 0.44800  0.27900  0.47800  Biso   1.000  H
  H125     1.0000 0.94800  0.22100  0.97800  Biso   1.000  H
  H126     1.0000 0.05200  0.22100  0.52200  Biso   1.000  H
  H127     1.0000 0.44800  0.72100  0.97800  Biso   1.000  H
  H128     1.0000 0.55200  0.72100  0.52200  Biso   1.000  H
