data_image0
_cell_length_a       18.589
_cell_length_b       9.7134
_cell_length_c       19.335
_cell_angle_alpha    90
_cell_angle_beta     99.338
_cell_angle_gamma    90

_symmetry_space_group_name_H-M    "P 1"
_symmetry_int_tables_number       1

loop_
  _symmetry_equiv_pos_as_xyz
  'x, y, z'

loop_
  _atom_site_label
  _atom_site_occupancy
  _atom_site_fract_x
  _atom_site_fract_y
  _atom_site_fract_z
  _atom_site_thermal_displace_type
  _atom_site_B_iso_or_equiv
  _atom_site_type_symbol
  C1       1.0000 0.12370  0.73030  0.21130  Biso   1.000  C
  C2       1.0000 0.87630  0.73030  0.28870  Biso   1.000  C
  C3       1.0000 0.62370  0.23030  0.21130  Biso   1.000  C
  C4       1.0000 0.37630  0.23030  0.28870  Biso   1.000  C
  C5       1.0000 0.87630  0.26970  0.78870  Biso   1.000  C
  C6       1.0000 0.12370  0.26970  0.71130  Biso   1.000  C
  C7       1.0000 0.37630  0.76970  0.78870  Biso   1.000  C
  C8       1.0000 0.62370  0.76970  0.71130  Biso   1.000  C
  C9       1.0000 0.19780  0.73180  0.19170  Biso   1.000  C
  C10      1.0000 0.80220  0.73180  0.30830  Biso   1.000  C
  C11      1.0000 0.69780  0.23180  0.19170  Biso   1.000  C
  C12      1.0000 0.30220  0.23180  0.30830  Biso   1.000  C
  C13      1.0000 0.80220  0.26820  0.80830  Biso   1.000  C
  C14      1.0000 0.19780  0.26820  0.69170  Biso   1.000  C
  C15      1.0000 0.30220  0.76820  0.80830  Biso   1.000  C
  C16      1.0000 0.69780  0.76820  0.69170  Biso   1.000  C
  C17      1.0000 0.22750  0.85170  0.17010  Biso   1.000  C
  C18      1.0000 0.77250  0.85170  0.32990  Biso   1.000  C
  C19      1.0000 0.72750  0.35170  0.17010  Biso   1.000  C
  C20      1.0000 0.27250  0.35170  0.32990  Biso   1.000  C
  C21      1.0000 0.77250  0.14830  0.82990  Biso   1.000  C
  C22      1.0000 0.22750  0.14830  0.67010  Biso   1.000  C
  C23      1.0000 0.27250  0.64830  0.82990  Biso   1.000  C
  C24      1.0000 0.72750  0.64830  0.67010  Biso   1.000  C
  H1       1.0000 0.20120  0.93340  0.16890  Biso   1.000  H
  H2       1.0000 0.79880  0.93340  0.33110  Biso   1.000  H
  H3       1.0000 0.70120  0.43340  0.16890  Biso   1.000  H
  H4       1.0000 0.29880  0.43340  0.33110  Biso   1.000  H
  H5       1.0000 0.79880  0.06660  0.83110  Biso   1.000  H
  H6       1.0000 0.20120  0.06660  0.66890  Biso   1.000  H
  H7       1.0000 0.29880  0.56660  0.83110  Biso   1.000  H
  H8       1.0000 0.70120  0.56660  0.66890  Biso   1.000  H
  C25      1.0000 0.29540  0.85180  0.15040  Biso   1.000  C
  C26      1.0000 0.70460  0.85180  0.34960  Biso   1.000  C
  C27      1.0000 0.79540  0.35180  0.15040  Biso   1.000  C
  C28      1.0000 0.20460  0.35180  0.34960  Biso   1.000  C
  C29      1.0000 0.70460  0.14820  0.84960  Biso   1.000  C
  C30      1.0000 0.29540  0.14820  0.65040  Biso   1.000  C
  C31      1.0000 0.20460  0.64820  0.84960  Biso   1.000  C
  C32      1.0000 0.79540  0.64820  0.65040  Biso   1.000  C
  H9       1.0000 0.31510  0.93340  0.13650  Biso   1.000  H
  H10      1.0000 0.68490  0.93340  0.36350  Biso   1.000  H
  H11      1.0000 0.81510  0.43340  0.13650  Biso   1.000  H
  H12      1.0000 0.18490  0.43340  0.36350  Biso   1.000  H
  H13      1.0000 0.68490  0.06660  0.86350  Biso   1.000  H
  H14      1.0000 0.31510  0.06660  0.63650  Biso   1.000  H
  H15      1.0000 0.18490  0.56660  0.86350  Biso   1.000  H
  H16      1.0000 0.81510  0.56660  0.63650  Biso   1.000  H
  C33      1.0000 0.33370  0.73140  0.15110  Biso   1.000  C
  C34      1.0000 0.66630  0.73140  0.34890  Biso   1.000  C
  C35      1.0000 0.83370  0.23140  0.15110  Biso   1.000  C
  C36      1.0000 0.16630  0.23140  0.34890  Biso   1.000  C
  C37      1.0000 0.66630  0.26860  0.84890  Biso   1.000  C
  C38      1.0000 0.33370  0.26860  0.65110  Biso   1.000  C
  C39      1.0000 0.16630  0.76860  0.84890  Biso   1.000  C
  C40      1.0000 0.83370  0.76860  0.65110  Biso   1.000  C
  H17      1.0000 0.37890  0.73050  0.13650  Biso   1.000  H
  H18      1.0000 0.62110  0.73050  0.36350  Biso   1.000  H
  H19      1.0000 0.87890  0.23050  0.13650  Biso   1.000  H
  H20      1.0000 0.12110  0.23050  0.36350  Biso   1.000  H
  H21      1.0000 0.62110  0.26950  0.86350  Biso   1.000  H
  H22      1.0000 0.37890  0.26950  0.63650  Biso   1.000  H
  H23      1.0000 0.12110  0.76950  0.86350  Biso   1.000  H
  H24      1.0000 0.87890  0.76950  0.63650  Biso   1.000  H
  C41      1.0000 0.30560  0.61280  0.17340  Biso   1.000  C
  C42      1.0000 0.69440  0.61280  0.32660  Biso   1.000  C
  C43      1.0000 0.80560  0.11280  0.17340  Biso   1.000  C
  C44      1.0000 0.19440  0.11280  0.32660  Biso   1.000  C
  C45      1.0000 0.69440  0.38720  0.82660  Biso   1.000  C
  C46      1.0000 0.30560  0.38720  0.67340  Biso   1.000  C
  C47      1.0000 0.19440  0.88720  0.82660  Biso   1.000  C
  C48      1.0000 0.80560  0.88720  0.67340  Biso   1.000  C
  H25      1.0000 0.33240  0.53170  0.17480  Biso   1.000  H
  H26      1.0000 0.66760  0.53170  0.32520  Biso   1.000  H
  H27      1.0000 0.83240  0.03170  0.17480  Biso   1.000  H
  H28      1.0000 0.16760  0.03170  0.32520  Biso   1.000  H
  H29      1.0000 0.66760  0.46830  0.82520  Biso   1.000  H
  H30      1.0000 0.33240  0.46830  0.67480  Biso   1.000  H
  H31      1.0000 0.16760  0.96830  0.82520  Biso   1.000  H
  H32      1.0000 0.83240  0.96830  0.67480  Biso   1.000  H
  C49      1.0000 0.23830  0.61220  0.19380  Biso   1.000  C
  C50      1.0000 0.76170  0.61220  0.30620  Biso   1.000  C
  C51      1.0000 0.73830  0.11220  0.19380  Biso   1.000  C
  C52      1.0000 0.26170  0.11220  0.30620  Biso   1.000  C
  C53      1.0000 0.76170  0.38780  0.80620  Biso   1.000  C
  C54      1.0000 0.23830  0.38780  0.69380  Biso   1.000  C
  C55      1.0000 0.26170  0.88780  0.80620  Biso   1.000  C
  C56      1.0000 0.73830  0.88780  0.69380  Biso   1.000  C
  H33      1.0000 0.21980  0.53070  0.20920  Biso   1.000  H
  H34      1.0000 0.78020  0.53070  0.29080  Biso   1.000  H
  H35      1.0000 0.71980  0.03070  0.20920  Biso   1.000  H
  H36      1.0000 0.28020  0.03070  0.29080  Biso   1.000  H
  H37      1.0000 0.78020  0.46930  0.79080  Biso   1.000  H
  H38      1.0000 0.21980  0.46930  0.70920  Biso   1.000  H
  H39      1.0000 0.28020  0.96930  0.79080  Biso   1.000  H
  H40      1.0000 0.71980  0.96930  0.70920  Biso   1.000  H
  C57      1.0000 0.06490  0.72190  0.37560  Biso   1.000  C
  C58      1.0000 0.93510  0.72190  0.12440  Biso   1.000  C
  C59      1.0000 0.56490  0.22190  0.37560  Biso   1.000  C
  C60      1.0000 0.43510  0.22190  0.12440  Biso   1.000  C
  C61      1.0000 0.93510  0.27810  0.62440  Biso   1.000  C
  C62      1.0000 0.06490  0.27810  0.87560  Biso   1.000  C
  C63      1.0000 0.43510  0.77810  0.62440  Biso   1.000  C
  C64      1.0000 0.56490  0.77810  0.87560  Biso   1.000  C
  C65      1.0000 0.10520  0.71880  0.44840  Biso   1.000  C
  C66      1.0000 0.89480  0.71880  0.05160  Biso   1.000  C
  C67      1.0000 0.60520  0.21880  0.44840  Biso   1.000  C
  C68      1.0000 0.39480  0.21880  0.05160  Biso   1.000  C
  C69      1.0000 0.89480  0.28120  0.55160  Biso   1.000  C
  C70      1.0000 0.10520  0.28120  0.94840  Biso   1.000  C
  C71      1.0000 0.39480  0.78120  0.55160  Biso   1.000  C
  C72      1.0000 0.60520  0.78120  0.94840  Biso   1.000  C
  C73      1.0000 0.14130  0.83320  0.47830  Biso   1.000  C
  C74      1.0000 0.85870  0.83320  0.02170  Biso   1.000  C
  C75      1.0000 0.64130  0.33320  0.47830  Biso   1.000  C
  C76      1.0000 0.35870  0.33320  0.02170  Biso   1.000  C
  C77      1.0000 0.85870  0.16680  0.52170  Biso   1.000  C
  C78      1.0000 0.14130  0.16680  0.97830  Biso   1.000  C
  C79      1.0000 0.35870  0.66680  0.52170  Biso   1.000  C
  C80      1.0000 0.64130  0.66680  0.97830  Biso   1.000  C
  H41      1.0000 0.14060  0.91430  0.45260  Biso   1.000  H
  H42      1.0000 0.85940  0.91430  0.04740  Biso   1.000  H
  H43      1.0000 0.64060  0.41430  0.45260  Biso   1.000  H
  H44      1.0000 0.35940  0.41430  0.04740  Biso   1.000  H
  H45      1.0000 0.85940  0.08570  0.54740  Biso   1.000  H
  H46      1.0000 0.14060  0.08570  0.95260  Biso   1.000  H
  H47      1.0000 0.35940  0.58570  0.54740  Biso   1.000  H
  H48      1.0000 0.64060  0.58570  0.95260  Biso   1.000  H
  C81      1.0000 0.17870  0.82850  0.54650  Biso   1.000  C
  C82      1.0000 0.82130  0.82850  0.95350  Biso   1.000  C
  C83      1.0000 0.67870  0.32850  0.54650  Biso   1.000  C
  C84      1.0000 0.32130  0.32850  0.95350  Biso   1.000  C
  C85      1.0000 0.82130  0.17150  0.45350  Biso   1.000  C
  C86      1.0000 0.17870  0.17150  0.04650  Biso   1.000  C
  C87      1.0000 0.32130  0.67150  0.45350  Biso   1.000  C
  C88      1.0000 0.67870  0.67150  0.04650  Biso   1.000  C
  H49      1.0000 0.20290  0.90640  0.56630  Biso   1.000  H
  H50      1.0000 0.79710  0.90640  0.93370  Biso   1.000  H
  H51      1.0000 0.70290  0.40640  0.56630  Biso   1.000  H
  H52      1.0000 0.29710  0.40640  0.93370  Biso   1.000  H
  H53      1.0000 0.79710  0.09360  0.43370  Biso   1.000  H
  H54      1.0000 0.20290  0.09360  0.06630  Biso   1.000  H
  H55      1.0000 0.29710  0.59360  0.43370  Biso   1.000  H
  H56      1.0000 0.70290  0.59360  0.06630  Biso   1.000  H
  C89      1.0000 0.18010  0.71060  0.58450  Biso   1.000  C
  C90      1.0000 0.81990  0.71060  0.91550  Biso   1.000  C
  C91      1.0000 0.68010  0.21060  0.58450  Biso   1.000  C
  C92      1.0000 0.31990  0.21060  0.91550  Biso   1.000  C
  C93      1.0000 0.81990  0.28940  0.41550  Biso   1.000  C
  C94      1.0000 0.18010  0.28940  0.08450  Biso   1.000  C
  C95      1.0000 0.31990  0.78940  0.41550  Biso   1.000  C
  C96      1.0000 0.68010  0.78940  0.08450  Biso   1.000  C
  H57      1.0000 0.20530  0.70710  0.63010  Biso   1.000  H
  H58      1.0000 0.79470  0.70710  0.86990  Biso   1.000  H
  H59      1.0000 0.70530  0.20710  0.63010  Biso   1.000  H
  H60      1.0000 0.29470  0.20710  0.86990  Biso   1.000  H
  H61      1.0000 0.79470  0.29290  0.36990  Biso   1.000  H
  H62      1.0000 0.20530  0.29290  0.13010  Biso   1.000  H
  H63      1.0000 0.29470  0.79290  0.36990  Biso   1.000  H
  H64      1.0000 0.70530  0.79290  0.13010  Biso   1.000  H
  C97      1.0000 0.14360  0.59580  0.55460  Biso   1.000  C
  C98      1.0000 0.85640  0.59580  0.94540  Biso   1.000  C
  C99      1.0000 0.64360  0.09580  0.55460  Biso   1.000  C
  C100     1.0000 0.35640  0.09580  0.94540  Biso   1.000  C
  C101     1.0000 0.85640  0.40420  0.44540  Biso   1.000  C
  C102     1.0000 0.14360  0.40420  0.05460  Biso   1.000  C
  C103     1.0000 0.35640  0.90420  0.44540  Biso   1.000  C
  C104     1.0000 0.64360  0.90420  0.05460  Biso   1.000  C
  H65      1.0000 0.14370  0.51500  0.58050  Biso   1.000  H
  H66      1.0000 0.85630  0.51500  0.91950  Biso   1.000  H
  H67      1.0000 0.64370  0.01500  0.58050  Biso   1.000  H
  H68      1.0000 0.35630  0.01500  0.91950  Biso   1.000  H
  H69      1.0000 0.85630  0.48500  0.41950  Biso   1.000  H
  H70      1.0000 0.14370  0.48500  0.08050  Biso   1.000  H
  H71      1.0000 0.35630  0.98500  0.41950  Biso   1.000  H
  H72      1.0000 0.64370  0.98500  0.08050  Biso   1.000  H
  C105     1.0000 0.10750  0.60090  0.48750  Biso   1.000  C
  C106     1.0000 0.89250  0.60090  0.01250  Biso   1.000  C
  C107     1.0000 0.60750  0.10090  0.48750  Biso   1.000  C
  C108     1.0000 0.39250  0.10090  0.01250  Biso   1.000  C
  C109     1.0000 0.89250  0.39910  0.51250  Biso   1.000  C
  C110     1.0000 0.10750  0.39910  0.98750  Biso   1.000  C
  C111     1.0000 0.39250  0.89910  0.51250  Biso   1.000  C
  C112     1.0000 0.60750  0.89910  0.98750  Biso   1.000  C
  H73      1.0000 0.08390  0.52240  0.46780  Biso   1.000  H
  H74      1.0000 0.91610  0.52240  0.03220  Biso   1.000  H
  H75      1.0000 0.58390  0.02240  0.46780  Biso   1.000  H
  H76      1.0000 0.41610  0.02240  0.03220  Biso   1.000  H
  H77      1.0000 0.91610  0.47760  0.53220  Biso   1.000  H
  H78      1.0000 0.08390  0.47760  0.96780  Biso   1.000  H
  H79      1.0000 0.41610  0.97760  0.53220  Biso   1.000  H
  H80      1.0000 0.58390  0.97760  0.96780  Biso   1.000  H
  C113     1.0000 0.03040  0.15460  0.20360  Biso   1.000  C
  C114     1.0000 0.96960  0.15460  0.29640  Biso   1.000  C
  C115     1.0000 0.53040  0.65460  0.20360  Biso   1.000  C
  C116     1.0000 0.46960  0.65460  0.29640  Biso   1.000  C
  C117     1.0000 0.96960  0.84540  0.79640  Biso   1.000  C
  C118     1.0000 0.03040  0.84540  0.70360  Biso   1.000  C
  C119     1.0000 0.46960  0.34540  0.79640  Biso   1.000  C
  C120     1.0000 0.53040  0.34540  0.70360  Biso   1.000  C
  H81      1.0000 0.05210  0.10750  0.17050  Biso   1.000  H
  H82      1.0000 0.94790  0.10750  0.32950  Biso   1.000  H
  H83      1.0000 0.55210  0.60750  0.17050  Biso   1.000  H
  H84      1.0000 0.44790  0.60750  0.32950  Biso   1.000  H
  H85      1.0000 0.94790  0.89250  0.82950  Biso   1.000  H
  H86      1.0000 0.05210  0.89250  0.67050  Biso   1.000  H
  H87      1.0000 0.44790  0.39250  0.82950  Biso   1.000  H
  H88      1.0000 0.55210  0.39250  0.67050  Biso   1.000  H
  C121     1.0000 0.03040  0.29760  0.20340  Biso   1.000  C
  C122     1.0000 0.96960  0.29760  0.29660  Biso   1.000  C
  C123     1.0000 0.53040  0.79760  0.20340  Biso   1.000  C
  C124     1.0000 0.46960  0.79760  0.29660  Biso   1.000  C
  C125     1.0000 0.96960  0.70240  0.79660  Biso   1.000  C
  C126     1.0000 0.03040  0.70240  0.70340  Biso   1.000  C
  C127     1.0000 0.46960  0.20240  0.79660  Biso   1.000  C
  C128     1.0000 0.53040  0.20240  0.70340  Biso   1.000  C
  H89      1.0000 0.05200  0.34440  0.17010  Biso   1.000  H
  H90      1.0000 0.94800  0.34440  0.32990  Biso   1.000  H
  H91      1.0000 0.55200  0.84440  0.17010  Biso   1.000  H
  H92      1.0000 0.44800  0.84440  0.32990  Biso   1.000  H
  H93      1.0000 0.94800  0.65560  0.82990  Biso   1.000  H
  H94      1.0000 0.05200  0.65560  0.67010  Biso   1.000  H
  H95      1.0000 0.44800  0.15560  0.82990  Biso   1.000  H
  H96      1.0000 0.55200  0.15560  0.67010  Biso   1.000  H
  Cu1      1.0000 0.00000  0.85936  0.25000  Biso   1.000  Cu
  Cu2      1.0000 0.50000  0.35936  0.25000  Biso   1.000  Cu
  Cu3      1.0000 0.00000  0.14064  0.75000  Biso   1.000  Cu
  Cu4      1.0000 0.50000  0.64064  0.75000  Biso   1.000  Cu
  Cu5      1.0000 0.00000  0.59288  0.25000  Biso   1.000  Cu
  Cu6      1.0000 0.50000  0.09288  0.25000  Biso   1.000  Cu
  Cu7      1.0000 0.00000  0.40712  0.75000  Biso   1.000  Cu
  Cu8      1.0000 0.50000  0.90712  0.75000  Biso   1.000  Cu
  N1       1.0000 0.00000  0.08410  0.25000  Biso   1.000  N
  N2       1.0000 0.50000  0.58410  0.25000  Biso   1.000  N
  N3       1.0000 0.00000  0.91590  0.75000  Biso   1.000  N
  N4       1.0000 0.50000  0.41590  0.75000  Biso   1.000  N
  N5       1.0000 0.00000  0.36910  0.25000  Biso   1.000  N
  N6       1.0000 0.50000  0.86910  0.25000  Biso   1.000  N
  N7       1.0000 0.00000  0.63090  0.75000  Biso   1.000  N
  N8       1.0000 0.50000  0.13090  0.75000  Biso   1.000  N
  O1       1.0000 0.09153  0.84460  0.21322  Biso   1.000  O
  O2       1.0000 0.90847  0.84460  0.28678  Biso   1.000  O
  O3       1.0000 0.59153  0.34460  0.21322  Biso   1.000  O
  O4       1.0000 0.40847  0.34460  0.28678  Biso   1.000  O
  O5       1.0000 0.90847  0.15540  0.78678  Biso   1.000  O
  O6       1.0000 0.09153  0.15540  0.71322  Biso   1.000  O
  O7       1.0000 0.40847  0.65540  0.78678  Biso   1.000  O
  O8       1.0000 0.59153  0.65540  0.71322  Biso   1.000  O
  O9       1.0000 0.09749  0.61560  0.22533  Biso   1.000  O
  O10      1.0000 0.90251  0.61560  0.27467  Biso   1.000  O
  O11      1.0000 0.59749  0.11560  0.22533  Biso   1.000  O
  O12      1.0000 0.40251  0.11560  0.27467  Biso   1.000  O
  O13      1.0000 0.90251  0.38440  0.77467  Biso   1.000  O
  O14      1.0000 0.09749  0.38440  0.72533  Biso   1.000  O
  O15      1.0000 0.40251  0.88440  0.77467  Biso   1.000  O
  O16      1.0000 0.59749  0.88440  0.72533  Biso   1.000  O
  O17      1.0000 0.05561  0.83730  0.34525  Biso   1.000  O
  O18      1.0000 0.94439  0.83730  0.15475  Biso   1.000  O
  O19      1.0000 0.55561  0.33730  0.34525  Biso   1.000  O
  O20      1.0000 0.44439  0.33730  0.15475  Biso   1.000  O
  O21      1.0000 0.94439  0.16270  0.65475  Biso   1.000  O
  O22      1.0000 0.05561  0.16270  0.84525  Biso   1.000  O
  O23      1.0000 0.44439  0.66270  0.65475  Biso   1.000  O
  O24      1.0000 0.55561  0.66270  0.84525  Biso   1.000  O
  O25      1.0000 0.04247  0.60810  0.34833  Biso   1.000  O
  O26      1.0000 0.95753  0.60810  0.15167  Biso   1.000  O
  O27      1.0000 0.54247  0.10810  0.34833  Biso   1.000  O
  O28      1.0000 0.45753  0.10810  0.15167  Biso   1.000  O
  O29      1.0000 0.95753  0.39190  0.65167  Biso   1.000  O
  O30      1.0000 0.04247  0.39190  0.84833  Biso   1.000  O
  O31      1.0000 0.45753  0.89190  0.65167  Biso   1.000  O
  O32      1.0000 0.54247  0.89190  0.84833  Biso   1.000  O
  C129     1.0000 0.07340  0.80760  0.01280  Biso   1.000  C
  C130     1.0000 0.92660  0.80760  0.48720  Biso   1.000  C
  C131     1.0000 0.57340  0.30760  0.01280  Biso   1.000  C
  C132     1.0000 0.42660  0.30760  0.48720  Biso   1.000  C
  C133     1.0000 0.92660  0.19240  0.98720  Biso   1.000  C
  C134     1.0000 0.07340  0.19240  0.51280  Biso   1.000  C
  C135     1.0000 0.42660  0.69240  0.98720  Biso   1.000  C
  C136     1.0000 0.57340  0.69240  0.51280  Biso   1.000  C
  H97      1.0000 0.04900  0.84900  0.97060  Biso   1.000  H
  H98      1.0000 0.95100  0.84900  0.52940  Biso   1.000  H
  H99      1.0000 0.54900  0.34900  0.97060  Biso   1.000  H
  H100     1.0000 0.45100  0.34900  0.52940  Biso   1.000  H
  H101     1.0000 0.95100  0.15100  0.02940  Biso   1.000  H
  H102     1.0000 0.04900  0.15100  0.47060  Biso   1.000  H
  H103     1.0000 0.45100  0.65100  0.02940  Biso   1.000  H
  H104     1.0000 0.54900  0.65100  0.47060  Biso   1.000  H
  H105     1.0000 0.06300  0.85800  0.05300  Biso   1.000  H
  H106     1.0000 0.93700  0.85800  0.44700  Biso   1.000  H
  H107     1.0000 0.56300  0.35800  0.05300  Biso   1.000  H
  H108     1.0000 0.43700  0.35800  0.44700  Biso   1.000  H
  H109     1.0000 0.93700  0.14200  0.94700  Biso   1.000  H
  H110     1.0000 0.06300  0.14200  0.55300  Biso   1.000  H
  H111     1.0000 0.43700  0.64200  0.94700  Biso   1.000  H
  H112     1.0000 0.56300  0.64200  0.55300  Biso   1.000  H
  H113     1.0000 0.05700  0.71400  0.01500  Biso   1.000  H
  H114     1.0000 0.94300  0.71400  0.48500  Biso   1.000  H
  H115     1.0000 0.55700  0.21400  0.01500  Biso   1.000  H
  H116     1.0000 0.44300  0.21400  0.48500  Biso   1.000  H
  H117     1.0000 0.94300  0.28600  0.98500  Biso   1.000  H
  H118     1.0000 0.05700  0.28600  0.51500  Biso   1.000  H
  H119     1.0000 0.44300  0.78600  0.98500  Biso   1.000  H
  H120     1.0000 0.55700  0.78600  0.51500  Biso   1.000  H
  H121     1.0000 0.12490  0.80900  0.01200  Biso   1.000  H
  H122     1.0000 0.87510  0.80900  0.48800  Biso   1.000  H
  H123     1.0000 0.62490  0.30900  0.01200  Biso   1.000  H
  H124     1.0000 0.37510  0.30900  0.48800  Biso   1.000  H
  H125     1.0000 0.87510  0.19100  0.98800  Biso   1.000  H
  H126     1.0000 0.12490  0.19100  0.51200  Biso   1.000  H
  H127     1.0000 0.37510  0.69100  0.98800  Biso   1.000  H
  H128     1.0000 0.62490  0.69100  0.51200  Biso   1.000  H
