data_image0
_cell_length_a       18.604
_cell_length_b       9.7172
_cell_length_c       19.352
_cell_angle_alpha    90
_cell_angle_beta     99.399
_cell_angle_gamma    90

_symmetry_space_group_name_H-M    "P 1"
_symmetry_int_tables_number       1

loop_
  _symmetry_equiv_pos_as_xyz
  'x, y, z'

loop_
  _atom_site_label
  _atom_site_occupancy
  _atom_site_fract_x
  _atom_site_fract_y
  _atom_site_fract_z
  _atom_site_thermal_displace_type
  _atom_site_B_iso_or_equiv
  _atom_site_type_symbol
  C1       1.0000 0.12350  0.73070  0.21130  Biso   1.000  C
  C2       1.0000 0.87650  0.73070  0.28870  Biso   1.000  C
  C3       1.0000 0.62350  0.23070  0.21130  Biso   1.000  C
  C4       1.0000 0.37650  0.23070  0.28870  Biso   1.000  C
  C5       1.0000 0.87650  0.26930  0.78870  Biso   1.000  C
  C6       1.0000 0.12350  0.26930  0.71130  Biso   1.000  C
  C7       1.0000 0.37650  0.76930  0.78870  Biso   1.000  C
  C8       1.0000 0.62350  0.76930  0.71130  Biso   1.000  C
  C9       1.0000 0.19760  0.73230  0.19120  Biso   1.000  C
  C10      1.0000 0.80240  0.73230  0.30880  Biso   1.000  C
  C11      1.0000 0.69760  0.23230  0.19120  Biso   1.000  C
  C12      1.0000 0.30240  0.23230  0.30880  Biso   1.000  C
  C13      1.0000 0.80240  0.26770  0.80880  Biso   1.000  C
  C14      1.0000 0.19760  0.26770  0.69120  Biso   1.000  C
  C15      1.0000 0.30240  0.76770  0.80880  Biso   1.000  C
  C16      1.0000 0.69760  0.76770  0.69120  Biso   1.000  C
  C17      1.0000 0.22680  0.85190  0.17050  Biso   1.000  C
  C18      1.0000 0.77320  0.85190  0.32950  Biso   1.000  C
  C19      1.0000 0.72680  0.35190  0.17050  Biso   1.000  C
  C20      1.0000 0.27320  0.35190  0.32950  Biso   1.000  C
  C21      1.0000 0.77320  0.14810  0.82950  Biso   1.000  C
  C22      1.0000 0.22680  0.14810  0.67050  Biso   1.000  C
  C23      1.0000 0.27320  0.64810  0.82950  Biso   1.000  C
  C24      1.0000 0.72680  0.64810  0.67050  Biso   1.000  C
  H1       1.0000 0.20060  0.93360  0.17040  Biso   1.000  H
  H2       1.0000 0.79940  0.93360  0.32960  Biso   1.000  H
  H3       1.0000 0.70060  0.43360  0.17040  Biso   1.000  H
  H4       1.0000 0.29940  0.43360  0.32960  Biso   1.000  H
  H5       1.0000 0.79940  0.06640  0.82960  Biso   1.000  H
  H6       1.0000 0.20060  0.06640  0.67040  Biso   1.000  H
  H7       1.0000 0.29940  0.56640  0.82960  Biso   1.000  H
  H8       1.0000 0.70060  0.56640  0.67040  Biso   1.000  H
  C25      1.0000 0.29410  0.85290  0.15010  Biso   1.000  C
  C26      1.0000 0.70590  0.85290  0.34990  Biso   1.000  C
  C27      1.0000 0.79410  0.35290  0.15010  Biso   1.000  C
  C28      1.0000 0.20590  0.35290  0.34990  Biso   1.000  C
  C29      1.0000 0.70590  0.14710  0.84990  Biso   1.000  C
  C30      1.0000 0.29410  0.14710  0.65010  Biso   1.000  C
  C31      1.0000 0.20590  0.64710  0.84990  Biso   1.000  C
  C32      1.0000 0.79410  0.64710  0.65010  Biso   1.000  C
  H9       1.0000 0.31330  0.93440  0.13570  Biso   1.000  H
  H10      1.0000 0.68670  0.93440  0.36430  Biso   1.000  H
  H11      1.0000 0.81330  0.43440  0.13570  Biso   1.000  H
  H12      1.0000 0.18670  0.43440  0.36430  Biso   1.000  H
  H13      1.0000 0.68670  0.06560  0.86430  Biso   1.000  H
  H14      1.0000 0.31330  0.06560  0.63570  Biso   1.000  H
  H15      1.0000 0.18670  0.56560  0.86430  Biso   1.000  H
  H16      1.0000 0.81330  0.56560  0.63570  Biso   1.000  H
  C33      1.0000 0.33300  0.73160  0.15120  Biso   1.000  C
  C34      1.0000 0.66700  0.73160  0.34880  Biso   1.000  C
  C35      1.0000 0.83300  0.23160  0.15120  Biso   1.000  C
  C36      1.0000 0.16700  0.23160  0.34880  Biso   1.000  C
  C37      1.0000 0.66700  0.26840  0.84880  Biso   1.000  C
  C38      1.0000 0.33300  0.26840  0.65120  Biso   1.000  C
  C39      1.0000 0.16700  0.76840  0.84880  Biso   1.000  C
  C40      1.0000 0.83300  0.76840  0.65120  Biso   1.000  C
  H17      1.0000 0.37810  0.73110  0.13660  Biso   1.000  H
  H18      1.0000 0.62190  0.73110  0.36340  Biso   1.000  H
  H19      1.0000 0.87810  0.23110  0.13660  Biso   1.000  H
  H20      1.0000 0.12190  0.23110  0.36340  Biso   1.000  H
  H21      1.0000 0.62190  0.26890  0.86340  Biso   1.000  H
  H22      1.0000 0.37810  0.26890  0.63660  Biso   1.000  H
  H23      1.0000 0.12190  0.76890  0.86340  Biso   1.000  H
  H24      1.0000 0.87810  0.76890  0.63660  Biso   1.000  H
  C41      1.0000 0.30550  0.61240  0.17380  Biso   1.000  C
  C42      1.0000 0.69450  0.61240  0.32620  Biso   1.000  C
  C43      1.0000 0.80550  0.11240  0.17380  Biso   1.000  C
  C44      1.0000 0.19450  0.11240  0.32620  Biso   1.000  C
  C45      1.0000 0.69450  0.38760  0.82620  Biso   1.000  C
  C46      1.0000 0.30550  0.38760  0.67380  Biso   1.000  C
  C47      1.0000 0.19450  0.88760  0.82620  Biso   1.000  C
  C48      1.0000 0.80550  0.88760  0.67380  Biso   1.000  C
  H25      1.0000 0.33230  0.53130  0.17570  Biso   1.000  H
  H26      1.0000 0.66770  0.53130  0.32430  Biso   1.000  H
  H27      1.0000 0.83230  0.03130  0.17570  Biso   1.000  H
  H28      1.0000 0.16770  0.03130  0.32430  Biso   1.000  H
  H29      1.0000 0.66770  0.46870  0.82430  Biso   1.000  H
  H30      1.0000 0.33230  0.46870  0.67570  Biso   1.000  H
  H31      1.0000 0.16770  0.96870  0.82430  Biso   1.000  H
  H32      1.0000 0.83230  0.96870  0.67570  Biso   1.000  H
  C49      1.0000 0.23830  0.61300  0.19360  Biso   1.000  C
  C50      1.0000 0.76170  0.61300  0.30640  Biso   1.000  C
  C51      1.0000 0.73830  0.11300  0.19360  Biso   1.000  C
  C52      1.0000 0.26170  0.11300  0.30640  Biso   1.000  C
  C53      1.0000 0.76170  0.38700  0.80640  Biso   1.000  C
  C54      1.0000 0.23830  0.38700  0.69360  Biso   1.000  C
  C55      1.0000 0.26170  0.88700  0.80640  Biso   1.000  C
  C56      1.0000 0.73830  0.88700  0.69360  Biso   1.000  C
  H33      1.0000 0.21960  0.53180  0.20900  Biso   1.000  H
  H34      1.0000 0.78040  0.53180  0.29100  Biso   1.000  H
  H35      1.0000 0.71960  0.03180  0.20900  Biso   1.000  H
  H36      1.0000 0.28040  0.03180  0.29100  Biso   1.000  H
  H37      1.0000 0.78040  0.46820  0.79100  Biso   1.000  H
  H38      1.0000 0.21960  0.46820  0.70900  Biso   1.000  H
  H39      1.0000 0.28040  0.96820  0.79100  Biso   1.000  H
  H40      1.0000 0.71960  0.96820  0.70900  Biso   1.000  H
  C57      1.0000 0.06480  0.72140  0.37610  Biso   1.000  C
  C58      1.0000 0.93520  0.72140  0.12390  Biso   1.000  C
  C59      1.0000 0.56480  0.22140  0.37610  Biso   1.000  C
  C60      1.0000 0.43520  0.22140  0.12390  Biso   1.000  C
  C61      1.0000 0.93520  0.27860  0.62390  Biso   1.000  C
  C62      1.0000 0.06480  0.27860  0.87610  Biso   1.000  C
  C63      1.0000 0.43520  0.77860  0.62390  Biso   1.000  C
  C64      1.0000 0.56480  0.77860  0.87610  Biso   1.000  C
  C65      1.0000 0.10530  0.71860  0.44880  Biso   1.000  C
  C66      1.0000 0.89470  0.71860  0.05120  Biso   1.000  C
  C67      1.0000 0.60530  0.21860  0.44880  Biso   1.000  C
  C68      1.0000 0.39470  0.21860  0.05120  Biso   1.000  C
  C69      1.0000 0.89470  0.28140  0.55120  Biso   1.000  C
  C70      1.0000 0.10530  0.28140  0.94880  Biso   1.000  C
  C71      1.0000 0.39470  0.78140  0.55120  Biso   1.000  C
  C72      1.0000 0.60530  0.78140  0.94880  Biso   1.000  C
  C73      1.0000 0.14000  0.83410  0.47820  Biso   1.000  C
  C74      1.0000 0.86000  0.83410  0.02180  Biso   1.000  C
  C75      1.0000 0.64000  0.33410  0.47820  Biso   1.000  C
  C76      1.0000 0.36000  0.33410  0.02180  Biso   1.000  C
  C77      1.0000 0.86000  0.16590  0.52180  Biso   1.000  C
  C78      1.0000 0.14000  0.16590  0.97820  Biso   1.000  C
  C79      1.0000 0.36000  0.66590  0.52180  Biso   1.000  C
  C80      1.0000 0.64000  0.66590  0.97820  Biso   1.000  C
  H41      1.0000 0.13810  0.91580  0.45290  Biso   1.000  H
  H42      1.0000 0.86190  0.91580  0.04710  Biso   1.000  H
  H43      1.0000 0.63810  0.41580  0.45290  Biso   1.000  H
  H44      1.0000 0.36190  0.41580  0.04710  Biso   1.000  H
  H45      1.0000 0.86190  0.08420  0.54710  Biso   1.000  H
  H46      1.0000 0.13810  0.08420  0.95290  Biso   1.000  H
  H47      1.0000 0.36190  0.58420  0.54710  Biso   1.000  H
  H48      1.0000 0.63810  0.58420  0.95290  Biso   1.000  H
  C81      1.0000 0.17780  0.82760  0.54610  Biso   1.000  C
  C82      1.0000 0.82220  0.82760  0.95390  Biso   1.000  C
  C83      1.0000 0.67780  0.32760  0.54610  Biso   1.000  C
  C84      1.0000 0.32220  0.32760  0.95390  Biso   1.000  C
  C85      1.0000 0.82220  0.17240  0.45390  Biso   1.000  C
  C86      1.0000 0.17780  0.17240  0.04610  Biso   1.000  C
  C87      1.0000 0.32220  0.67240  0.45390  Biso   1.000  C
  C88      1.0000 0.67780  0.67240  0.04610  Biso   1.000  C
  H49      1.0000 0.20260  0.90490  0.56570  Biso   1.000  H
  H50      1.0000 0.79740  0.90490  0.93430  Biso   1.000  H
  H51      1.0000 0.70260  0.40490  0.56570  Biso   1.000  H
  H52      1.0000 0.29740  0.40490  0.93430  Biso   1.000  H
  H53      1.0000 0.79740  0.09510  0.43430  Biso   1.000  H
  H54      1.0000 0.20260  0.09510  0.06570  Biso   1.000  H
  H55      1.0000 0.29740  0.59510  0.43430  Biso   1.000  H
  H56      1.0000 0.70260  0.59510  0.06570  Biso   1.000  H
  C89      1.0000 0.17920  0.71010  0.58440  Biso   1.000  C
  C90      1.0000 0.82080  0.71010  0.91560  Biso   1.000  C
  C91      1.0000 0.67920  0.21010  0.58440  Biso   1.000  C
  C92      1.0000 0.32080  0.21010  0.91560  Biso   1.000  C
  C93      1.0000 0.82080  0.28990  0.41560  Biso   1.000  C
  C94      1.0000 0.17920  0.28990  0.08440  Biso   1.000  C
  C95      1.0000 0.32080  0.78990  0.41560  Biso   1.000  C
  C96      1.0000 0.67920  0.78990  0.08440  Biso   1.000  C
  H57      1.0000 0.20440  0.70750  0.63010  Biso   1.000  H
  H58      1.0000 0.79560  0.70750  0.86990  Biso   1.000  H
  H59      1.0000 0.70440  0.20750  0.63010  Biso   1.000  H
  H60      1.0000 0.29560  0.20750  0.86990  Biso   1.000  H
  H61      1.0000 0.79560  0.29250  0.36990  Biso   1.000  H
  H62      1.0000 0.20440  0.29250  0.13010  Biso   1.000  H
  H63      1.0000 0.29560  0.79250  0.36990  Biso   1.000  H
  H64      1.0000 0.70440  0.79250  0.13010  Biso   1.000  H
  C97      1.0000 0.14370  0.59670  0.55560  Biso   1.000  C
  C98      1.0000 0.85630  0.59670  0.94440  Biso   1.000  C
  C99      1.0000 0.64370  0.09670  0.55560  Biso   1.000  C
  C100     1.0000 0.35630  0.09670  0.94440  Biso   1.000  C
  C101     1.0000 0.85630  0.40330  0.44440  Biso   1.000  C
  C102     1.0000 0.14370  0.40330  0.05560  Biso   1.000  C
  C103     1.0000 0.35630  0.90330  0.44440  Biso   1.000  C
  C104     1.0000 0.64370  0.90330  0.05560  Biso   1.000  C
  H65      1.0000 0.14390  0.51640  0.58180  Biso   1.000  H
  H66      1.0000 0.85610  0.51640  0.91820  Biso   1.000  H
  H67      1.0000 0.64390  0.01640  0.58180  Biso   1.000  H
  H68      1.0000 0.35610  0.01640  0.91820  Biso   1.000  H
  H69      1.0000 0.85610  0.48360  0.41820  Biso   1.000  H
  H70      1.0000 0.14390  0.48360  0.08180  Biso   1.000  H
  H71      1.0000 0.35610  0.98360  0.41820  Biso   1.000  H
  H72      1.0000 0.64390  0.98360  0.08180  Biso   1.000  H
  C105     1.0000 0.10790  0.60030  0.48870  Biso   1.000  C
  C106     1.0000 0.89210  0.60030  0.01130  Biso   1.000  C
  C107     1.0000 0.60790  0.10030  0.48870  Biso   1.000  C
  C108     1.0000 0.39210  0.10030  0.01130  Biso   1.000  C
  C109     1.0000 0.89210  0.39970  0.51130  Biso   1.000  C
  C110     1.0000 0.10790  0.39970  0.98870  Biso   1.000  C
  C111     1.0000 0.39210  0.89970  0.51130  Biso   1.000  C
  C112     1.0000 0.60790  0.89970  0.98870  Biso   1.000  C
  H73      1.0000 0.08460  0.52140  0.46920  Biso   1.000  H
  H74      1.0000 0.91540  0.52140  0.03080  Biso   1.000  H
  H75      1.0000 0.58460  0.02140  0.46920  Biso   1.000  H
  H76      1.0000 0.41540  0.02140  0.03080  Biso   1.000  H
  H77      1.0000 0.91540  0.47860  0.53080  Biso   1.000  H
  H78      1.0000 0.08460  0.47860  0.96920  Biso   1.000  H
  H79      1.0000 0.41540  0.97860  0.53080  Biso   1.000  H
  H80      1.0000 0.58460  0.97860  0.96920  Biso   1.000  H
  C113     1.0000 0.03040  0.15560  0.20370  Biso   1.000  C
  C114     1.0000 0.96960  0.15560  0.29630  Biso   1.000  C
  C115     1.0000 0.53040  0.65560  0.20370  Biso   1.000  C
  C116     1.0000 0.46960  0.65560  0.29630  Biso   1.000  C
  C117     1.0000 0.96960  0.84440  0.79630  Biso   1.000  C
  C118     1.0000 0.03040  0.84440  0.70370  Biso   1.000  C
  C119     1.0000 0.46960  0.34440  0.79630  Biso   1.000  C
  C120     1.0000 0.53040  0.34440  0.70370  Biso   1.000  C
  H81      1.0000 0.05230  0.10850  0.17080  Biso   1.000  H
  H82      1.0000 0.94770  0.10850  0.32920  Biso   1.000  H
  H83      1.0000 0.55230  0.60850  0.17080  Biso   1.000  H
  H84      1.0000 0.44770  0.60850  0.32920  Biso   1.000  H
  H85      1.0000 0.94770  0.89150  0.82920  Biso   1.000  H
  H86      1.0000 0.05230  0.89150  0.67080  Biso   1.000  H
  H87      1.0000 0.44770  0.39150  0.82920  Biso   1.000  H
  H88      1.0000 0.55230  0.39150  0.67080  Biso   1.000  H
  C121     1.0000 0.03020  0.29850  0.20320  Biso   1.000  C
  C122     1.0000 0.96980  0.29850  0.29680  Biso   1.000  C
  C123     1.0000 0.53020  0.79850  0.20320  Biso   1.000  C
  C124     1.0000 0.46980  0.79850  0.29680  Biso   1.000  C
  C125     1.0000 0.96980  0.70150  0.79680  Biso   1.000  C
  C126     1.0000 0.03020  0.70150  0.70320  Biso   1.000  C
  C127     1.0000 0.46980  0.20150  0.79680  Biso   1.000  C
  C128     1.0000 0.53020  0.20150  0.70320  Biso   1.000  C
  H89      1.0000 0.05130  0.34570  0.16980  Biso   1.000  H
  H90      1.0000 0.94870  0.34570  0.33020  Biso   1.000  H
  H91      1.0000 0.55130  0.84570  0.16980  Biso   1.000  H
  H92      1.0000 0.44870  0.84570  0.33020  Biso   1.000  H
  H93      1.0000 0.94870  0.65430  0.83020  Biso   1.000  H
  H94      1.0000 0.05130  0.65430  0.66980  Biso   1.000  H
  H95      1.0000 0.44870  0.15430  0.83020  Biso   1.000  H
  H96      1.0000 0.55130  0.15430  0.66980  Biso   1.000  H
  Cu1      1.0000 0.00000  0.85938  0.25000  Biso   1.000  Cu
  Cu2      1.0000 0.50000  0.35938  0.25000  Biso   1.000  Cu
  Cu3      1.0000 0.00000  0.14062  0.75000  Biso   1.000  Cu
  Cu4      1.0000 0.50000  0.64062  0.75000  Biso   1.000  Cu
  Cu5      1.0000 0.00000  0.59282  0.25000  Biso   1.000  Cu
  Cu6      1.0000 0.50000  0.09282  0.25000  Biso   1.000  Cu
  Cu7      1.0000 0.00000  0.40718  0.75000  Biso   1.000  Cu
  Cu8      1.0000 0.50000  0.90718  0.75000  Biso   1.000  Cu
  N1       1.0000 0.00000  0.08470  0.25000  Biso   1.000  N
  N2       1.0000 0.50000  0.58470  0.25000  Biso   1.000  N
  N3       1.0000 0.00000  0.91530  0.75000  Biso   1.000  N
  N4       1.0000 0.50000  0.41530  0.75000  Biso   1.000  N
  N5       1.0000 0.00000  0.36810  0.25000  Biso   1.000  N
  N6       1.0000 0.50000  0.86810  0.25000  Biso   1.000  N
  N7       1.0000 0.00000  0.63190  0.75000  Biso   1.000  N
  N8       1.0000 0.50000  0.13190  0.75000  Biso   1.000  N
  O1       1.0000 0.09121  0.84430  0.21349  Biso   1.000  O
  O2       1.0000 0.90879  0.84430  0.28651  Biso   1.000  O
  O3       1.0000 0.59121  0.34430  0.21349  Biso   1.000  O
  O4       1.0000 0.40879  0.34430  0.28651  Biso   1.000  O
  O5       1.0000 0.90879  0.15570  0.78651  Biso   1.000  O
  O6       1.0000 0.09121  0.15570  0.71349  Biso   1.000  O
  O7       1.0000 0.40879  0.65570  0.78651  Biso   1.000  O
  O8       1.0000 0.59121  0.65570  0.71349  Biso   1.000  O
  O9       1.0000 0.09744  0.61560  0.22506  Biso   1.000  O
  O10      1.0000 0.90256  0.61560  0.27494  Biso   1.000  O
  O11      1.0000 0.59744  0.11560  0.22506  Biso   1.000  O
  O12      1.0000 0.40256  0.11560  0.27494  Biso   1.000  O
  O13      1.0000 0.90256  0.38440  0.77494  Biso   1.000  O
  O14      1.0000 0.09744  0.38440  0.72506  Biso   1.000  O
  O15      1.0000 0.40256  0.88440  0.77494  Biso   1.000  O
  O16      1.0000 0.59744  0.88440  0.72506  Biso   1.000  O
  O17      1.0000 0.05507  0.83640  0.34515  Biso   1.000  O
  O18      1.0000 0.94493  0.83640  0.15485  Biso   1.000  O
  O19      1.0000 0.55507  0.33640  0.34515  Biso   1.000  O
  O20      1.0000 0.44493  0.33640  0.15485  Biso   1.000  O
  O21      1.0000 0.94493  0.16360  0.65485  Biso   1.000  O
  O22      1.0000 0.05507  0.16360  0.84515  Biso   1.000  O
  O23      1.0000 0.44493  0.66360  0.65485  Biso   1.000  O
  O24      1.0000 0.55507  0.66360  0.84515  Biso   1.000  O
  O25      1.0000 0.04242  0.60820  0.34862  Biso   1.000  O
  O26      1.0000 0.95758  0.60820  0.15138  Biso   1.000  O
  O27      1.0000 0.54242  0.10820  0.34862  Biso   1.000  O
  O28      1.0000 0.45758  0.10820  0.15138  Biso   1.000  O
  O29      1.0000 0.95758  0.39180  0.65138  Biso   1.000  O
  O30      1.0000 0.04242  0.39180  0.84862  Biso   1.000  O
  O31      1.0000 0.45758  0.89180  0.65138  Biso   1.000  O
  O32      1.0000 0.54242  0.89180  0.84862  Biso   1.000  O
  C129     1.0000 0.07330  0.80720  0.01280  Biso   1.000  C
  C130     1.0000 0.92670  0.80720  0.48720  Biso   1.000  C
  C131     1.0000 0.57330  0.30720  0.01280  Biso   1.000  C
  C132     1.0000 0.42670  0.30720  0.48720  Biso   1.000  C
  C133     1.0000 0.92670  0.19280  0.98720  Biso   1.000  C
  C134     1.0000 0.07330  0.19280  0.51280  Biso   1.000  C
  C135     1.0000 0.42670  0.69280  0.98720  Biso   1.000  C
  C136     1.0000 0.57330  0.69280  0.51280  Biso   1.000  C
  H97      1.0000 0.12470  0.79900  0.01300  Biso   1.000  H
  H98      1.0000 0.87530  0.79900  0.48700  Biso   1.000  H
  H99      1.0000 0.62470  0.29900  0.01300  Biso   1.000  H
  H100     1.0000 0.37530  0.29900  0.48700  Biso   1.000  H
  H101     1.0000 0.87530  0.20100  0.98700  Biso   1.000  H
  H102     1.0000 0.12470  0.20100  0.51300  Biso   1.000  H
  H103     1.0000 0.37530  0.70100  0.98700  Biso   1.000  H
  H104     1.0000 0.62470  0.70100  0.51300  Biso   1.000  H
  H105     1.0000 0.06500  0.87000  0.04900  Biso   1.000  H
  H106     1.0000 0.93500  0.87000  0.45100  Biso   1.000  H
  H107     1.0000 0.56500  0.37000  0.04900  Biso   1.000  H
  H108     1.0000 0.43500  0.37000  0.45100  Biso   1.000  H
  H109     1.0000 0.93500  0.13000  0.95100  Biso   1.000  H
  H110     1.0000 0.06500  0.13000  0.54900  Biso   1.000  H
  H111     1.0000 0.43500  0.63000  0.95100  Biso   1.000  H
  H112     1.0000 0.56500  0.63000  0.54900  Biso   1.000  H
  H113     1.0000 0.05000  0.84000  0.96790  Biso   1.000  H
  H114     1.0000 0.95000  0.84000  0.53210  Biso   1.000  H
  H115     1.0000 0.55000  0.34000  0.96790  Biso   1.000  H
  H116     1.0000 0.45000  0.34000  0.53210  Biso   1.000  H
  H117     1.0000 0.95000  0.16000  0.03210  Biso   1.000  H
  H118     1.0000 0.05000  0.16000  0.46790  Biso   1.000  H
  H119     1.0000 0.45000  0.66000  0.03210  Biso   1.000  H
  H120     1.0000 0.55000  0.66000  0.46790  Biso   1.000  H
  H121     1.0000 0.05400  0.71900  0.02200  Biso   1.000  H
  H122     1.0000 0.94600  0.71900  0.47800  Biso   1.000  H
  H123     1.0000 0.55400  0.21900  0.02200  Biso   1.000  H
  H124     1.0000 0.44600  0.21900  0.47800  Biso   1.000  H
  H125     1.0000 0.94600  0.28100  0.97800  Biso   1.000  H
  H126     1.0000 0.05400  0.28100  0.52200  Biso   1.000  H
  H127     1.0000 0.44600  0.78100  0.97800  Biso   1.000  H
  H128     1.0000 0.55400  0.78100  0.52200  Biso   1.000  H
