data_image0
_cell_length_a       9.678
_cell_length_b       10.148
_cell_length_c       10.688
_cell_angle_alpha    71.471
_cell_angle_beta     64.337
_cell_angle_gamma    62.787

_symmetry_space_group_name_H-M    "P 1"
_symmetry_int_tables_number       1

loop_
  _symmetry_equiv_pos_as_xyz
  'x, y, z'

loop_
  _atom_site_label
  _atom_site_occupancy
  _atom_site_fract_x
  _atom_site_fract_y
  _atom_site_fract_z
  _atom_site_thermal_displace_type
  _atom_site_B_iso_or_equiv
  _atom_site_type_symbol
  C1       1.0000 0.33370  0.75550  0.57490  Biso   1.000  C
  C2       1.0000 0.66630  0.24450  0.42510  Biso   1.000  C
  C3       1.0000 0.22670  0.90900  0.61910  Biso   1.000  C
  C4       1.0000 0.77330  0.09100  0.38090  Biso   1.000  C
  C5       1.0000 0.05690  0.96780  0.64450  Biso   1.000  C
  C6       1.0000 0.94310  0.03220  0.35550  Biso   1.000  C
  H1       1.0000 0.00950  0.91240  0.63020  Biso   1.000  H
  H2       1.0000 0.99050  0.08760  0.36980  Biso   1.000  H
  C7       1.0000 0.95800  0.10370  0.68960  Biso   1.000  C
  C8       1.0000 0.04200  0.89630  0.31040  Biso   1.000  C
  H3       1.0000 0.84250  0.14340  0.70680  Biso   1.000  H
  H4       1.0000 0.15750  0.85660  0.29320  Biso   1.000  H
  C9       1.0000 0.03090  0.18210  0.70940  Biso   1.000  C
  C10      1.0000 0.96910  0.81790  0.29060  Biso   1.000  C
  H5       1.0000 0.96330  0.27600  0.74220  Biso   1.000  H
  H6       1.0000 0.03670  0.72400  0.25780  Biso   1.000  H
  C11      1.0000 0.19680  0.12840  0.68320  Biso   1.000  C
  C12      1.0000 0.80320  0.87160  0.31680  Biso   1.000  C
  H7       1.0000 0.24390  0.18450  0.69690  Biso   1.000  H
  H8       1.0000 0.75610  0.81550  0.30310  Biso   1.000  H
  C13      1.0000 0.29700  0.98930  0.63590  Biso   1.000  C
  C14      1.0000 0.70300  0.01070  0.36410  Biso   1.000  C
  H9       1.0000 0.41300  0.95110  0.61570  Biso   1.000  H
  H10      1.0000 0.58700  0.04890  0.38430  Biso   1.000  H
  C15      1.0000 0.45520  0.37470  0.74970  Biso   1.000  C
  C16      1.0000 0.54480  0.62530  0.25030  Biso   1.000  C
  C17      1.0000 0.43430  0.29050  0.90050  Biso   1.000  C
  C18      1.0000 0.56570  0.70950  0.09950  Biso   1.000  C
  C19      1.0000 0.52410  0.29030  0.97220  Biso   1.000  C
  C20      1.0000 0.47590  0.70970  0.02780  Biso   1.000  C
  H11      1.0000 0.59870  0.34120  0.92880  Biso   1.000  H
  H12      1.0000 0.40130  0.65880  0.07120  Biso   1.000  H
  C21      1.0000 0.50380  0.21600  0.10590  Biso   1.000  C
  C22      1.0000 0.49620  0.78400  0.89410  Biso   1.000  C
  H13      1.0000 0.56320  0.21740  0.15650  Biso   1.000  H
  H14      1.0000 0.43680  0.78260  0.84350  Biso   1.000  H
  C23      1.0000 0.39930  0.13940  0.16870  Biso   1.000  C
  C24      1.0000 0.60070  0.86060  0.83130  Biso   1.000  C
  H15      1.0000 0.38980  0.08540  0.26080  Biso   1.000  H
  H16      1.0000 0.61020  0.91460  0.73920  Biso   1.000  H
  C25      1.0000 0.31030  0.14010  0.10070  Biso   1.000  C
  C26      1.0000 0.68970  0.85990  0.89930  Biso   1.000  C
  H17      1.0000 0.23510  0.08980  0.14550  Biso   1.000  H
  H18      1.0000 0.76490  0.91020  0.85450  Biso   1.000  H
  C27      1.0000 0.32930  0.21540  0.96380  Biso   1.000  C
  C28      1.0000 0.67070  0.78460  0.03620  Biso   1.000  C
  H19      1.0000 0.26860  0.21440  0.91430  Biso   1.000  H
  H20      1.0000 0.73140  0.78560  0.08570  Biso   1.000  H
  C29      1.0000 0.99700  0.56440  0.59240  Biso   1.000  C
  C30      1.0000 0.00300  0.43560  0.40760  Biso   1.000  C
  H21      1.0000 0.99010  0.61000  0.66110  Biso   1.000  H
  H22      1.0000 0.00990  0.39000  0.33890  Biso   1.000  H
  C31      1.0000 0.85250  0.57220  0.58700  Biso   1.000  C
  C32      1.0000 0.14750  0.42780  0.41300  Biso   1.000  C
  H23      1.0000 0.74910  0.62640  0.64950  Biso   1.000  H
  H24      1.0000 0.25090  0.37360  0.35050  Biso   1.000  H
  Cu1      1.0000 0.37043  0.48880  0.50437  Biso   1.000  Cu
  Cu2      1.0000 0.62957  0.51120  0.49563  Biso   1.000  Cu
  N1       1.0000 0.14430  0.49480  0.50410  Biso   1.000  N
  N2       1.0000 0.85570  0.50520  0.49590  Biso   1.000  N
  O1       1.0000 0.25870  0.68830  0.56420  Biso   1.000  O
  O2       1.0000 0.74130  0.31170  0.43580  Biso   1.000  O
  O3       1.0000 0.48470  0.70690  0.55630  Biso   1.000  O
  O4       1.0000 0.51530  0.29310  0.44370  Biso   1.000  O
  O5       1.0000 0.35030  0.39160  0.69870  Biso   1.000  O
  O6       1.0000 0.64970  0.60840  0.30130  Biso   1.000  O
  O7       1.0000 0.57290  0.41590  0.69300  Biso   1.000  O
  O8       1.0000 0.42710  0.58410  0.30700  Biso   1.000  O
  C33      1.0000 0.87520  0.34460  0.03780  Biso   1.000  C
  C34      1.0000 0.12480  0.65540  0.96220  Biso   1.000  C
  H25      1.0000 0.76100  0.37900  0.04700  Biso   1.000  H
  H26      1.0000 0.23900  0.62100  0.95300  Biso   1.000  H
  H27      1.0000 0.92400  0.23720  0.04600  Biso   1.000  H
  H28      1.0000 0.07600  0.76280  0.95400  Biso   1.000  H
  H29      1.0000 0.93400  0.38700  0.94800  Biso   1.000  H
  H30      1.0000 0.06600  0.61300  0.05200  Biso   1.000  H
  H31      1.0000 0.88200  0.37600  0.11000  Biso   1.000  H
  H32      1.0000 0.11800  0.62400  0.89000  Biso   1.000  H
