data_image0
_cell_length_a       9.693
_cell_length_b       10.195
_cell_length_c       10.692
_cell_angle_alpha    71.428
_cell_angle_beta     64.517
_cell_angle_gamma    62.919

_symmetry_space_group_name_H-M    "P 1"
_symmetry_int_tables_number       1

loop_
  _symmetry_equiv_pos_as_xyz
  'x, y, z'

loop_
  _atom_site_label
  _atom_site_occupancy
  _atom_site_fract_x
  _atom_site_fract_y
  _atom_site_fract_z
  _atom_site_thermal_displace_type
  _atom_site_B_iso_or_equiv
  _atom_site_type_symbol
  C1       1.0000 0.66780  0.24640  0.42370  Biso   1.000  C
  C2       1.0000 0.33220  0.75360  0.57630  Biso   1.000  C
  C3       1.0000 0.77270  0.09360  0.38110  Biso   1.000  C
  C4       1.0000 0.22730  0.90640  0.61890  Biso   1.000  C
  C5       1.0000 0.70270  0.01030  0.36510  Biso   1.000  C
  C6       1.0000 0.29730  0.98970  0.63490  Biso   1.000  C
  H1       1.0000 0.58720  0.04760  0.38460  Biso   1.000  H
  H2       1.0000 0.41280  0.95240  0.61540  Biso   1.000  H
  C7       1.0000 0.80090  0.87340  0.32080  Biso   1.000  C
  C8       1.0000 0.19910  0.12660  0.67920  Biso   1.000  C
  H3       1.0000 0.75350  0.81610  0.30960  Biso   1.000  H
  H4       1.0000 0.24650  0.18390  0.69040  Biso   1.000  H
  C9       1.0000 0.96770  0.82050  0.29310  Biso   1.000  C
  C10      1.0000 0.03230  0.17950  0.70690  Biso   1.000  C
  H5       1.0000 0.03550  0.72750  0.26010  Biso   1.000  H
  H6       1.0000 0.96450  0.27250  0.73990  Biso   1.000  H
  C11      1.0000 0.03800  0.89920  0.31220  Biso   1.000  C
  C12      1.0000 0.96200  0.10080  0.68780  Biso   1.000  C
  H7       1.0000 0.15290  0.85920  0.29580  Biso   1.000  H
  H8       1.0000 0.84710  0.14080  0.70420  Biso   1.000  H
  C13      1.0000 0.94150  0.03630  0.35510  Biso   1.000  C
  C14      1.0000 0.05850  0.96370  0.64490  Biso   1.000  C
  H9       1.0000 0.99010  0.09200  0.36700  Biso   1.000  H
  H10      1.0000 0.00990  0.90800  0.63300  Biso   1.000  H
  C15      1.0000 0.45590  0.37290  0.75130  Biso   1.000  C
  C16      1.0000 0.54410  0.62710  0.24870  Biso   1.000  C
  C17      1.0000 0.43460  0.29290  0.89790  Biso   1.000  C
  C18      1.0000 0.56540  0.70710  0.10210  Biso   1.000  C
  C19      1.0000 0.32710  0.21710  0.96410  Biso   1.000  C
  C20      1.0000 0.67290  0.78290  0.03590  Biso   1.000  C
  H11      1.0000 0.26440  0.21770  0.91580  Biso   1.000  H
  H12      1.0000 0.73560  0.78230  0.08420  Biso   1.000  H
  C21      1.0000 0.31010  0.14150  0.09810  Biso   1.000  C
  C22      1.0000 0.68990  0.85850  0.90190  Biso   1.000  C
  H13      1.0000 0.23600  0.09040  0.14150  Biso   1.000  H
  H14      1.0000 0.76400  0.90960  0.85850  Biso   1.000  H
  C23      1.0000 0.39980  0.13950  0.16970  Biso   1.000  C
  C24      1.0000 0.60020  0.86050  0.83030  Biso   1.000  C
  H15      1.0000 0.38880  0.08690  0.26230  Biso   1.000  H
  H16      1.0000 0.61120  0.91310  0.73770  Biso   1.000  H
  C25      1.0000 0.50620  0.21520  0.10490  Biso   1.000  C
  C26      1.0000 0.49380  0.78480  0.89510  Biso   1.000  C
  H17      1.0000 0.56830  0.21470  0.15380  Biso   1.000  H
  H18      1.0000 0.43170  0.78530  0.84620  Biso   1.000  H
  C27      1.0000 0.52350  0.29050  0.97180  Biso   1.000  C
  C28      1.0000 0.47650  0.70950  0.02820  Biso   1.000  C
  H19      1.0000 0.59720  0.34200  0.92930  Biso   1.000  H
  H20      1.0000 0.40280  0.65800  0.07070  Biso   1.000  H
  C29      1.0000 0.99660  0.56150  0.59370  Biso   1.000  C
  C30      1.0000 0.00340  0.43850  0.40630  Biso   1.000  C
  H21      1.0000 0.98970  0.60490  0.66380  Biso   1.000  H
  H22      1.0000 0.01030  0.39510  0.33620  Biso   1.000  H
  C31      1.0000 0.85450  0.57110  0.58650  Biso   1.000  C
  C32      1.0000 0.14550  0.42890  0.41350  Biso   1.000  C
  H23      1.0000 0.75180  0.62540  0.64880  Biso   1.000  H
  H24      1.0000 0.24820  0.37460  0.35120  Biso   1.000  H
  Cu1      1.0000 0.37048  0.48830  0.50446  Biso   1.000  Cu
  Cu2      1.0000 0.62952  0.51170  0.49554  Biso   1.000  Cu
  N1       1.0000 0.14470  0.49300  0.50490  Biso   1.000  N
  N2       1.0000 0.85530  0.50700  0.49510  Biso   1.000  N
  O1       1.0000 0.51640  0.29350  0.44360  Biso   1.000  O
  O2       1.0000 0.48360  0.70650  0.55640  Biso   1.000  O
  O3       1.0000 0.73950  0.31500  0.43550  Biso   1.000  O
  O4       1.0000 0.26050  0.68500  0.56450  Biso   1.000  O
  O5       1.0000 0.35220  0.39150  0.69850  Biso   1.000  O
  O6       1.0000 0.64780  0.60850  0.30150  Biso   1.000  O
  O7       1.0000 0.57320  0.41660  0.69200  Biso   1.000  O
  O8       1.0000 0.42680  0.58340  0.30800  Biso   1.000  O
  C33      1.0000 0.12310  0.65450  0.96490  Biso   1.000  C
  C34      1.0000 0.87690  0.34550  0.03510  Biso   1.000  C
  H25      1.0000 0.08500  0.75990  0.96200  Biso   1.000  H
  H26      1.0000 0.91500  0.24010  0.03800  Biso   1.000  H
  H27      1.0000 0.05000  0.61500  0.04600  Biso   1.000  H
  H28      1.0000 0.95000  0.38500  0.95400  Biso   1.000  H
  H29      1.0000 0.23200  0.60700  0.97000  Biso   1.000  H
  H30      1.0000 0.76800  0.39300  0.03000  Biso   1.000  H
  H31      1.0000 0.12500  0.63500  0.88200  Biso   1.000  H
  H32      1.0000 0.87500  0.36500  0.11800  Biso   1.000  H
