data_image0
_cell_length_a       18.55
_cell_length_b       9.7068
_cell_length_c       19.311
_cell_angle_alpha    90
_cell_angle_beta     99.297
_cell_angle_gamma    90

_symmetry_space_group_name_H-M    "P 1"
_symmetry_int_tables_number       1

loop_
  _symmetry_equiv_pos_as_xyz
  'x, y, z'

loop_
  _atom_site_label
  _atom_site_occupancy
  _atom_site_fract_x
  _atom_site_fract_y
  _atom_site_fract_z
  _atom_site_thermal_displace_type
  _atom_site_B_iso_or_equiv
  _atom_site_type_symbol
  C1       1.0000 0.12410  0.73000  0.21130  Biso   1.000  C
  C2       1.0000 0.87590  0.73000  0.28870  Biso   1.000  C
  C3       1.0000 0.62410  0.23000  0.21130  Biso   1.000  C
  C4       1.0000 0.37590  0.23000  0.28870  Biso   1.000  C
  C5       1.0000 0.87590  0.27000  0.78870  Biso   1.000  C
  C6       1.0000 0.12410  0.27000  0.71130  Biso   1.000  C
  C7       1.0000 0.37590  0.77000  0.78870  Biso   1.000  C
  C8       1.0000 0.62410  0.77000  0.71130  Biso   1.000  C
  C9       1.0000 0.19830  0.73210  0.19190  Biso   1.000  C
  C10      1.0000 0.80170  0.73210  0.30810  Biso   1.000  C
  C11      1.0000 0.69830  0.23210  0.19190  Biso   1.000  C
  C12      1.0000 0.30170  0.23210  0.30810  Biso   1.000  C
  C13      1.0000 0.80170  0.26790  0.80810  Biso   1.000  C
  C14      1.0000 0.19830  0.26790  0.69190  Biso   1.000  C
  C15      1.0000 0.30170  0.76790  0.80810  Biso   1.000  C
  C16      1.0000 0.69830  0.76790  0.69190  Biso   1.000  C
  C17      1.0000 0.22770  0.85240  0.17050  Biso   1.000  C
  C18      1.0000 0.77230  0.85240  0.32950  Biso   1.000  C
  C19      1.0000 0.72770  0.35240  0.17050  Biso   1.000  C
  C20      1.0000 0.27230  0.35240  0.32950  Biso   1.000  C
  C21      1.0000 0.77230  0.14760  0.82950  Biso   1.000  C
  C22      1.0000 0.22770  0.14760  0.67050  Biso   1.000  C
  C23      1.0000 0.27230  0.64760  0.82950  Biso   1.000  C
  C24      1.0000 0.72770  0.64760  0.67050  Biso   1.000  C
  H1       1.0000 0.20150  0.93530  0.17030  Biso   1.000  H
  H2       1.0000 0.79850  0.93530  0.32970  Biso   1.000  H
  H3       1.0000 0.70150  0.43530  0.17030  Biso   1.000  H
  H4       1.0000 0.29850  0.43530  0.32970  Biso   1.000  H
  H5       1.0000 0.79850  0.06470  0.82970  Biso   1.000  H
  H6       1.0000 0.20150  0.06470  0.67030  Biso   1.000  H
  H7       1.0000 0.29850  0.56470  0.82970  Biso   1.000  H
  H8       1.0000 0.70150  0.56470  0.67030  Biso   1.000  H
  C25      1.0000 0.29520  0.85240  0.14930  Biso   1.000  C
  C26      1.0000 0.70480  0.85240  0.35070  Biso   1.000  C
  C27      1.0000 0.79520  0.35240  0.14930  Biso   1.000  C
  C28      1.0000 0.20480  0.35240  0.35070  Biso   1.000  C
  C29      1.0000 0.70480  0.14760  0.85070  Biso   1.000  C
  C30      1.0000 0.29520  0.14760  0.64930  Biso   1.000  C
  C31      1.0000 0.20480  0.64760  0.85070  Biso   1.000  C
  C32      1.0000 0.79520  0.64760  0.64930  Biso   1.000  C
  H9       1.0000 0.31460  0.93440  0.13400  Biso   1.000  H
  H10      1.0000 0.68540  0.93440  0.36600  Biso   1.000  H
  H11      1.0000 0.81460  0.43440  0.13400  Biso   1.000  H
  H12      1.0000 0.18540  0.43440  0.36600  Biso   1.000  H
  H13      1.0000 0.68540  0.06560  0.86600  Biso   1.000  H
  H14      1.0000 0.31460  0.06560  0.63400  Biso   1.000  H
  H15      1.0000 0.18540  0.56560  0.86600  Biso   1.000  H
  H16      1.0000 0.81460  0.56560  0.63400  Biso   1.000  H
  C33      1.0000 0.33380  0.73180  0.15070  Biso   1.000  C
  C34      1.0000 0.66620  0.73180  0.34930  Biso   1.000  C
  C35      1.0000 0.83380  0.23180  0.15070  Biso   1.000  C
  C36      1.0000 0.16620  0.23180  0.34930  Biso   1.000  C
  C37      1.0000 0.66620  0.26820  0.84930  Biso   1.000  C
  C38      1.0000 0.33380  0.26820  0.65070  Biso   1.000  C
  C39      1.0000 0.16620  0.76820  0.84930  Biso   1.000  C
  C40      1.0000 0.83380  0.76820  0.65070  Biso   1.000  C
  H17      1.0000 0.37960  0.73130  0.13570  Biso   1.000  H
  H18      1.0000 0.62040  0.73130  0.36430  Biso   1.000  H
  H19      1.0000 0.87960  0.23130  0.13570  Biso   1.000  H
  H20      1.0000 0.12040  0.23130  0.36430  Biso   1.000  H
  H21      1.0000 0.62040  0.26870  0.86430  Biso   1.000  H
  H22      1.0000 0.37960  0.26870  0.63570  Biso   1.000  H
  H23      1.0000 0.12040  0.76870  0.86430  Biso   1.000  H
  H24      1.0000 0.87960  0.76870  0.63570  Biso   1.000  H
  C41      1.0000 0.30650  0.61210  0.17350  Biso   1.000  C
  C42      1.0000 0.69350  0.61210  0.32650  Biso   1.000  C
  C43      1.0000 0.80650  0.11210  0.17350  Biso   1.000  C
  C44      1.0000 0.19350  0.11210  0.32650  Biso   1.000  C
  C45      1.0000 0.69350  0.38790  0.82650  Biso   1.000  C
  C46      1.0000 0.30650  0.38790  0.67350  Biso   1.000  C
  C47      1.0000 0.19350  0.88790  0.82650  Biso   1.000  C
  C48      1.0000 0.80650  0.88790  0.67350  Biso   1.000  C
  H25      1.0000 0.33390  0.53030  0.17530  Biso   1.000  H
  H26      1.0000 0.66610  0.53030  0.32470  Biso   1.000  H
  H27      1.0000 0.83390  0.03030  0.17530  Biso   1.000  H
  H28      1.0000 0.16610  0.03030  0.32470  Biso   1.000  H
  H29      1.0000 0.66610  0.46970  0.82470  Biso   1.000  H
  H30      1.0000 0.33390  0.46970  0.67530  Biso   1.000  H
  H31      1.0000 0.16610  0.96970  0.82470  Biso   1.000  H
  H32      1.0000 0.83390  0.96970  0.67530  Biso   1.000  H
  C49      1.0000 0.23900  0.61240  0.19370  Biso   1.000  C
  C50      1.0000 0.76100  0.61240  0.30630  Biso   1.000  C
  C51      1.0000 0.73900  0.11240  0.19370  Biso   1.000  C
  C52      1.0000 0.26100  0.11240  0.30630  Biso   1.000  C
  C53      1.0000 0.76100  0.38760  0.80630  Biso   1.000  C
  C54      1.0000 0.23900  0.38760  0.69370  Biso   1.000  C
  C55      1.0000 0.26100  0.88760  0.80630  Biso   1.000  C
  C56      1.0000 0.73900  0.88760  0.69370  Biso   1.000  C
  H33      1.0000 0.22020  0.53010  0.20910  Biso   1.000  H
  H34      1.0000 0.77980  0.53010  0.29090  Biso   1.000  H
  H35      1.0000 0.72020  0.03010  0.20910  Biso   1.000  H
  H36      1.0000 0.27980  0.03010  0.29090  Biso   1.000  H
  H37      1.0000 0.77980  0.46990  0.79090  Biso   1.000  H
  H38      1.0000 0.22020  0.46990  0.70910  Biso   1.000  H
  H39      1.0000 0.27980  0.96990  0.79090  Biso   1.000  H
  H40      1.0000 0.72020  0.96990  0.70910  Biso   1.000  H
  C57      1.0000 0.06540  0.72180  0.37580  Biso   1.000  C
  C58      1.0000 0.93460  0.72180  0.12420  Biso   1.000  C
  C59      1.0000 0.56540  0.22180  0.37580  Biso   1.000  C
  C60      1.0000 0.43460  0.22180  0.12420  Biso   1.000  C
  C61      1.0000 0.93460  0.27820  0.62420  Biso   1.000  C
  C62      1.0000 0.06540  0.27820  0.87580  Biso   1.000  C
  C63      1.0000 0.43460  0.77820  0.62420  Biso   1.000  C
  C64      1.0000 0.56540  0.77820  0.87580  Biso   1.000  C
  C65      1.0000 0.10600  0.71850  0.44960  Biso   1.000  C
  C66      1.0000 0.89400  0.71850  0.05040  Biso   1.000  C
  C67      1.0000 0.60600  0.21850  0.44960  Biso   1.000  C
  C68      1.0000 0.39400  0.21850  0.05040  Biso   1.000  C
  C69      1.0000 0.89400  0.28150  0.55040  Biso   1.000  C
  C70      1.0000 0.10600  0.28150  0.94960  Biso   1.000  C
  C71      1.0000 0.39400  0.78150  0.55040  Biso   1.000  C
  C72      1.0000 0.60600  0.78150  0.94960  Biso   1.000  C
  C73      1.0000 0.14130  0.83310  0.47870  Biso   1.000  C
  C74      1.0000 0.85870  0.83310  0.02130  Biso   1.000  C
  C75      1.0000 0.64130  0.33310  0.47870  Biso   1.000  C
  C76      1.0000 0.35870  0.33310  0.02130  Biso   1.000  C
  C77      1.0000 0.85870  0.16690  0.52130  Biso   1.000  C
  C78      1.0000 0.14130  0.16690  0.97870  Biso   1.000  C
  C79      1.0000 0.35870  0.66690  0.52130  Biso   1.000  C
  C80      1.0000 0.64130  0.66690  0.97870  Biso   1.000  C
  H41      1.0000 0.13990  0.91500  0.45250  Biso   1.000  H
  H42      1.0000 0.86010  0.91500  0.04750  Biso   1.000  H
  H43      1.0000 0.63990  0.41500  0.45250  Biso   1.000  H
  H44      1.0000 0.36010  0.41500  0.04750  Biso   1.000  H
  H45      1.0000 0.86010  0.08500  0.54750  Biso   1.000  H
  H46      1.0000 0.13990  0.08500  0.95250  Biso   1.000  H
  H47      1.0000 0.36010  0.58500  0.54750  Biso   1.000  H
  H48      1.0000 0.63990  0.58500  0.95250  Biso   1.000  H
  C81      1.0000 0.17880  0.82900  0.54620  Biso   1.000  C
  C82      1.0000 0.82120  0.82900  0.95380  Biso   1.000  C
  C83      1.0000 0.67880  0.32900  0.54620  Biso   1.000  C
  C84      1.0000 0.32120  0.32900  0.95380  Biso   1.000  C
  C85      1.0000 0.82120  0.17100  0.45380  Biso   1.000  C
  C86      1.0000 0.17880  0.17100  0.04620  Biso   1.000  C
  C87      1.0000 0.32120  0.67100  0.45380  Biso   1.000  C
  C88      1.0000 0.67880  0.67100  0.04620  Biso   1.000  C
  H49      1.0000 0.20350  0.90810  0.56550  Biso   1.000  H
  H50      1.0000 0.79650  0.90810  0.93450  Biso   1.000  H
  H51      1.0000 0.70350  0.40810  0.56550  Biso   1.000  H
  H52      1.0000 0.29650  0.40810  0.93450  Biso   1.000  H
  H53      1.0000 0.79650  0.09190  0.43450  Biso   1.000  H
  H54      1.0000 0.20350  0.09190  0.06550  Biso   1.000  H
  H55      1.0000 0.29650  0.59190  0.43450  Biso   1.000  H
  H56      1.0000 0.70350  0.59190  0.06550  Biso   1.000  H
  C89      1.0000 0.18080  0.71240  0.58520  Biso   1.000  C
  C90      1.0000 0.81920  0.71240  0.91480  Biso   1.000  C
  C91      1.0000 0.68080  0.21240  0.58520  Biso   1.000  C
  C92      1.0000 0.31920  0.21240  0.91480  Biso   1.000  C
  C93      1.0000 0.81920  0.28760  0.41480  Biso   1.000  C
  C94      1.0000 0.18080  0.28760  0.08520  Biso   1.000  C
  C95      1.0000 0.31920  0.78760  0.41480  Biso   1.000  C
  C96      1.0000 0.68080  0.78760  0.08520  Biso   1.000  C
  H57      1.0000 0.20650  0.71000  0.63130  Biso   1.000  H
  H58      1.0000 0.79350  0.71000  0.86870  Biso   1.000  H
  H59      1.0000 0.70650  0.21000  0.63130  Biso   1.000  H
  H60      1.0000 0.29350  0.21000  0.86870  Biso   1.000  H
  H61      1.0000 0.79350  0.29000  0.36870  Biso   1.000  H
  H62      1.0000 0.20650  0.29000  0.13130  Biso   1.000  H
  H63      1.0000 0.29350  0.79000  0.36870  Biso   1.000  H
  H64      1.0000 0.70650  0.79000  0.13130  Biso   1.000  H
  C97      1.0000 0.14470  0.59880  0.55600  Biso   1.000  C
  C98      1.0000 0.85530  0.59880  0.94400  Biso   1.000  C
  C99      1.0000 0.64470  0.09880  0.55600  Biso   1.000  C
  C100     1.0000 0.35530  0.09880  0.94400  Biso   1.000  C
  C101     1.0000 0.85530  0.40120  0.44400  Biso   1.000  C
  C102     1.0000 0.14470  0.40120  0.05600  Biso   1.000  C
  C103     1.0000 0.35530  0.90120  0.44400  Biso   1.000  C
  C104     1.0000 0.64470  0.90120  0.05600  Biso   1.000  C
  H65      1.0000 0.14520  0.51780  0.58280  Biso   1.000  H
  H66      1.0000 0.85480  0.51780  0.91720  Biso   1.000  H
  H67      1.0000 0.64520  0.01780  0.58280  Biso   1.000  H
  H68      1.0000 0.35480  0.01780  0.91720  Biso   1.000  H
  H69      1.0000 0.85480  0.48220  0.41720  Biso   1.000  H
  H70      1.0000 0.14520  0.48220  0.08280  Biso   1.000  H
  H71      1.0000 0.35480  0.98220  0.41720  Biso   1.000  H
  H72      1.0000 0.64520  0.98220  0.08280  Biso   1.000  H
  C105     1.0000 0.10780  0.59970  0.48870  Biso   1.000  C
  C106     1.0000 0.89220  0.59970  0.01130  Biso   1.000  C
  C107     1.0000 0.60780  0.09970  0.48870  Biso   1.000  C
  C108     1.0000 0.39220  0.09970  0.01130  Biso   1.000  C
  C109     1.0000 0.89220  0.40030  0.51130  Biso   1.000  C
  C110     1.0000 0.10780  0.40030  0.98870  Biso   1.000  C
  C111     1.0000 0.39220  0.90030  0.51130  Biso   1.000  C
  C112     1.0000 0.60780  0.90030  0.98870  Biso   1.000  C
  H73      1.0000 0.08390  0.51990  0.46930  Biso   1.000  H
  H74      1.0000 0.91610  0.51990  0.03070  Biso   1.000  H
  H75      1.0000 0.58390  0.01990  0.46930  Biso   1.000  H
  H76      1.0000 0.41610  0.01990  0.03070  Biso   1.000  H
  H77      1.0000 0.91610  0.48010  0.53070  Biso   1.000  H
  H78      1.0000 0.08390  0.48010  0.96930  Biso   1.000  H
  H79      1.0000 0.41610  0.98010  0.53070  Biso   1.000  H
  H80      1.0000 0.58390  0.98010  0.96930  Biso   1.000  H
  C113     1.0000 0.03060  0.15480  0.20380  Biso   1.000  C
  C114     1.0000 0.96940  0.15480  0.29620  Biso   1.000  C
  C115     1.0000 0.53060  0.65480  0.20380  Biso   1.000  C
  C116     1.0000 0.46940  0.65480  0.29620  Biso   1.000  C
  C117     1.0000 0.96940  0.84520  0.79620  Biso   1.000  C
  C118     1.0000 0.03060  0.84520  0.70380  Biso   1.000  C
  C119     1.0000 0.46940  0.34520  0.79620  Biso   1.000  C
  C120     1.0000 0.53060  0.34520  0.70380  Biso   1.000  C
  H81      1.0000 0.05280  0.10700  0.17050  Biso   1.000  H
  H82      1.0000 0.94720  0.10700  0.32950  Biso   1.000  H
  H83      1.0000 0.55280  0.60700  0.17050  Biso   1.000  H
  H84      1.0000 0.44720  0.60700  0.32950  Biso   1.000  H
  H85      1.0000 0.94720  0.89300  0.82950  Biso   1.000  H
  H86      1.0000 0.05280  0.89300  0.67050  Biso   1.000  H
  H87      1.0000 0.44720  0.39300  0.82950  Biso   1.000  H
  H88      1.0000 0.55280  0.39300  0.67050  Biso   1.000  H
  C121     1.0000 0.03070  0.29840  0.20350  Biso   1.000  C
  C122     1.0000 0.96930  0.29840  0.29650  Biso   1.000  C
  C123     1.0000 0.53070  0.79840  0.20350  Biso   1.000  C
  C124     1.0000 0.46930  0.79840  0.29650  Biso   1.000  C
  C125     1.0000 0.96930  0.70160  0.79650  Biso   1.000  C
  C126     1.0000 0.03070  0.70160  0.70350  Biso   1.000  C
  C127     1.0000 0.46930  0.20160  0.79650  Biso   1.000  C
  C128     1.0000 0.53070  0.20160  0.70350  Biso   1.000  C
  H89      1.0000 0.05270  0.34600  0.17000  Biso   1.000  H
  H90      1.0000 0.94730  0.34600  0.33000  Biso   1.000  H
  H91      1.0000 0.55270  0.84600  0.17000  Biso   1.000  H
  H92      1.0000 0.44730  0.84600  0.33000  Biso   1.000  H
  H93      1.0000 0.94730  0.65400  0.83000  Biso   1.000  H
  H94      1.0000 0.05270  0.65400  0.67000  Biso   1.000  H
  H95      1.0000 0.44730  0.15400  0.83000  Biso   1.000  H
  H96      1.0000 0.55270  0.15400  0.67000  Biso   1.000  H
  Cu1      1.0000 0.00000  0.85929  0.25000  Biso   1.000  Cu
  Cu2      1.0000 0.50000  0.35929  0.25000  Biso   1.000  Cu
  Cu3      1.0000 0.00000  0.14071  0.75000  Biso   1.000  Cu
  Cu4      1.0000 0.50000  0.64071  0.75000  Biso   1.000  Cu
  Cu5      1.0000 0.00000  0.59281  0.25000  Biso   1.000  Cu
  Cu6      1.0000 0.50000  0.09281  0.25000  Biso   1.000  Cu
  Cu7      1.0000 0.00000  0.40719  0.75000  Biso   1.000  Cu
  Cu8      1.0000 0.50000  0.90719  0.75000  Biso   1.000  Cu
  N1       1.0000 0.00000  0.08420  0.25000  Biso   1.000  N
  N2       1.0000 0.50000  0.58420  0.25000  Biso   1.000  N
  N3       1.0000 0.00000  0.91580  0.75000  Biso   1.000  N
  N4       1.0000 0.50000  0.41580  0.75000  Biso   1.000  N
  N5       1.0000 0.00000  0.36870  0.25000  Biso   1.000  N
  N6       1.0000 0.50000  0.86870  0.25000  Biso   1.000  N
  N7       1.0000 0.00000  0.63130  0.75000  Biso   1.000  N
  N8       1.0000 0.50000  0.13130  0.75000  Biso   1.000  N
  O1       1.0000 0.09171  0.84450  0.21308  Biso   1.000  O
  O2       1.0000 0.90829  0.84450  0.28692  Biso   1.000  O
  O3       1.0000 0.59171  0.34450  0.21308  Biso   1.000  O
  O4       1.0000 0.40829  0.34450  0.28692  Biso   1.000  O
  O5       1.0000 0.90829  0.15550  0.78692  Biso   1.000  O
  O6       1.0000 0.09171  0.15550  0.71308  Biso   1.000  O
  O7       1.0000 0.40829  0.65550  0.78692  Biso   1.000  O
  O8       1.0000 0.59171  0.65550  0.71308  Biso   1.000  O
  O9       1.0000 0.09808  0.61570  0.22542  Biso   1.000  O
  O10      1.0000 0.90192  0.61570  0.27458  Biso   1.000  O
  O11      1.0000 0.59808  0.11570  0.22542  Biso   1.000  O
  O12      1.0000 0.40192  0.11570  0.27458  Biso   1.000  O
  O13      1.0000 0.90192  0.38430  0.77458  Biso   1.000  O
  O14      1.0000 0.09808  0.38430  0.72542  Biso   1.000  O
  O15      1.0000 0.40192  0.88430  0.77458  Biso   1.000  O
  O16      1.0000 0.59808  0.88430  0.72542  Biso   1.000  O
  O17      1.0000 0.05595  0.83690  0.34539  Biso   1.000  O
  O18      1.0000 0.94405  0.83690  0.15461  Biso   1.000  O
  O19      1.0000 0.55595  0.33690  0.34539  Biso   1.000  O
  O20      1.0000 0.44405  0.33690  0.15461  Biso   1.000  O
  O21      1.0000 0.94405  0.16310  0.65461  Biso   1.000  O
  O22      1.0000 0.05595  0.16310  0.84539  Biso   1.000  O
  O23      1.0000 0.44405  0.66310  0.65461  Biso   1.000  O
  O24      1.0000 0.55595  0.66310  0.84539  Biso   1.000  O
  O25      1.0000 0.04215  0.60810  0.34846  Biso   1.000  O
  O26      1.0000 0.95785  0.60810  0.15154  Biso   1.000  O
  O27      1.0000 0.54215  0.10810  0.34846  Biso   1.000  O
  O28      1.0000 0.45785  0.10810  0.15154  Biso   1.000  O
  O29      1.0000 0.95785  0.39190  0.65154  Biso   1.000  O
  O30      1.0000 0.04215  0.39190  0.84846  Biso   1.000  O
  O31      1.0000 0.45785  0.89190  0.65154  Biso   1.000  O
  O32      1.0000 0.54215  0.89190  0.84846  Biso   1.000  O
  C129     1.0000 0.07290  0.80810  0.01320  Biso   1.000  C
  C130     1.0000 0.92710  0.80810  0.48680  Biso   1.000  C
  C131     1.0000 0.57290  0.30810  0.01320  Biso   1.000  C
  C132     1.0000 0.42710  0.30810  0.48680  Biso   1.000  C
  C133     1.0000 0.92710  0.19190  0.98680  Biso   1.000  C
  C134     1.0000 0.07290  0.19190  0.51320  Biso   1.000  C
  C135     1.0000 0.42710  0.69190  0.98680  Biso   1.000  C
  C136     1.0000 0.57290  0.69190  0.51320  Biso   1.000  C
  H97      1.0000 0.05000  0.71900  0.01400  Biso   1.000  H
  H98      1.0000 0.95000  0.71900  0.48600  Biso   1.000  H
  H99      1.0000 0.55000  0.21900  0.01400  Biso   1.000  H
  H100     1.0000 0.45000  0.21900  0.48600  Biso   1.000  H
  H101     1.0000 0.95000  0.28100  0.98600  Biso   1.000  H
  H102     1.0000 0.05000  0.28100  0.51400  Biso   1.000  H
  H103     1.0000 0.45000  0.78100  0.98600  Biso   1.000  H
  H104     1.0000 0.55000  0.78100  0.51400  Biso   1.000  H
  H105     1.0000 0.06300  0.86100  0.05260  Biso   1.000  H
  H106     1.0000 0.93700  0.86100  0.44740  Biso   1.000  H
  H107     1.0000 0.56300  0.36100  0.05260  Biso   1.000  H
  H108     1.0000 0.43700  0.36100  0.44740  Biso   1.000  H
  H109     1.0000 0.93700  0.13900  0.94740  Biso   1.000  H
  H110     1.0000 0.06300  0.13900  0.55260  Biso   1.000  H
  H111     1.0000 0.43700  0.63900  0.94740  Biso   1.000  H
  H112     1.0000 0.56300  0.63900  0.55260  Biso   1.000  H
  H113     1.0000 0.05300  0.85500  0.97050  Biso   1.000  H
  H114     1.0000 0.94700  0.85500  0.52950  Biso   1.000  H
  H115     1.0000 0.55300  0.35500  0.97050  Biso   1.000  H
  H116     1.0000 0.44700  0.35500  0.52950  Biso   1.000  H
  H117     1.0000 0.94700  0.14500  0.02950  Biso   1.000  H
  H118     1.0000 0.05300  0.14500  0.47050  Biso   1.000  H
  H119     1.0000 0.44700  0.64500  0.02950  Biso   1.000  H
  H120     1.0000 0.55300  0.64500  0.47050  Biso   1.000  H
  H121     1.0000 0.12470  0.79700  0.01600  Biso   1.000  H
  H122     1.0000 0.87530  0.79700  0.48400  Biso   1.000  H
  H123     1.0000 0.62470  0.29700  0.01600  Biso   1.000  H
  H124     1.0000 0.37530  0.29700  0.48400  Biso   1.000  H
  H125     1.0000 0.87530  0.20300  0.98400  Biso   1.000  H
  H126     1.0000 0.12470  0.20300  0.51600  Biso   1.000  H
  H127     1.0000 0.37530  0.70300  0.98400  Biso   1.000  H
  H128     1.0000 0.62470  0.70300  0.51600  Biso   1.000  H
