data_image0
_cell_length_a       9.696
_cell_length_b       10.228
_cell_length_c       10.701
_cell_angle_alpha    71.406
_cell_angle_beta     64.57
_cell_angle_gamma    62.944

_symmetry_space_group_name_H-M    "P 1"
_symmetry_int_tables_number       1

loop_
  _symmetry_equiv_pos_as_xyz
  'x, y, z'

loop_
  _atom_site_label
  _atom_site_occupancy
  _atom_site_fract_x
  _atom_site_fract_y
  _atom_site_fract_z
  _atom_site_thermal_displace_type
  _atom_site_B_iso_or_equiv
  _atom_site_type_symbol
  C1       1.0000 0.54410  0.62840  0.24910  Biso   1.000  C
  C2       1.0000 0.45590  0.37160  0.75090  Biso   1.000  C
  C3       1.0000 0.56350  0.70950  0.10260  Biso   1.000  C
  C4       1.0000 0.43650  0.29050  0.89740  Biso   1.000  C
  C5       1.0000 0.47480  0.71150  0.02930  Biso   1.000  C
  C6       1.0000 0.52520  0.28850  0.97070  Biso   1.000  C
  H1       1.0000 0.39960  0.66170  0.07290  Biso   1.000  H
  H2       1.0000 0.60040  0.33830  0.92710  Biso   1.000  H
  C7       1.0000 0.49380  0.78390  0.89510  Biso   1.000  C
  C8       1.0000 0.50620  0.21610  0.10490  Biso   1.000  C
  H3       1.0000 0.43370  0.78230  0.84540  Biso   1.000  H
  H4       1.0000 0.56630  0.21770  0.15460  Biso   1.000  H
  C9       1.0000 0.60160  0.86050  0.83020  Biso   1.000  C
  C10      1.0000 0.39840  0.13950  0.16980  Biso   1.000  C
  H5       1.0000 0.61240  0.91400  0.73800  Biso   1.000  H
  H6       1.0000 0.38760  0.08600  0.26200  Biso   1.000  H
  C11      1.0000 0.69020  0.85680  0.90190  Biso   1.000  C
  C12      1.0000 0.30980  0.14320  0.09810  Biso   1.000  C
  H7       1.0000 0.76590  0.90610  0.85840  Biso   1.000  H
  H8       1.0000 0.23410  0.09390  0.14160  Biso   1.000  H
  C13      1.0000 0.67200  0.78360  0.03480  Biso   1.000  C
  C14      1.0000 0.32800  0.21640  0.96520  Biso   1.000  C
  H9       1.0000 0.73530  0.78290  0.08270  Biso   1.000  H
  H10      1.0000 0.26470  0.21710  0.91730  Biso   1.000  H
  C15      1.0000 0.33380  0.75250  0.57650  Biso   1.000  C
  C16      1.0000 0.66620  0.24750  0.42350  Biso   1.000  C
  C17      1.0000 0.22830  0.90440  0.61880  Biso   1.000  C
  C18      1.0000 0.77170  0.09560  0.38120  Biso   1.000  C
  C19      1.0000 0.05950  0.96240  0.64500  Biso   1.000  C
  C20      1.0000 0.94050  0.03760  0.35500  Biso   1.000  C
  H11      1.0000 0.01050  0.90660  0.63390  Biso   1.000  H
  H12      1.0000 0.98950  0.09340  0.36610  Biso   1.000  H
  C21      1.0000 0.96270  0.10010  0.68680  Biso   1.000  C
  C22      1.0000 0.03730  0.89990  0.31320  Biso   1.000  C
  H13      1.0000 0.84790  0.14010  0.70280  Biso   1.000  H
  H14      1.0000 0.15210  0.85990  0.29720  Biso   1.000  H
  C23      1.0000 0.03350  0.17840  0.70500  Biso   1.000  C
  C24      1.0000 0.96650  0.82160  0.29500  Biso   1.000  C
  H15      1.0000 0.96650  0.27190  0.73630  Biso   1.000  H
  H16      1.0000 0.03350  0.72810  0.26370  Biso   1.000  H
  C25      1.0000 0.20150  0.12370  0.67840  Biso   1.000  C
  C26      1.0000 0.79850  0.87630  0.32160  Biso   1.000  C
  H17      1.0000 0.24930  0.17980  0.69080  Biso   1.000  H
  H18      1.0000 0.75070  0.82020  0.30920  Biso   1.000  H
  C27      1.0000 0.29820  0.98800  0.63430  Biso   1.000  C
  C28      1.0000 0.70180  0.01200  0.36570  Biso   1.000  C
  H19      1.0000 0.41370  0.95090  0.61420  Biso   1.000  H
  H20      1.0000 0.58630  0.04910  0.38580  Biso   1.000  H
  C29      1.0000 0.14610  0.42870  0.41300  Biso   1.000  C
  C30      1.0000 0.85390  0.57130  0.58700  Biso   1.000  C
  H21      1.0000 0.24870  0.37460  0.35100  Biso   1.000  H
  H22      1.0000 0.75130  0.62540  0.64900  Biso   1.000  H
  C31      1.0000 0.00210  0.43900  0.40660  Biso   1.000  C
  C32      1.0000 0.99790  0.56100  0.59340  Biso   1.000  C
  H23      1.0000 0.00830  0.39620  0.33660  Biso   1.000  H
  H24      1.0000 0.99170  0.60380  0.66340  Biso   1.000  H
  Cu1      1.0000 0.37060  0.48842  0.50442  Biso   1.000  Cu
  Cu2      1.0000 0.62940  0.51158  0.49558  Biso   1.000  Cu
  N1       1.0000 0.14360  0.49390  0.50580  Biso   1.000  N
  N2       1.0000 0.85640  0.50610  0.49420  Biso   1.000  N
  O1       1.0000 0.42670  0.58300  0.30880  Biso   1.000  O
  O2       1.0000 0.57330  0.41700  0.69120  Biso   1.000  O
  O3       1.0000 0.64690  0.60940  0.30170  Biso   1.000  O
  O4       1.0000 0.35310  0.39060  0.69830  Biso   1.000  O
  O5       1.0000 0.26020  0.68530  0.56520  Biso   1.000  O
  O6       1.0000 0.73980  0.31470  0.43480  Biso   1.000  O
  O7       1.0000 0.48400  0.70550  0.55660  Biso   1.000  O
  O8       1.0000 0.51600  0.29450  0.44340  Biso   1.000  O
  C33      1.0000 0.87440  0.34790  0.03430  Biso   1.000  C
  C34      1.0000 0.12560  0.65210  0.96570  Biso   1.000  C
  H25      1.0000 0.92300  0.39700  0.94400  Biso   1.000  H
  H26      1.0000 0.07700  0.60300  0.05600  Biso   1.000  H
  H27      1.0000 0.93300  0.24250  0.03800  Biso   1.000  H
  H28      1.0000 0.06700  0.75750  0.96200  Biso   1.000  H
  H29      1.0000 0.76100  0.37200  0.04800  Biso   1.000  H
  H30      1.0000 0.23900  0.62800  0.95200  Biso   1.000  H
  H31      1.0000 0.88100  0.38000  0.10600  Biso   1.000  H
  H32      1.0000 0.11900  0.62000  0.89400  Biso   1.000  H
