data_image0
_cell_length_a       6.499
_cell_length_b       21.722
_cell_length_c       12.674
_cell_angle_alpha    90
_cell_angle_beta     98.758
_cell_angle_gamma    90

_symmetry_space_group_name_H-M    "P 1"
_symmetry_int_tables_number       1

loop_
  _symmetry_equiv_pos_as_xyz
  'x, y, z'

loop_
  _atom_site_label
  _atom_site_occupancy
  _atom_site_fract_x
  _atom_site_fract_y
  _atom_site_fract_z
  _atom_site_thermal_displace_type
  _atom_site_B_iso_or_equiv
  _atom_site_type_symbol
  C1       1.0000 0.34240  0.56907  0.63610  Biso   1.000  C
  C2       1.0000 0.65760  0.06907  0.86390  Biso   1.000  C
  C3       1.0000 0.65760  0.43093  0.36390  Biso   1.000  C
  C4       1.0000 0.34240  0.93093  0.13610  Biso   1.000  C
  C5       1.0000 0.46040  0.51345  0.81280  Biso   1.000  C
  C6       1.0000 0.53960  0.01345  0.68720  Biso   1.000  C
  C7       1.0000 0.53960  0.48655  0.18720  Biso   1.000  C
  C8       1.0000 0.46040  0.98655  0.31280  Biso   1.000  C
  C9       1.0000 0.74250  0.53632  0.67080  Biso   1.000  C
  C10      1.0000 0.25750  0.03632  0.82920  Biso   1.000  C
  C11      1.0000 0.25750  0.46368  0.32920  Biso   1.000  C
  C12      1.0000 0.74250  0.96368  0.17080  Biso   1.000  C
  C13      1.0000 0.66450  0.66077  0.68610  Biso   1.000  C
  C14      1.0000 0.33550  0.16077  0.81390  Biso   1.000  C
  C15      1.0000 0.33550  0.33923  0.31390  Biso   1.000  C
  C16      1.0000 0.66450  0.83923  0.18610  Biso   1.000  C
  C17      1.0000 0.22630  0.66974  0.79480  Biso   1.000  C
  C18      1.0000 0.77370  0.16974  0.70520  Biso   1.000  C
  C19      1.0000 0.77370  0.33026  0.20520  Biso   1.000  C
  C20      1.0000 0.22630  0.83026  0.29480  Biso   1.000  C
  H1       1.0000 0.15170  0.65560  0.73100  Biso   1.000  H
  H2       1.0000 0.84830  0.15560  0.76900  Biso   1.000  H
  H3       1.0000 0.84830  0.34440  0.26900  Biso   1.000  H
  H4       1.0000 0.15170  0.84440  0.23100  Biso   1.000  H
  C21      1.0000 0.14300  0.71508  0.84380  Biso   1.000  C
  C22      1.0000 0.85700  0.21508  0.65620  Biso   1.000  C
  C23      1.0000 0.85700  0.28492  0.15620  Biso   1.000  C
  C24      1.0000 0.14300  0.78492  0.34380  Biso   1.000  C
  H5       1.0000 0.01430  0.73120  0.81450  Biso   1.000  H
  H6       1.0000 0.98570  0.23120  0.68550  Biso   1.000  H
  H7       1.0000 0.98570  0.26880  0.18550  Biso   1.000  H
  H8       1.0000 0.01430  0.76880  0.31450  Biso   1.000  H
  C25      1.0000 0.24440  0.73791  0.93590  Biso   1.000  C
  C26      1.0000 0.75560  0.23791  0.56410  Biso   1.000  C
  C27      1.0000 0.75560  0.26209  0.06410  Biso   1.000  C
  C28      1.0000 0.24440  0.76209  0.43590  Biso   1.000  C
  C29      1.0000 0.43580  0.71353  0.97330  Biso   1.000  C
  C30      1.0000 0.56420  0.21353  0.52670  Biso   1.000  C
  C31      1.0000 0.56420  0.28647  0.02670  Biso   1.000  C
  C32      1.0000 0.43580  0.78647  0.47330  Biso   1.000  C
  H9       1.0000 0.51030  0.72880  0.03630  Biso   1.000  H
  H10      1.0000 0.48970  0.22880  0.46370  Biso   1.000  H
  H11      1.0000 0.48970  0.27120  0.96370  Biso   1.000  H
  H12      1.0000 0.51030  0.77120  0.53630  Biso   1.000  H
  C33      1.0000 0.52100  0.66708  0.92010  Biso   1.000  C
  C34      1.0000 0.47900  0.16708  0.57990  Biso   1.000  C
  C35      1.0000 0.47900  0.33292  0.07990  Biso   1.000  C
  C36      1.0000 0.52100  0.83292  0.42010  Biso   1.000  C
  C37      1.0000 0.72220  0.63777  0.95330  Biso   1.000  C
  C38      1.0000 0.27780  0.13777  0.54670  Biso   1.000  C
  C39      1.0000 0.27780  0.36223  0.04670  Biso   1.000  C
  C40      1.0000 0.72220  0.86223  0.45330  Biso   1.000  C
  C41      1.0000 0.85060  0.65049  0.04690  Biso   1.000  C
  C42      1.0000 0.14940  0.15049  0.45310  Biso   1.000  C
  C43      1.0000 0.14940  0.34951  0.95310  Biso   1.000  C
  C44      1.0000 0.85060  0.84951  0.54690  Biso   1.000  C
  H13      1.0000 0.81210  0.67970  0.09380  Biso   1.000  H
  H14      1.0000 0.18790  0.17970  0.40620  Biso   1.000  H
  H15      1.0000 0.18790  0.32030  0.90620  Biso   1.000  H
  H16      1.0000 0.81210  0.82030  0.59380  Biso   1.000  H
  C45      1.0000 0.03750  0.61960  0.07100  Biso   1.000  C
  C46      1.0000 0.96250  0.11960  0.42900  Biso   1.000  C
  C47      1.0000 0.96250  0.38040  0.92900  Biso   1.000  C
  C48      1.0000 0.03750  0.88040  0.57100  Biso   1.000  C
  C49      1.0000 0.08970  0.57873  0.99910  Biso   1.000  C
  C50      1.0000 0.91030  0.07873  0.50090  Biso   1.000  C
  C51      1.0000 0.91030  0.42127  0.00090  Biso   1.000  C
  C52      1.0000 0.08970  0.92127  0.49910  Biso   1.000  C
  H17      1.0000 0.21700  0.55840  0.01200  Biso   1.000  H
  H18      1.0000 0.78300  0.05840  0.48800  Biso   1.000  H
  H19      1.0000 0.78300  0.44160  0.98800  Biso   1.000  H
  H20      1.0000 0.21700  0.94160  0.51200  Biso   1.000  H
  C53      1.0000 0.95340  0.56712  0.90610  Biso   1.000  C
  C54      1.0000 0.04660  0.06712  0.59390  Biso   1.000  C
  C55      1.0000 0.04660  0.43288  0.09390  Biso   1.000  C
  C56      1.0000 0.95340  0.93288  0.40610  Biso   1.000  C
  H21      1.0000 0.98870  0.53740  0.85930  Biso   1.000  H
  H22      1.0000 0.01130  0.03740  0.64070  Biso   1.000  H
  H23      1.0000 0.01130  0.46260  0.14070  Biso   1.000  H
  H24      1.0000 0.98870  0.96260  0.35930  Biso   1.000  H
  C57      1.0000 0.16290  0.79155  0.99110  Biso   1.000  C
  C58      1.0000 0.83710  0.29155  0.50890  Biso   1.000  C
  C59      1.0000 0.83710  0.20845  0.00890  Biso   1.000  C
  C60      1.0000 0.16290  0.70845  0.49110  Biso   1.000  C
  H25      1.0000 0.07260  0.81570  0.94000  Biso   1.000  H
  H26      1.0000 0.92740  0.31570  0.56000  Biso   1.000  H
  H27      1.0000 0.92740  0.18430  0.06000  Biso   1.000  H
  H28      1.0000 0.07260  0.68430  0.44000  Biso   1.000  H
  H29      1.0000 0.27720  0.81650  0.02340  Biso   1.000  H
  H30      1.0000 0.72280  0.31650  0.47660  Biso   1.000  H
  H31      1.0000 0.72280  0.18350  0.97660  Biso   1.000  H
  H32      1.0000 0.27720  0.68350  0.52340  Biso   1.000  H
  H33      1.0000 0.08650  0.77690  0.04520  Biso   1.000  H
  H34      1.0000 0.91350  0.27690  0.45480  Biso   1.000  H
  H35      1.0000 0.91350  0.22310  0.95480  Biso   1.000  H
  H36      1.0000 0.08650  0.72310  0.54520  Biso   1.000  H
  C61      1.0000 0.17360  0.63028  0.17170  Biso   1.000  C
  C62      1.0000 0.82640  0.13028  0.32830  Biso   1.000  C
  C63      1.0000 0.82640  0.36972  0.82830  Biso   1.000  C
  C64      1.0000 0.17360  0.86972  0.67170  Biso   1.000  C
  H37      1.0000 0.09300  0.62950  0.22920  Biso   1.000  H
  H38      1.0000 0.90700  0.12950  0.27080  Biso   1.000  H
  H39      1.0000 0.90700  0.37050  0.77080  Biso   1.000  H
  H40      1.0000 0.09300  0.87050  0.72920  Biso   1.000  H
  H41      1.0000 0.23960  0.66970  0.16980  Biso   1.000  H
  H42      1.0000 0.76040  0.16970  0.33020  Biso   1.000  H
  H43      1.0000 0.76040  0.33030  0.83020  Biso   1.000  H
  H44      1.0000 0.23960  0.83030  0.66980  Biso   1.000  H
  H45      1.0000 0.27800  0.59870  0.18260  Biso   1.000  H
  H46      1.0000 0.72200  0.09870  0.31740  Biso   1.000  H
  H47      1.0000 0.72200  0.40130  0.81740  Biso   1.000  H
  H48      1.0000 0.27800  0.90130  0.68260  Biso   1.000  H
  C65      1.0000 0.35690  0.38279  0.60940  Biso   1.000  C
  C66      1.0000 0.64310  0.88279  0.89060  Biso   1.000  C
  C67      1.0000 0.64310  0.61721  0.39060  Biso   1.000  C
  C68      1.0000 0.35690  0.11721  0.10940  Biso   1.000  C
  H49      1.0000 0.45950  0.41120  0.59170  Biso   1.000  H
  H50      1.0000 0.54050  0.91120  0.90830  Biso   1.000  H
  H51      1.0000 0.54050  0.58880  0.40830  Biso   1.000  H
  H52      1.0000 0.45950  0.08880  0.09170  Biso   1.000  H
  H53      1.0000 0.32490  0.35340  0.55280  Biso   1.000  H
  H54      1.0000 0.67510  0.85340  0.94720  Biso   1.000  H
  H55      1.0000 0.67510  0.64660  0.44720  Biso   1.000  H
  H56      1.0000 0.32490  0.14660  0.05280  Biso   1.000  H
  H57      1.0000 0.41040  0.36170  0.67440  Biso   1.000  H
  H58      1.0000 0.58960  0.86170  0.82560  Biso   1.000  H
  H59      1.0000 0.58960  0.63830  0.32560  Biso   1.000  H
  H60      1.0000 0.41040  0.13830  0.17440  Biso   1.000  H
  Cu1      1.0000 0.00000  0.50000  0.50000  Biso   1.000  Cu
  Cu2      1.0000 0.00000  0.00000  0.00000  Biso   1.000  Cu
  Fe1      1.0000 0.56822  0.58516  0.75285  Biso   1.000  Fe
  Fe2      1.0000 0.43178  0.08516  0.74715  Biso   1.000  Fe
  Fe3      1.0000 0.43178  0.41484  0.24715  Biso   1.000  Fe
  Fe4      1.0000 0.56822  0.91484  0.25285  Biso   1.000  Fe
  N1       1.0000 0.21770  0.55377  0.56980  Biso   1.000  N
  N2       1.0000 0.78230  0.05377  0.93020  Biso   1.000  N
  N3       1.0000 0.78230  0.44623  0.43020  Biso   1.000  N
  N4       1.0000 0.21770  0.94623  0.06980  Biso   1.000  N
  N5       1.0000 0.38630  0.47385  0.84980  Biso   1.000  N
  N6       1.0000 0.61370  0.97385  0.65020  Biso   1.000  N
  N7       1.0000 0.61370  0.52615  0.15020  Biso   1.000  N
  N8       1.0000 0.38630  0.02615  0.34980  Biso   1.000  N
  N9       1.0000 0.83140  0.51563  0.61840  Biso   1.000  N
  N10      1.0000 0.16860  0.01563  0.88160  Biso   1.000  N
  N11      1.0000 0.16860  0.48437  0.38160  Biso   1.000  N
  N12      1.0000 0.83140  0.98437  0.11840  Biso   1.000  N
  N13      1.0000 0.72980  0.70177  0.65320  Biso   1.000  N
  N14      1.0000 0.27020  0.20177  0.84680  Biso   1.000  N
  N15      1.0000 0.27020  0.29823  0.34680  Biso   1.000  N
  N16      1.0000 0.72980  0.79823  0.15320  Biso   1.000  N
  N17      1.0000 0.40430  0.64315  0.82840  Biso   1.000  N
  N18      1.0000 0.59570  0.14315  0.67160  Biso   1.000  N
  N19      1.0000 0.59570  0.35685  0.17160  Biso   1.000  N
  N20      1.0000 0.40430  0.85685  0.32840  Biso   1.000  N
  N21      1.0000 0.77580  0.59663  0.88170  Biso   1.000  N
  N22      1.0000 0.22420  0.09663  0.61830  Biso   1.000  N
  N23      1.0000 0.22420  0.40337  0.11830  Biso   1.000  N
  N24      1.0000 0.77580  0.90337  0.38170  Biso   1.000  N
  O1       1.0000 0.17820  0.41454  0.62275  Biso   1.000  O
  O2       1.0000 0.82180  0.91454  0.87725  Biso   1.000  O
  O3       1.0000 0.82180  0.58546  0.37725  Biso   1.000  O
  O4       1.0000 0.17820  0.08546  0.12275  Biso   1.000  O
  H61      1.0000 0.21790  0.45330  0.65620  Biso   1.000  H
  H62      1.0000 0.78210  0.95330  0.84380  Biso   1.000  H
  H63      1.0000 0.78210  0.54670  0.34380  Biso   1.000  H
  H64      1.0000 0.21790  0.04670  0.15620  Biso   1.000  H
