data_image0
_cell_length_a       12.305
_cell_length_b       9.7196
_cell_length_c       19.4917
_cell_angle_alpha    90
_cell_angle_beta     105.126
_cell_angle_gamma    90

_symmetry_space_group_name_H-M    "P 1"
_symmetry_int_tables_number       1

loop_
  _symmetry_equiv_pos_as_xyz
  'x, y, z'

loop_
  _atom_site_label
  _atom_site_occupancy
  _atom_site_fract_x
  _atom_site_fract_y
  _atom_site_fract_z
  _atom_site_thermal_displace_type
  _atom_site_B_iso_or_equiv
  _atom_site_type_symbol
  C1       1.0000 0.88014  0.82980  0.20846  Biso   1.000  C
  C2       1.0000 0.11986  0.32980  0.29154  Biso   1.000  C
  C3       1.0000 0.11986  0.17020  0.79154  Biso   1.000  C
  C4       1.0000 0.88014  0.67020  0.70846  Biso   1.000  C
  H1       1.0000 0.87930  0.77100  0.24600  Biso   1.000  H
  H2       1.0000 0.12070  0.27100  0.25400  Biso   1.000  H
  H3       1.0000 0.12070  0.22900  0.75400  Biso   1.000  H
  H4       1.0000 0.87930  0.72900  0.74600  Biso   1.000  H
  C5       1.0000 0.96785  0.92110  0.21325  Biso   1.000  C
  C6       1.0000 0.03215  0.42110  0.28675  Biso   1.000  C
  C7       1.0000 0.03215  0.07890  0.78675  Biso   1.000  C
  C8       1.0000 0.96785  0.57890  0.71325  Biso   1.000  C
  H5       1.0000 0.02480  0.92230  0.25540  Biso   1.000  H
  H6       1.0000 0.97520  0.42230  0.24460  Biso   1.000  H
  H7       1.0000 0.97520  0.07770  0.74460  Biso   1.000  H
  H8       1.0000 0.02480  0.57770  0.75540  Biso   1.000  H
  C9       1.0000 0.89347  0.00270  0.10279  Biso   1.000  C
  C10      1.0000 0.10653  0.50270  0.39721  Biso   1.000  C
  C11      1.0000 0.10653  0.99730  0.89721  Biso   1.000  C
  C12      1.0000 0.89347  0.49730  0.60279  Biso   1.000  C
  H9       1.0000 0.89760  0.06080  0.06570  Biso   1.000  H
  H10      1.0000 0.10240  0.56080  0.43430  Biso   1.000  H
  H11      1.0000 0.10240  0.93920  0.93430  Biso   1.000  H
  H12      1.0000 0.89760  0.43920  0.56570  Biso   1.000  H
  C13      1.0000 0.80115  0.91700  0.09281  Biso   1.000  C
  C14      1.0000 0.19885  0.41700  0.40719  Biso   1.000  C
  C15      1.0000 0.19885  0.08300  0.90719  Biso   1.000  C
  C16      1.0000 0.80115  0.58300  0.59281  Biso   1.000  C
  H13      1.0000 0.74480  0.91930  0.05040  Biso   1.000  H
  H14      1.0000 0.25520  0.41930  0.44960  Biso   1.000  H
  H15      1.0000 0.25520  0.08070  0.94960  Biso   1.000  H
  H16      1.0000 0.74480  0.58070  0.55040  Biso   1.000  H
  C17      1.0000 0.79326  0.82750  0.14657  Biso   1.000  C
  C18      1.0000 0.20674  0.32750  0.35343  Biso   1.000  C
  C19      1.0000 0.20674  0.17250  0.85343  Biso   1.000  C
  C20      1.0000 0.79326  0.67250  0.64657  Biso   1.000  C
  C21      1.0000 0.69280  0.73590  0.13650  Biso   1.000  C
  C22      1.0000 0.30720  0.23590  0.36350  Biso   1.000  C
  C23      1.0000 0.30720  0.26410  0.86350  Biso   1.000  C
  C24      1.0000 0.69280  0.76410  0.63650  Biso   1.000  C
  C25      1.0000 0.56783  0.48566  0.21194  Biso   1.000  C
  C26      1.0000 0.43217  0.98566  0.28806  Biso   1.000  C
  C27      1.0000 0.43217  0.51434  0.78806  Biso   1.000  C
  C28      1.0000 0.56783  0.01434  0.71194  Biso   1.000  C
  H17      1.0000 0.49930  0.44130  0.19430  Biso   1.000  H
  H18      1.0000 0.50070  0.94130  0.30570  Biso   1.000  H
  H19      1.0000 0.50070  0.55870  0.80570  Biso   1.000  H
  H20      1.0000 0.49930  0.05870  0.69430  Biso   1.000  H
  C29      1.0000 0.62965  0.44086  0.28275  Biso   1.000  C
  C30      1.0000 0.37035  0.94086  0.21725  Biso   1.000  C
  C31      1.0000 0.37035  0.55914  0.71725  Biso   1.000  C
  C32      1.0000 0.62965  0.05914  0.78275  Biso   1.000  C
  C33      1.0000 0.57469  0.34376  0.31419  Biso   1.000  C
  C34      1.0000 0.42531  0.84376  0.18581  Biso   1.000  C
  C35      1.0000 0.42531  0.65624  0.68581  Biso   1.000  C
  C36      1.0000 0.57469  0.15624  0.81419  Biso   1.000  C
  H21      1.0000 0.50360  0.31480  0.28860  Biso   1.000  H
  H22      1.0000 0.49640  0.81480  0.21140  Biso   1.000  H
  H23      1.0000 0.49640  0.68520  0.71140  Biso   1.000  H
  H24      1.0000 0.50360  0.18520  0.78860  Biso   1.000  H
  C37      1.0000 0.72068  0.33130  0.41393  Biso   1.000  C
  C38      1.0000 0.27932  0.83130  0.08607  Biso   1.000  C
  C39      1.0000 0.27932  0.66870  0.58607  Biso   1.000  C
  C40      1.0000 0.72068  0.16870  0.91393  Biso   1.000  C
  H25      1.0000 0.75230  0.29460  0.45880  Biso   1.000  H
  H26      1.0000 0.24770  0.79460  0.04120  Biso   1.000  H
  H27      1.0000 0.24770  0.70540  0.54120  Biso   1.000  H
  H28      1.0000 0.75230  0.20540  0.95880  Biso   1.000  H
  C41      1.0000 0.78235  0.42570  0.38727  Biso   1.000  C
  C42      1.0000 0.21765  0.92570  0.11273  Biso   1.000  C
  C43      1.0000 0.21765  0.57430  0.61273  Biso   1.000  C
  C44      1.0000 0.78235  0.07430  0.88727  Biso   1.000  C
  H29      1.0000 0.85400  0.45080  0.41360  Biso   1.000  H
  H30      1.0000 0.14600  0.95080  0.08640  Biso   1.000  H
  H31      1.0000 0.14600  0.54920  0.58640  Biso   1.000  H
  H32      1.0000 0.85400  0.04920  0.91360  Biso   1.000  H
  C45      1.0000 0.73719  0.48290  0.32115  Biso   1.000  C
  C46      1.0000 0.26281  0.98290  0.17885  Biso   1.000  C
  C47      1.0000 0.26281  0.51710  0.67885  Biso   1.000  C
  C48      1.0000 0.73719  0.01710  0.82115  Biso   1.000  C
  H33      1.0000 0.77720  0.54790  0.30250  Biso   1.000  H
  H34      1.0000 0.22280  0.04790  0.19750  Biso   1.000  H
  H35      1.0000 0.22280  0.45210  0.69750  Biso   1.000  H
  H36      1.0000 0.77720  0.95210  0.80250  Biso   1.000  H
  C49      1.0000 0.10366  0.41820  0.94762  Biso   1.000  C
  C50      1.0000 0.89634  0.91820  0.55238  Biso   1.000  C
  C51      1.0000 0.89634  0.58180  0.05238  Biso   1.000  C
  C52      1.0000 0.10366  0.08180  0.44762  Biso   1.000  C
  H37      1.0000 0.10690  0.47160  0.90860  Biso   1.000  H
  H38      1.0000 0.89310  0.97160  0.59140  Biso   1.000  H
  H39      1.0000 0.89310  0.52840  0.09140  Biso   1.000  H
  H40      1.0000 0.10690  0.02840  0.40860  Biso   1.000  H
  C53      1.0000 0.00970  0.34030  0.94633  Biso   1.000  C
  C54      1.0000 0.99030  0.84030  0.55367  Biso   1.000  C
  C55      1.0000 0.99030  0.65970  0.05367  Biso   1.000  C
  C56      1.0000 0.00970  0.15970  0.44633  Biso   1.000  C
  H41      1.0000 0.95070  0.34270  0.90530  Biso   1.000  H
  H42      1.0000 0.04930  0.84270  0.59470  Biso   1.000  H
  H43      1.0000 0.04930  0.65730  0.09470  Biso   1.000  H
  H44      1.0000 0.95070  0.15730  0.40530  Biso   1.000  H
  C57      1.0000 0.08350  0.26110  0.05752  Biso   1.000  C
  C58      1.0000 0.91650  0.76110  0.44248  Biso   1.000  C
  C59      1.0000 0.91650  0.73890  0.94248  Biso   1.000  C
  C60      1.0000 0.08350  0.23890  0.55752  Biso   1.000  C
  H45      1.0000 0.07700  0.20810  0.09590  Biso   1.000  H
  H46      1.0000 0.92300  0.70810  0.40410  Biso   1.000  H
  H47      1.0000 0.92300  0.79190  0.90410  Biso   1.000  H
  H48      1.0000 0.07700  0.29190  0.59590  Biso   1.000  H
  C61      1.0000 0.18201  0.33430  0.06420  Biso   1.000  C
  C62      1.0000 0.81799  0.83430  0.43580  Biso   1.000  C
  C63      1.0000 0.81799  0.66570  0.93580  Biso   1.000  C
  C64      1.0000 0.18201  0.16570  0.56420  Biso   1.000  C
  H49      1.0000 0.23980  0.32900  0.10580  Biso   1.000  H
  H50      1.0000 0.76020  0.82900  0.39420  Biso   1.000  H
  H51      1.0000 0.76020  0.67100  0.89420  Biso   1.000  H
  H52      1.0000 0.23980  0.17100  0.60580  Biso   1.000  H
  C65      1.0000 0.19352  0.41580  0.00800  Biso   1.000  C
  C66      1.0000 0.80648  0.91580  0.49200  Biso   1.000  C
  C67      1.0000 0.80648  0.58420  0.99200  Biso   1.000  C
  C68      1.0000 0.19352  0.08420  0.50800  Biso   1.000  C
  C69      1.0000 0.29708  0.49921  0.01516  Biso   1.000  C
  C70      1.0000 0.70292  0.99921  0.48484  Biso   1.000  C
  C71      1.0000 0.70292  0.50079  0.98484  Biso   1.000  C
  C72      1.0000 0.29708  0.00079  0.51516  Biso   1.000  C
  C73      1.0000 0.42269  0.74490  0.93710  Biso   1.000  C
  C74      1.0000 0.57731  0.24490  0.56290  Biso   1.000  C
  C75      1.0000 0.57731  0.25510  0.06290  Biso   1.000  C
  C76      1.0000 0.42269  0.75510  0.43710  Biso   1.000  C
  H53      1.0000 0.49230  0.78760  0.95370  Biso   1.000  H
  H54      1.0000 0.50770  0.28760  0.54630  Biso   1.000  H
  H55      1.0000 0.50770  0.21240  0.04630  Biso   1.000  H
  H56      1.0000 0.49230  0.71240  0.45370  Biso   1.000  H
  C77      1.0000 0.35867  0.79200  0.86735  Biso   1.000  C
  C78      1.0000 0.64133  0.29200  0.63265  Biso   1.000  C
  C79      1.0000 0.64133  0.20800  0.13265  Biso   1.000  C
  C80      1.0000 0.35867  0.70800  0.36735  Biso   1.000  C
  C81      1.0000 0.40970  0.89220  0.83598  Biso   1.000  C
  C82      1.0000 0.59030  0.39220  0.66402  Biso   1.000  C
  C83      1.0000 0.59030  0.10780  0.16402  Biso   1.000  C
  C84      1.0000 0.40970  0.60780  0.33598  Biso   1.000  C
  H57      1.0000 0.48090  0.92160  0.86100  Biso   1.000  H
  H58      1.0000 0.51910  0.42160  0.63900  Biso   1.000  H
  H59      1.0000 0.51910  0.07840  0.13900  Biso   1.000  H
  H60      1.0000 0.48090  0.57840  0.36100  Biso   1.000  H
  C85      1.0000 0.26400  0.90680  0.73879  Biso   1.000  C
  C86      1.0000 0.73600  0.40680  0.76121  Biso   1.000  C
  C87      1.0000 0.73600  0.09320  0.26121  Biso   1.000  C
  C88      1.0000 0.26400  0.59320  0.23879  Biso   1.000  C
  H61      1.0000 0.23090  0.94500  0.69450  Biso   1.000  H
  H62      1.0000 0.76910  0.44500  0.80550  Biso   1.000  H
  H63      1.0000 0.76910  0.05500  0.30550  Biso   1.000  H
  H64      1.0000 0.23090  0.55500  0.19450  Biso   1.000  H
  C89      1.0000 0.20440  0.80910  0.76450  Biso   1.000  C
  C90      1.0000 0.79560  0.30910  0.73550  Biso   1.000  C
  C91      1.0000 0.79560  0.19090  0.23550  Biso   1.000  C
  C92      1.0000 0.20440  0.69090  0.26450  Biso   1.000  C
  H65      1.0000 0.13290  0.78320  0.73820  Biso   1.000  H
  H66      1.0000 0.86710  0.28320  0.76180  Biso   1.000  H
  H67      1.0000 0.86710  0.21680  0.26180  Biso   1.000  H
  H68      1.0000 0.13290  0.71680  0.23820  Biso   1.000  H
  C93      1.0000 0.25161  0.74940  0.82983  Biso   1.000  C
  C94      1.0000 0.74839  0.24940  0.67017  Biso   1.000  C
  C95      1.0000 0.74839  0.25060  0.17017  Biso   1.000  C
  C96      1.0000 0.25161  0.75060  0.32983  Biso   1.000  C
  H69      1.0000 0.21290  0.68270  0.84820  Biso   1.000  H
  H70      1.0000 0.78710  0.18270  0.65180  Biso   1.000  H
  H71      1.0000 0.78710  0.31730  0.15180  Biso   1.000  H
  H72      1.0000 0.21290  0.81730  0.34820  Biso   1.000  H
  Cu1      1.0000 0.48951  0.62744  0.07833  Biso   1.000  Cu
  Cu2      1.0000 0.51049  0.12744  0.42167  Biso   1.000  Cu
  Cu3      1.0000 0.51049  0.37256  0.92167  Biso   1.000  Cu
  Cu4      1.0000 0.48951  0.87256  0.57833  Biso   1.000  Cu
  N1       1.0000 0.97672  0.00750  0.16193  Biso   1.000  N
  N2       1.0000 0.02328  0.50750  0.33807  Biso   1.000  N
  N3       1.0000 0.02328  0.99250  0.83807  Biso   1.000  N
  N4       1.0000 0.97672  0.49250  0.66193  Biso   1.000  N
  N5       1.0000 0.69147  0.64922  0.18864  Biso   1.000  N
  N6       1.0000 0.30853  0.14922  0.31136  Biso   1.000  N
  N7       1.0000 0.30853  0.35078  0.81136  Biso   1.000  N
  N8       1.0000 0.69147  0.85078  0.68864  Biso   1.000  N
  N9       1.0000 0.59092  0.57523  0.16952  Biso   1.000  N
  N10      1.0000 0.40908  0.07523  0.33048  Biso   1.000  N
  N11      1.0000 0.40908  0.42477  0.83048  Biso   1.000  N
  N12      1.0000 0.59092  0.92477  0.66952  Biso   1.000  N
  N13      1.0000 0.61722  0.28934  0.37861  Biso   1.000  N
  N14      1.0000 0.38278  0.78934  0.12139  Biso   1.000  N
  N15      1.0000 0.38278  0.71066  0.62139  Biso   1.000  N
  N16      1.0000 0.61722  0.21066  0.87861  Biso   1.000  N
  N17      1.0000 0.99760  0.26170  0.99979  Biso   1.000  N
  N18      1.0000 0.00240  0.76170  0.50021  Biso   1.000  N
  N19      1.0000 0.00240  0.73830  0.00021  Biso   1.000  N
  N20      1.0000 0.99760  0.23830  0.49979  Biso   1.000  N
  N21      1.0000 0.29997  0.58239  0.96187  Biso   1.000  N
  N22      1.0000 0.70003  0.08239  0.53813  Biso   1.000  N
  N23      1.0000 0.70003  0.41761  0.03813  Biso   1.000  N
  N24      1.0000 0.29997  0.91761  0.46187  Biso   1.000  N
  N25      1.0000 0.40057  0.65516  0.97995  Biso   1.000  N
  N26      1.0000 0.59943  0.15516  0.52005  Biso   1.000  N
  N27      1.0000 0.59943  0.34484  0.02005  Biso   1.000  N
  N28      1.0000 0.40057  0.84484  0.47995  Biso   1.000  N
  N29      1.0000 0.36530  0.94980  0.77299  Biso   1.000  N
  N30      1.0000 0.63470  0.44980  0.72701  Biso   1.000  N
  N31      1.0000 0.63470  0.05020  0.22701  Biso   1.000  N
  N32      1.0000 0.36530  0.55020  0.27299  Biso   1.000  N
  O1       1.0000 0.61534  0.74880  0.07849  Biso   1.000  O
  O2       1.0000 0.38466  0.24880  0.42151  Biso   1.000  O
  O3       1.0000 0.38466  0.25120  0.92151  Biso   1.000  O
  O4       1.0000 0.61534  0.75120  0.57849  Biso   1.000  O
  O5       1.0000 0.37428  0.48704  0.07339  Biso   1.000  O
  O6       1.0000 0.62572  0.98704  0.42661  Biso   1.000  O
  O7       1.0000 0.62572  0.51296  0.92661  Biso   1.000  O
  O8       1.0000 0.37428  0.01296  0.57339  Biso   1.000  O
