data_image0
_cell_length_a       23.874
_cell_length_b       9.4261
_cell_length_c       17.801
_cell_angle_alpha    90
_cell_angle_beta     112.728
_cell_angle_gamma    90

_symmetry_space_group_name_H-M    "P 1"
_symmetry_int_tables_number       1

loop_
  _symmetry_equiv_pos_as_xyz
  'x, y, z'

loop_
  _atom_site_label
  _atom_site_occupancy
  _atom_site_fract_x
  _atom_site_fract_y
  _atom_site_fract_z
  _atom_site_thermal_displace_type
  _atom_site_B_iso_or_equiv
  _atom_site_type_symbol
  Cu1      1.0000 0.36717  0.97061  0.32275  Biso   1.000  Cu
  Cu2      1.0000 0.63283  0.97061  0.17725  Biso   1.000  Cu
  Cu3      1.0000 0.86717  0.47061  0.32275  Biso   1.000  Cu
  Cu4      1.0000 0.13283  0.47061  0.17725  Biso   1.000  Cu
  Cu5      1.0000 0.63283  0.02939  0.67725  Biso   1.000  Cu
  Cu6      1.0000 0.36717  0.02939  0.82275  Biso   1.000  Cu
  Cu7      1.0000 0.13283  0.52939  0.67725  Biso   1.000  Cu
  Cu8      1.0000 0.86717  0.52939  0.82275  Biso   1.000  Cu
  Cu9      1.0000 0.50000  0.01814  0.25000  Biso   1.000  Cu
  Cu10     1.0000 0.00000  0.51814  0.25000  Biso   1.000  Cu
  Cu11     1.0000 0.50000  0.98186  0.75000  Biso   1.000  Cu
  Cu12     1.0000 0.00000  0.48186  0.75000  Biso   1.000  Cu
  F1       1.0000 0.09480  0.86190  0.16620  Biso   1.000  F
  F2       1.0000 0.90520  0.86190  0.33380  Biso   1.000  F
  F3       1.0000 0.59480  0.36190  0.16620  Biso   1.000  F
  F4       1.0000 0.40520  0.36190  0.33380  Biso   1.000  F
  F5       1.0000 0.90520  0.13810  0.83380  Biso   1.000  F
  F6       1.0000 0.09480  0.13810  0.66620  Biso   1.000  F
  F7       1.0000 0.40520  0.63810  0.83380  Biso   1.000  F
  F8       1.0000 0.59480  0.63810  0.66620  Biso   1.000  F
  F9       1.0000 0.17370  0.99240  0.16560  Biso   1.000  F
  F10      1.0000 0.82630  0.99240  0.33440  Biso   1.000  F
  F11      1.0000 0.67370  0.49240  0.16560  Biso   1.000  F
  F12      1.0000 0.32630  0.49240  0.33440  Biso   1.000  F
  F13      1.0000 0.82630  0.00760  0.83440  Biso   1.000  F
  F14      1.0000 0.17370  0.00760  0.66560  Biso   1.000  F
  F15      1.0000 0.32630  0.50760  0.83440  Biso   1.000  F
  F16      1.0000 0.67370  0.50760  0.66560  Biso   1.000  F
  F17      1.0000 0.13210  0.02670  0.25540  Biso   1.000  F
  F18      1.0000 0.86790  0.02670  0.24460  Biso   1.000  F
  F19      1.0000 0.63210  0.52670  0.25540  Biso   1.000  F
  F20      1.0000 0.36790  0.52670  0.24460  Biso   1.000  F
  F21      1.0000 0.86790  0.97330  0.74460  Biso   1.000  F
  F22      1.0000 0.13210  0.97330  0.75540  Biso   1.000  F
  F23      1.0000 0.36790  0.47330  0.74460  Biso   1.000  F
  F24      1.0000 0.63210  0.47330  0.75540  Biso   1.000  F
  F25      1.0000 0.08600  0.09240  0.13560  Biso   1.000  F
  F26      1.0000 0.91400  0.09240  0.36440  Biso   1.000  F
  F27      1.0000 0.58600  0.59240  0.13560  Biso   1.000  F
  F28      1.0000 0.41400  0.59240  0.36440  Biso   1.000  F
  F29      1.0000 0.91400  0.90760  0.86440  Biso   1.000  F
  F30      1.0000 0.08600  0.90760  0.63560  Biso   1.000  F
  F31      1.0000 0.41400  0.40760  0.86440  Biso   1.000  F
  F32      1.0000 0.58600  0.40760  0.63560  Biso   1.000  F
  O1       1.0000 0.36414  0.91380  0.42591  Biso   1.000  O
  O2       1.0000 0.63586  0.91380  0.07409  Biso   1.000  O
  O3       1.0000 0.86414  0.41380  0.42591  Biso   1.000  O
  O4       1.0000 0.13586  0.41380  0.07409  Biso   1.000  O
  O5       1.0000 0.63586  0.08620  0.57409  Biso   1.000  O
  O6       1.0000 0.36414  0.08620  0.92591  Biso   1.000  O
  O7       1.0000 0.13586  0.58620  0.57409  Biso   1.000  O
  O8       1.0000 0.86414  0.58620  0.92591  Biso   1.000  O
  O9       1.0000 0.41536  0.79380  0.54013  Biso   1.000  O
  O10      1.0000 0.58464  0.79380  0.95987  Biso   1.000  O
  O11      1.0000 0.91536  0.29380  0.54013  Biso   1.000  O
  O12      1.0000 0.08464  0.29380  0.95987  Biso   1.000  O
  O13      1.0000 0.58464  0.20620  0.45987  Biso   1.000  O
  O14      1.0000 0.41536  0.20620  0.04013  Biso   1.000  O
  O15      1.0000 0.08464  0.70620  0.45987  Biso   1.000  O
  O16      1.0000 0.91536  0.70620  0.04013  Biso   1.000  O
  O17      1.0000 0.66108  0.90150  0.42386  Biso   1.000  O
  O18      1.0000 0.33892  0.90150  0.07614  Biso   1.000  O
  O19      1.0000 0.16108  0.40150  0.42386  Biso   1.000  O
  O20      1.0000 0.83892  0.40150  0.07614  Biso   1.000  O
  O21      1.0000 0.33892  0.09850  0.57614  Biso   1.000  O
  O22      1.0000 0.66108  0.09850  0.92386  Biso   1.000  O
  O23      1.0000 0.83892  0.59850  0.57614  Biso   1.000  O
  O24      1.0000 0.16108  0.59850  0.92386  Biso   1.000  O
  O25      1.0000 0.50000  0.24150  0.25000  Biso   1.000  O
  O26      1.0000 0.00000  0.74150  0.25000  Biso   1.000  O
  O27      1.0000 0.50000  0.75850  0.75000  Biso   1.000  O
  O28      1.0000 0.00000  0.25850  0.75000  Biso   1.000  O
  O29      1.0000 0.03640  0.15750  0.27190  Biso   1.000  O
  O30      1.0000 0.96360  0.15750  0.22810  Biso   1.000  O
  O31      1.0000 0.53640  0.65750  0.27190  Biso   1.000  O
  O32      1.0000 0.46360  0.65750  0.22810  Biso   1.000  O
  O33      1.0000 0.96360  0.84250  0.72810  Biso   1.000  O
  O34      1.0000 0.03640  0.84250  0.77190  Biso   1.000  O
  O35      1.0000 0.46360  0.34250  0.72810  Biso   1.000  O
  O36      1.0000 0.53640  0.34250  0.77190  Biso   1.000  O
  O37      1.0000 0.73400  0.45830  0.46280  Biso   1.000  O
  O38      1.0000 0.26600  0.45830  0.03720  Biso   1.000  O
  O39      1.0000 0.23400  0.95830  0.46280  Biso   1.000  O
  O40      1.0000 0.76600  0.95830  0.03720  Biso   1.000  O
  O41      1.0000 0.26600  0.54170  0.53720  Biso   1.000  O
  O42      1.0000 0.73400  0.54170  0.96280  Biso   1.000  O
  O43      1.0000 0.76600  0.04170  0.53720  Biso   1.000  O
  O44      1.0000 0.23400  0.04170  0.96280  Biso   1.000  O
  O45      1.0000 0.63890  0.53040  0.49640  Biso   1.000  O
  O46      1.0000 0.36110  0.53040  0.00360  Biso   1.000  O
  O47      1.0000 0.13890  0.03040  0.49640  Biso   1.000  O
  O48      1.0000 0.86110  0.03040  0.00360  Biso   1.000  O
  O49      1.0000 0.36110  0.46960  0.50360  Biso   1.000  O
  O50      1.0000 0.63890  0.46960  0.99640  Biso   1.000  O
  O51      1.0000 0.86110  0.96960  0.50360  Biso   1.000  O
  O52      1.0000 0.13890  0.96960  0.99640  Biso   1.000  O
  O53      1.0000 0.54060  0.46000  0.35660  Biso   1.000  O
  O54      1.0000 0.45940  0.46000  0.14340  Biso   1.000  O
  O55      1.0000 0.04060  0.96000  0.35660  Biso   1.000  O
  O56      1.0000 0.95940  0.96000  0.14340  Biso   1.000  O
  O57      1.0000 0.45940  0.54000  0.64340  Biso   1.000  O
  O58      1.0000 0.54060  0.54000  0.85660  Biso   1.000  O
  O59      1.0000 0.95940  0.04000  0.64340  Biso   1.000  O
  O60      1.0000 0.04060  0.04000  0.85660  Biso   1.000  O
  N1       1.0000 0.45549  0.90990  0.38082  Biso   1.000  N
  N2       1.0000 0.54451  0.90990  0.11918  Biso   1.000  N
  N3       1.0000 0.95549  0.40990  0.38082  Biso   1.000  N
  N4       1.0000 0.04451  0.40990  0.11918  Biso   1.000  N
  N5       1.0000 0.54451  0.09010  0.61918  Biso   1.000  N
  N6       1.0000 0.45549  0.09010  0.88082  Biso   1.000  N
  N7       1.0000 0.04451  0.59010  0.61918  Biso   1.000  N
  N8       1.0000 0.95549  0.59010  0.88082  Biso   1.000  N
  N9       1.0000 0.50184  0.93190  0.35803  Biso   1.000  N
  N10      1.0000 0.49816  0.93190  0.14197  Biso   1.000  N
  N11      1.0000 0.00184  0.43190  0.35803  Biso   1.000  N
  N12      1.0000 0.99816  0.43190  0.14197  Biso   1.000  N
  N13      1.0000 0.49816  0.06810  0.64197  Biso   1.000  N
  N14      1.0000 0.50184  0.06810  0.85803  Biso   1.000  N
  N15      1.0000 0.99816  0.56810  0.64197  Biso   1.000  N
  N16      1.0000 0.00184  0.56810  0.85803  Biso   1.000  N
  N17      1.0000 0.58682  0.00040  0.30890  Biso   1.000  N
  N18      1.0000 0.41318  0.00040  0.19110  Biso   1.000  N
  N19      1.0000 0.08682  0.50040  0.30890  Biso   1.000  N
  N20      1.0000 0.91318  0.50040  0.19110  Biso   1.000  N
  N21      1.0000 0.41318  0.99960  0.69110  Biso   1.000  N
  N22      1.0000 0.58682  0.99960  0.80890  Biso   1.000  N
  N23      1.0000 0.91318  0.49960  0.69110  Biso   1.000  N
  N24      1.0000 0.08682  0.49960  0.80890  Biso   1.000  N
  N25      1.0000 0.62965  0.04400  0.27723  Biso   1.000  N
  N26      1.0000 0.37035  0.04400  0.22277  Biso   1.000  N
  N27      1.0000 0.12965  0.54400  0.27723  Biso   1.000  N
  N28      1.0000 0.87035  0.54400  0.22277  Biso   1.000  N
  N29      1.0000 0.37035  0.95600  0.72277  Biso   1.000  N
  N30      1.0000 0.62965  0.95600  0.77723  Biso   1.000  N
  N31      1.0000 0.87035  0.45600  0.72277  Biso   1.000  N
  N32      1.0000 0.12965  0.45600  0.77723  Biso   1.000  N
  N33      1.0000 0.66790  0.21720  0.37889  Biso   1.000  N
  N34      1.0000 0.33210  0.21720  0.12111  Biso   1.000  N
  N35      1.0000 0.16790  0.71720  0.37889  Biso   1.000  N
  N36      1.0000 0.83210  0.71720  0.12111  Biso   1.000  N
  N37      1.0000 0.33210  0.78280  0.62111  Biso   1.000  N
  N38      1.0000 0.66790  0.78280  0.87889  Biso   1.000  N
  N39      1.0000 0.83210  0.28280  0.62111  Biso   1.000  N
  N40      1.0000 0.16790  0.28280  0.87889  Biso   1.000  N
  H1       1.0000 0.64300  0.19310  0.40250  Biso   1.000  H
  H2       1.0000 0.35700  0.19310  0.09750  Biso   1.000  H
  H3       1.0000 0.14300  0.69310  0.40250  Biso   1.000  H
  H4       1.0000 0.85700  0.69310  0.09750  Biso   1.000  H
  H5       1.0000 0.35700  0.80690  0.59750  Biso   1.000  H
  H6       1.0000 0.64300  0.80690  0.90250  Biso   1.000  H
  H7       1.0000 0.85700  0.30690  0.59750  Biso   1.000  H
  H8       1.0000 0.14300  0.30690  0.90250  Biso   1.000  H
  H9       1.0000 0.69400  0.28670  0.39910  Biso   1.000  H
  H10      1.0000 0.30600  0.28670  0.10090  Biso   1.000  H
  H11      1.0000 0.19400  0.78670  0.39910  Biso   1.000  H
  H12      1.0000 0.80600  0.78670  0.10090  Biso   1.000  H
  H13      1.0000 0.30600  0.71330  0.60090  Biso   1.000  H
  H14      1.0000 0.69400  0.71330  0.89910  Biso   1.000  H
  H15      1.0000 0.80600  0.21330  0.60090  Biso   1.000  H
  H16      1.0000 0.19400  0.21330  0.89910  Biso   1.000  H
  N41      1.0000 0.79146  0.31720  0.26438  Biso   1.000  N
  N42      1.0000 0.20854  0.31720  0.23562  Biso   1.000  N
  N43      1.0000 0.29146  0.81720  0.26438  Biso   1.000  N
  N44      1.0000 0.70854  0.81720  0.23562  Biso   1.000  N
  N45      1.0000 0.20854  0.68280  0.73562  Biso   1.000  N
  N46      1.0000 0.79146  0.68280  0.76438  Biso   1.000  N
  N47      1.0000 0.70854  0.18280  0.73562  Biso   1.000  N
  N48      1.0000 0.29146  0.18280  0.76438  Biso   1.000  N
  N49      1.0000 0.69556  0.12870  0.19987  Biso   1.000  N
  N50      1.0000 0.30444  0.12870  0.30013  Biso   1.000  N
  N51      1.0000 0.19556  0.62870  0.19987  Biso   1.000  N
  N52      1.0000 0.80444  0.62870  0.30013  Biso   1.000  N
  N53      1.0000 0.30444  0.87130  0.80013  Biso   1.000  N
  N54      1.0000 0.69556  0.87130  0.69987  Biso   1.000  N
  N55      1.0000 0.80444  0.37130  0.80013  Biso   1.000  N
  N56      1.0000 0.19556  0.37130  0.69987  Biso   1.000  N
  C1       1.0000 0.41000  0.84720  0.47490  Biso   1.000  C
  C2       1.0000 0.59000  0.84720  0.02510  Biso   1.000  C
  C3       1.0000 0.91000  0.34720  0.47490  Biso   1.000  C
  C4       1.0000 0.09000  0.34720  0.02510  Biso   1.000  C
  C5       1.0000 0.59000  0.15280  0.52510  Biso   1.000  C
  C6       1.0000 0.41000  0.15280  0.97490  Biso   1.000  C
  C7       1.0000 0.09000  0.65280  0.52510  Biso   1.000  C
  C8       1.0000 0.91000  0.65280  0.97490  Biso   1.000  C
  C9       1.0000 0.46445  0.84480  0.45080  Biso   1.000  C
  C10      1.0000 0.53555  0.84480  0.04920  Biso   1.000  C
  C11      1.0000 0.96445  0.34480  0.45080  Biso   1.000  C
  C12      1.0000 0.03555  0.34480  0.04920  Biso   1.000  C
  C13      1.0000 0.53555  0.15520  0.54920  Biso   1.000  C
  C14      1.0000 0.46445  0.15520  0.95080  Biso   1.000  C
  C15      1.0000 0.03555  0.65520  0.54920  Biso   1.000  C
  C16      1.0000 0.96445  0.65520  0.95080  Biso   1.000  C
  C17      1.0000 0.52041  0.78830  0.50050  Biso   1.000  C
  C18      1.0000 0.47959  0.78830  0.99950  Biso   1.000  C
  C19      1.0000 0.02041  0.28830  0.50050  Biso   1.000  C
  C20      1.0000 0.97959  0.28830  0.99950  Biso   1.000  C
  C21      1.0000 0.47959  0.21170  0.49950  Biso   1.000  C
  C22      1.0000 0.52041  0.21170  0.00050  Biso   1.000  C
  C23      1.0000 0.97959  0.71170  0.49950  Biso   1.000  C
  C24      1.0000 0.02041  0.71170  0.00050  Biso   1.000  C
  H17      1.0000 0.52540  0.73680  0.54850  Biso   1.000  H
  H18      1.0000 0.47460  0.73680  0.95150  Biso   1.000  H
  H19      1.0000 0.02540  0.23680  0.54850  Biso   1.000  H
  H20      1.0000 0.97460  0.23680  0.95150  Biso   1.000  H
  H21      1.0000 0.47460  0.26320  0.45150  Biso   1.000  H
  H22      1.0000 0.52540  0.26320  0.04850  Biso   1.000  H
  H23      1.0000 0.97460  0.76320  0.45150  Biso   1.000  H
  H24      1.0000 0.02540  0.76320  0.04850  Biso   1.000  H
  C25      1.0000 0.56856  0.81070  0.47670  Biso   1.000  C
  C26      1.0000 0.43144  0.81070  0.02330  Biso   1.000  C
  C27      1.0000 0.06856  0.31070  0.47670  Biso   1.000  C
  C28      1.0000 0.93144  0.31070  0.02330  Biso   1.000  C
  C29      1.0000 0.43144  0.18930  0.52330  Biso   1.000  C
  C30      1.0000 0.56856  0.18930  0.97670  Biso   1.000  C
  C31      1.0000 0.93144  0.68930  0.52330  Biso   1.000  C
  C32      1.0000 0.06856  0.68930  0.97670  Biso   1.000  C
  H25      1.0000 0.60790  0.77480  0.50780  Biso   1.000  H
  H26      1.0000 0.39210  0.77480  0.99220  Biso   1.000  H
  H27      1.0000 0.10790  0.27480  0.50780  Biso   1.000  H
  H28      1.0000 0.89210  0.27480  0.99220  Biso   1.000  H
  H29      1.0000 0.39210  0.22520  0.49220  Biso   1.000  H
  H30      1.0000 0.60790  0.22520  0.00780  Biso   1.000  H
  H31      1.0000 0.89210  0.72520  0.49220  Biso   1.000  H
  H32      1.0000 0.10790  0.72520  0.00780  Biso   1.000  H
  C33      1.0000 0.55717  0.88740  0.40580  Biso   1.000  C
  C34      1.0000 0.44283  0.88740  0.09420  Biso   1.000  C
  C35      1.0000 0.05717  0.38740  0.40580  Biso   1.000  C
  C36      1.0000 0.94283  0.38740  0.09420  Biso   1.000  C
  C37      1.0000 0.44283  0.11260  0.59420  Biso   1.000  C
  C38      1.0000 0.55717  0.11260  0.90580  Biso   1.000  C
  C39      1.0000 0.94283  0.61260  0.59420  Biso   1.000  C
  C40      1.0000 0.05717  0.61260  0.90580  Biso   1.000  C
  C41      1.0000 0.60805  0.93000  0.37950  Biso   1.000  C
  C42      1.0000 0.39195  0.93000  0.12050  Biso   1.000  C
  C43      1.0000 0.10805  0.43000  0.37950  Biso   1.000  C
  C44      1.0000 0.89195  0.43000  0.12050  Biso   1.000  C
  C45      1.0000 0.39195  0.07000  0.62050  Biso   1.000  C
  C46      1.0000 0.60805  0.07000  0.87950  Biso   1.000  C
  C47      1.0000 0.89195  0.57000  0.62050  Biso   1.000  C
  C48      1.0000 0.10805  0.57000  0.87950  Biso   1.000  C
  C49      1.0000 0.66613  0.14910  0.31340  Biso   1.000  C
  C50      1.0000 0.33387  0.14910  0.18660  Biso   1.000  C
  C51      1.0000 0.16613  0.64910  0.31340  Biso   1.000  C
  C52      1.0000 0.83387  0.64910  0.18660  Biso   1.000  C
  C53      1.0000 0.33387  0.85090  0.68660  Biso   1.000  C
  C54      1.0000 0.66613  0.85090  0.81340  Biso   1.000  C
  C55      1.0000 0.83387  0.35090  0.68660  Biso   1.000  C
  C56      1.0000 0.16613  0.35090  0.81340  Biso   1.000  C
  C57      1.0000 0.70792  0.19030  0.27270  Biso   1.000  C
  C58      1.0000 0.29208  0.19030  0.22730  Biso   1.000  C
  C59      1.0000 0.20792  0.69030  0.27270  Biso   1.000  C
  C60      1.0000 0.79208  0.69030  0.22730  Biso   1.000  C
  C61      1.0000 0.29208  0.80970  0.72730  Biso   1.000  C
  C62      1.0000 0.70792  0.80970  0.77270  Biso   1.000  C
  C63      1.0000 0.79208  0.30970  0.72730  Biso   1.000  C
  C64      1.0000 0.20792  0.30970  0.77270  Biso   1.000  C
  C65      1.0000 0.75594  0.28330  0.30530  Biso   1.000  C
  C66      1.0000 0.24406  0.28330  0.19470  Biso   1.000  C
  C67      1.0000 0.25594  0.78330  0.30530  Biso   1.000  C
  C68      1.0000 0.74406  0.78330  0.19470  Biso   1.000  C
  C69      1.0000 0.24406  0.71670  0.69470  Biso   1.000  C
  C70      1.0000 0.75594  0.71670  0.80530  Biso   1.000  C
  C71      1.0000 0.74406  0.21670  0.69470  Biso   1.000  C
  C72      1.0000 0.25594  0.21670  0.80530  Biso   1.000  C
  H33      1.0000 0.76420  0.32410  0.35730  Biso   1.000  H
  H34      1.0000 0.23580  0.32410  0.14270  Biso   1.000  H
  H35      1.0000 0.26420  0.82410  0.35730  Biso   1.000  H
  H36      1.0000 0.73580  0.82410  0.14270  Biso   1.000  H
  H37      1.0000 0.23580  0.67590  0.64270  Biso   1.000  H
  H38      1.0000 0.76420  0.67590  0.85730  Biso   1.000  H
  H39      1.0000 0.73580  0.17590  0.64270  Biso   1.000  H
  H40      1.0000 0.26420  0.17590  0.85730  Biso   1.000  H
  C73      1.0000 0.77750  0.26000  0.19130  Biso   1.000  C
  C74      1.0000 0.22250  0.26000  0.30870  Biso   1.000  C
  C75      1.0000 0.27750  0.76000  0.19130  Biso   1.000  C
  C76      1.0000 0.72250  0.76000  0.30870  Biso   1.000  C
  C77      1.0000 0.22250  0.74000  0.80870  Biso   1.000  C
  C78      1.0000 0.77750  0.74000  0.69130  Biso   1.000  C
  C79      1.0000 0.72250  0.24000  0.80870  Biso   1.000  C
  C80      1.0000 0.27750  0.24000  0.69130  Biso   1.000  C
  H41      1.0000 0.80050  0.28560  0.16020  Biso   1.000  H
  H42      1.0000 0.19950  0.28560  0.33980  Biso   1.000  H
  H43      1.0000 0.30050  0.78560  0.16020  Biso   1.000  H
  H44      1.0000 0.69950  0.78560  0.33980  Biso   1.000  H
  H45      1.0000 0.19950  0.71440  0.83980  Biso   1.000  H
  H46      1.0000 0.80050  0.71440  0.66020  Biso   1.000  H
  H47      1.0000 0.69950  0.21440  0.83980  Biso   1.000  H
  H48      1.0000 0.30050  0.21440  0.66020  Biso   1.000  H
  C81      1.0000 0.72983  0.16290  0.15870  Biso   1.000  C
  C82      1.0000 0.27017  0.16290  0.34130  Biso   1.000  C
  C83      1.0000 0.22983  0.66290  0.15870  Biso   1.000  C
  C84      1.0000 0.77017  0.66290  0.34130  Biso   1.000  C
  C85      1.0000 0.27017  0.83710  0.84130  Biso   1.000  C
  C86      1.0000 0.72983  0.83710  0.65870  Biso   1.000  C
  C87      1.0000 0.77017  0.33710  0.84130  Biso   1.000  C
  C88      1.0000 0.22983  0.33710  0.65870  Biso   1.000  C
  H49      1.0000 0.72190  0.12120  0.10700  Biso   1.000  H
  H50      1.0000 0.27810  0.12120  0.39300  Biso   1.000  H
  H51      1.0000 0.22190  0.62120  0.10700  Biso   1.000  H
  H52      1.0000 0.77810  0.62120  0.39300  Biso   1.000  H
  H53      1.0000 0.27810  0.87880  0.89300  Biso   1.000  H
  H54      1.0000 0.72190  0.87880  0.60700  Biso   1.000  H
  H55      1.0000 0.77810  0.37880  0.89300  Biso   1.000  H
  H56      1.0000 0.22190  0.37880  0.60700  Biso   1.000  H
  B1       1.0000 0.11800  0.99000  0.17120  Biso   1.000  B
  B2       1.0000 0.88200  0.99000  0.32880  Biso   1.000  B
  B3       1.0000 0.61800  0.49000  0.17120  Biso   1.000  B
  B4       1.0000 0.38200  0.49000  0.32880  Biso   1.000  B
  B5       1.0000 0.88200  0.01000  0.82880  Biso   1.000  B
  B6       1.0000 0.11800  0.01000  0.67120  Biso   1.000  B
  B7       1.0000 0.38200  0.51000  0.82880  Biso   1.000  B
  B8       1.0000 0.61800  0.51000  0.67120  Biso   1.000  B
