data_image0
_cell_length_a       14.468
_cell_length_b       11.561
_cell_length_c       20.676
_cell_angle_alpha    90
_cell_angle_beta     106.737
_cell_angle_gamma    90

_symmetry_space_group_name_H-M    "P 1"
_symmetry_int_tables_number       1

loop_
  _symmetry_equiv_pos_as_xyz
  'x, y, z'

loop_
  _atom_site_label
  _atom_site_occupancy
  _atom_site_fract_x
  _atom_site_fract_y
  _atom_site_fract_z
  _atom_site_thermal_displace_type
  _atom_site_B_iso_or_equiv
  _atom_site_type_symbol
  Cu1      1.0000 0.75000  0.25000  0.50000  Biso   1.000  Cu
  Cu2      1.0000 0.25000  0.25000  0.00000  Biso   1.000  Cu
  Cu3      1.0000 0.25000  0.75000  0.50000  Biso   1.000  Cu
  Cu4      1.0000 0.75000  0.75000  0.00000  Biso   1.000  Cu
  C1       1.0000 0.88210  0.04610  0.52927  Biso   1.000  C
  C2       1.0000 0.11790  0.04610  0.97073  Biso   1.000  C
  C3       1.0000 0.38210  0.54610  0.52927  Biso   1.000  C
  C4       1.0000 0.61790  0.54610  0.97073  Biso   1.000  C
  C5       1.0000 0.11790  0.95390  0.47073  Biso   1.000  C
  C6       1.0000 0.88210  0.95390  0.02927  Biso   1.000  C
  C7       1.0000 0.61790  0.45390  0.47073  Biso   1.000  C
  C8       1.0000 0.38210  0.45390  0.02927  Biso   1.000  C
  C9       1.0000 0.82950  0.97140  0.47882  Biso   1.000  C
  C10      1.0000 0.17050  0.97140  0.02118  Biso   1.000  C
  C11      1.0000 0.32950  0.47140  0.47882  Biso   1.000  C
  C12      1.0000 0.67050  0.47140  0.02118  Biso   1.000  C
  C13      1.0000 0.17050  0.02860  0.52118  Biso   1.000  C
  C14      1.0000 0.82950  0.02860  0.97882  Biso   1.000  C
  C15      1.0000 0.67050  0.52860  0.52118  Biso   1.000  C
  C16      1.0000 0.32950  0.52860  0.97882  Biso   1.000  C
  H1       1.0000 0.77920  0.99820  0.44300  Biso   1.000  H
  H2       1.0000 0.22080  0.99820  0.05700  Biso   1.000  H
  H3       1.0000 0.27920  0.49820  0.44300  Biso   1.000  H
  H4       1.0000 0.72080  0.49820  0.05700  Biso   1.000  H
  H5       1.0000 0.22080  0.00180  0.55700  Biso   1.000  H
  H6       1.0000 0.77920  0.00180  0.94300  Biso   1.000  H
  H7       1.0000 0.72080  0.50180  0.55700  Biso   1.000  H
  H8       1.0000 0.27920  0.50180  0.94300  Biso   1.000  H
  C17      1.0000 0.85550  0.85640  0.48460  Biso   1.000  C
  C18      1.0000 0.14450  0.85640  0.01540  Biso   1.000  C
  C19      1.0000 0.35550  0.35640  0.48460  Biso   1.000  C
  C20      1.0000 0.64450  0.35640  0.01540  Biso   1.000  C
  C21      1.0000 0.14450  0.14360  0.51540  Biso   1.000  C
  C22      1.0000 0.85550  0.14360  0.98460  Biso   1.000  C
  C23      1.0000 0.64450  0.64360  0.51540  Biso   1.000  C
  C24      1.0000 0.35550  0.64360  0.98460  Biso   1.000  C
  H9       1.0000 0.82190  0.80480  0.45170  Biso   1.000  H
  H10      1.0000 0.17810  0.80480  0.04830  Biso   1.000  H
  H11      1.0000 0.32190  0.30480  0.45170  Biso   1.000  H
  H12      1.0000 0.67810  0.30480  0.04830  Biso   1.000  H
  H13      1.0000 0.17810  0.19520  0.54830  Biso   1.000  H
  H14      1.0000 0.82190  0.19520  0.95170  Biso   1.000  H
  H15      1.0000 0.67810  0.69520  0.54830  Biso   1.000  H
  H16      1.0000 0.32190  0.69520  0.95170  Biso   1.000  H
  C25      1.0000 0.93020  0.81500  0.53780  Biso   1.000  C
  C26      1.0000 0.06980  0.81500  0.96220  Biso   1.000  C
  C27      1.0000 0.43020  0.31500  0.53780  Biso   1.000  C
  C28      1.0000 0.56980  0.31500  0.96220  Biso   1.000  C
  C29      1.0000 0.06980  0.18500  0.46220  Biso   1.000  C
  C30      1.0000 0.93020  0.18500  0.03780  Biso   1.000  C
  C31      1.0000 0.56980  0.68500  0.46220  Biso   1.000  C
  C32      1.0000 0.43020  0.68500  0.03780  Biso   1.000  C
  H17      1.0000 0.94480  0.73650  0.53990  Biso   1.000  H
  H18      1.0000 0.05520  0.73650  0.96010  Biso   1.000  H
  H19      1.0000 0.44480  0.23650  0.53990  Biso   1.000  H
  H20      1.0000 0.55520  0.23650  0.96010  Biso   1.000  H
  H21      1.0000 0.05520  0.26350  0.46010  Biso   1.000  H
  H22      1.0000 0.94480  0.26350  0.03990  Biso   1.000  H
  H23      1.0000 0.55520  0.76350  0.46010  Biso   1.000  H
  H24      1.0000 0.44480  0.76350  0.03990  Biso   1.000  H
  C33      1.0000 0.98280  0.88700  0.58740  Biso   1.000  C
  C34      1.0000 0.01720  0.88700  0.91260  Biso   1.000  C
  C35      1.0000 0.48280  0.38700  0.58740  Biso   1.000  C
  C36      1.0000 0.51720  0.38700  0.91260  Biso   1.000  C
  C37      1.0000 0.01720  0.11300  0.41260  Biso   1.000  C
  C38      1.0000 0.98280  0.11300  0.08740  Biso   1.000  C
  C39      1.0000 0.51720  0.61300  0.41260  Biso   1.000  C
  C40      1.0000 0.48280  0.61300  0.08740  Biso   1.000  C
  H25      1.0000 0.03290  0.85920  0.62300  Biso   1.000  H
  H26      1.0000 0.96710  0.85920  0.87700  Biso   1.000  H
  H27      1.0000 0.53290  0.35920  0.62300  Biso   1.000  H
  H28      1.0000 0.46710  0.35920  0.87700  Biso   1.000  H
  H29      1.0000 0.96710  0.14080  0.37700  Biso   1.000  H
  H30      1.0000 0.03290  0.14080  0.12300  Biso   1.000  H
  H31      1.0000 0.46710  0.64080  0.37700  Biso   1.000  H
  H32      1.0000 0.53290  0.64080  0.12300  Biso   1.000  H
  C41      1.0000 0.95780  0.00410  0.58187  Biso   1.000  C
  C42      1.0000 0.04220  0.00410  0.91813  Biso   1.000  C
  C43      1.0000 0.45780  0.50410  0.58187  Biso   1.000  C
  C44      1.0000 0.54220  0.50410  0.91813  Biso   1.000  C
  C45      1.0000 0.04220  0.99590  0.41813  Biso   1.000  C
  C46      1.0000 0.95780  0.99590  0.08187  Biso   1.000  C
  C47      1.0000 0.54220  0.49590  0.41813  Biso   1.000  C
  C48      1.0000 0.45780  0.49590  0.08187  Biso   1.000  C
  C49      1.0000 0.94590  0.19300  0.59189  Biso   1.000  C
  C50      1.0000 0.05410  0.19300  0.90811  Biso   1.000  C
  C51      1.0000 0.44590  0.69300  0.59189  Biso   1.000  C
  C52      1.0000 0.55410  0.69300  0.90811  Biso   1.000  C
  C53      1.0000 0.05410  0.80700  0.40811  Biso   1.000  C
  C54      1.0000 0.94590  0.80700  0.09189  Biso   1.000  C
  C55      1.0000 0.55410  0.30700  0.40811  Biso   1.000  C
  C56      1.0000 0.44590  0.30700  0.09189  Biso   1.000  C
  C57      1.0000 0.97210  0.31260  0.61750  Biso   1.000  C
  C58      1.0000 0.02790  0.31260  0.88250  Biso   1.000  C
  C59      1.0000 0.47210  0.81260  0.61750  Biso   1.000  C
  C60      1.0000 0.52790  0.81260  0.88250  Biso   1.000  C
  C61      1.0000 0.02790  0.68740  0.38250  Biso   1.000  C
  C62      1.0000 0.97210  0.68740  0.11750  Biso   1.000  C
  C63      1.0000 0.52790  0.18740  0.38250  Biso   1.000  C
  C64      1.0000 0.47210  0.18740  0.11750  Biso   1.000  C
  H33      1.0000 0.03970  0.31320  0.64330  Biso   1.000  H
  H34      1.0000 0.96030  0.31320  0.85670  Biso   1.000  H
  H35      1.0000 0.53970  0.81320  0.64330  Biso   1.000  H
  H36      1.0000 0.46030  0.81320  0.85670  Biso   1.000  H
  H37      1.0000 0.96030  0.68680  0.35670  Biso   1.000  H
  H38      1.0000 0.03970  0.68680  0.14330  Biso   1.000  H
  H39      1.0000 0.46030  0.18680  0.35670  Biso   1.000  H
  H40      1.0000 0.53970  0.18680  0.14330  Biso   1.000  H
  H41      1.0000 0.93490  0.33190  0.64830  Biso   1.000  H
  H42      1.0000 0.06510  0.33190  0.85170  Biso   1.000  H
  H43      1.0000 0.43490  0.83190  0.64830  Biso   1.000  H
  H44      1.0000 0.56510  0.83190  0.85170  Biso   1.000  H
  H45      1.0000 0.06510  0.66810  0.35170  Biso   1.000  H
  H46      1.0000 0.93490  0.66810  0.14830  Biso   1.000  H
  H47      1.0000 0.56510  0.16810  0.35170  Biso   1.000  H
  H48      1.0000 0.43490  0.16810  0.14830  Biso   1.000  H
  C65      1.0000 0.95620  0.40500  0.56500  Biso   1.000  C
  C66      1.0000 0.04380  0.40500  0.93500  Biso   1.000  C
  C67      1.0000 0.45620  0.90500  0.56500  Biso   1.000  C
  C68      1.0000 0.54380  0.90500  0.93500  Biso   1.000  C
  C69      1.0000 0.04380  0.59500  0.43500  Biso   1.000  C
  C70      1.0000 0.95620  0.59500  0.06500  Biso   1.000  C
  C71      1.0000 0.54380  0.09500  0.43500  Biso   1.000  C
  C72      1.0000 0.45620  0.09500  0.06500  Biso   1.000  C
  H49      1.0000 0.97520  0.47840  0.58650  Biso   1.000  H
  H50      1.0000 0.02480  0.47840  0.91350  Biso   1.000  H
  H51      1.0000 0.47520  0.97840  0.58650  Biso   1.000  H
  H52      1.0000 0.52480  0.97840  0.91350  Biso   1.000  H
  H53      1.0000 0.02480  0.52160  0.41350  Biso   1.000  H
  H54      1.0000 0.97520  0.52160  0.08650  Biso   1.000  H
  H55      1.0000 0.52480  0.02160  0.41350  Biso   1.000  H
  H56      1.0000 0.47520  0.02160  0.08650  Biso   1.000  H
  H57      1.0000 0.88910  0.40740  0.54000  Biso   1.000  H
  H58      1.0000 0.11090  0.40740  0.96000  Biso   1.000  H
  H59      1.0000 0.38910  0.90740  0.54000  Biso   1.000  H
  H60      1.0000 0.61090  0.90740  0.96000  Biso   1.000  H
  H61      1.0000 0.11090  0.59260  0.46000  Biso   1.000  H
  H62      1.0000 0.88910  0.59260  0.04000  Biso   1.000  H
  H63      1.0000 0.61090  0.09260  0.46000  Biso   1.000  H
  H64      1.0000 0.38910  0.09260  0.04000  Biso   1.000  H
  H65      1.0000 0.99410  0.38860  0.53490  Biso   1.000  H
  H66      1.0000 0.00590  0.38860  0.96510  Biso   1.000  H
  H67      1.0000 0.49410  0.88860  0.53490  Biso   1.000  H
  H68      1.0000 0.50590  0.88860  0.96510  Biso   1.000  H
  H69      1.0000 0.00590  0.61140  0.46510  Biso   1.000  H
  H70      1.0000 0.99410  0.61140  0.03490  Biso   1.000  H
  H71      1.0000 0.50590  0.11140  0.46510  Biso   1.000  H
  H72      1.0000 0.49410  0.11140  0.03490  Biso   1.000  H
  C73      1.0000 0.07500  0.09390  0.68480  Biso   1.000  C
  C74      1.0000 0.92500  0.09390  0.81520  Biso   1.000  C
  C75      1.0000 0.57500  0.59390  0.68480  Biso   1.000  C
  C76      1.0000 0.42500  0.59390  0.81520  Biso   1.000  C
  C77      1.0000 0.92500  0.90610  0.31520  Biso   1.000  C
  C78      1.0000 0.07500  0.90610  0.18480  Biso   1.000  C
  C79      1.0000 0.42500  0.40610  0.31520  Biso   1.000  C
  C80      1.0000 0.57500  0.40610  0.18480  Biso   1.000  C
  H73      1.0000 0.11450  0.02610  0.68460  Biso   1.000  H
  H74      1.0000 0.88550  0.02610  0.81540  Biso   1.000  H
  H75      1.0000 0.61450  0.52610  0.68460  Biso   1.000  H
  H76      1.0000 0.38550  0.52610  0.81540  Biso   1.000  H
  H77      1.0000 0.88550  0.97390  0.31540  Biso   1.000  H
  H78      1.0000 0.11450  0.97390  0.18460  Biso   1.000  H
  H79      1.0000 0.38550  0.47390  0.31540  Biso   1.000  H
  H80      1.0000 0.61450  0.47390  0.18460  Biso   1.000  H
  H81      1.0000 0.11570  0.16150  0.68800  Biso   1.000  H
  H82      1.0000 0.88430  0.16150  0.81200  Biso   1.000  H
  H83      1.0000 0.61570  0.66150  0.68800  Biso   1.000  H
  H84      1.0000 0.38430  0.66150  0.81200  Biso   1.000  H
  H85      1.0000 0.88430  0.83850  0.31200  Biso   1.000  H
  H86      1.0000 0.11570  0.83850  0.18800  Biso   1.000  H
  H87      1.0000 0.38430  0.33850  0.31200  Biso   1.000  H
  H88      1.0000 0.61570  0.33850  0.18800  Biso   1.000  H
  C81      1.0000 0.04030  0.08950  0.74320  Biso   1.000  C
  C82      1.0000 0.95970  0.08950  0.75680  Biso   1.000  C
  C83      1.0000 0.54030  0.58950  0.74320  Biso   1.000  C
  C84      1.0000 0.45970  0.58950  0.75680  Biso   1.000  C
  C85      1.0000 0.95970  0.91050  0.25680  Biso   1.000  C
  C86      1.0000 0.04030  0.91050  0.24320  Biso   1.000  C
  C87      1.0000 0.45970  0.41050  0.25680  Biso   1.000  C
  C88      1.0000 0.54030  0.41050  0.24320  Biso   1.000  C
  H89      1.0000 0.07140  0.02050  0.76620  Biso   1.000  H
  H90      1.0000 0.92860  0.02050  0.73380  Biso   1.000  H
  H91      1.0000 0.57140  0.52050  0.76620  Biso   1.000  H
  H92      1.0000 0.42860  0.52050  0.73380  Biso   1.000  H
  H93      1.0000 0.92860  0.97950  0.23380  Biso   1.000  H
  H94      1.0000 0.07140  0.97950  0.26620  Biso   1.000  H
  H95      1.0000 0.42860  0.47950  0.23380  Biso   1.000  H
  H96      1.0000 0.57140  0.47950  0.26620  Biso   1.000  H
  H97      1.0000 0.07420  0.15340  0.77030  Biso   1.000  H
  H98      1.0000 0.92580  0.15340  0.72970  Biso   1.000  H
  H99      1.0000 0.57420  0.65340  0.77030  Biso   1.000  H
  H100     1.0000 0.42580  0.65340  0.72970  Biso   1.000  H
  H101     1.0000 0.92580  0.84660  0.22970  Biso   1.000  H
  H102     1.0000 0.07420  0.84660  0.27030  Biso   1.000  H
  H103     1.0000 0.42580  0.34660  0.22970  Biso   1.000  H
  H104     1.0000 0.57420  0.34660  0.27030  Biso   1.000  H
  C89      1.0000 0.72120  0.28570  0.69377  Biso   1.000  C
  C90      1.0000 0.27880  0.28570  0.80623  Biso   1.000  C
  C91      1.0000 0.22120  0.78570  0.69377  Biso   1.000  C
  C92      1.0000 0.77880  0.78570  0.80623  Biso   1.000  C
  C93      1.0000 0.27880  0.71430  0.30623  Biso   1.000  C
  C94      1.0000 0.72120  0.71430  0.19377  Biso   1.000  C
  C95      1.0000 0.77880  0.21430  0.30623  Biso   1.000  C
  C96      1.0000 0.22120  0.21430  0.19377  Biso   1.000  C
  C97      1.0000 0.67160  0.23790  0.73510  Biso   1.000  C
  C98      1.0000 0.32840  0.23790  0.76490  Biso   1.000  C
  C99      1.0000 0.17160  0.73790  0.73510  Biso   1.000  C
  C100     1.0000 0.82840  0.73790  0.76490  Biso   1.000  C
  C101     1.0000 0.32840  0.76210  0.26490  Biso   1.000  C
  C102     1.0000 0.67160  0.76210  0.23510  Biso   1.000  C
  C103     1.0000 0.82840  0.26210  0.26490  Biso   1.000  C
  C104     1.0000 0.17160  0.26210  0.23510  Biso   1.000  C
  H105     1.0000 0.63010  0.17620  0.71910  Biso   1.000  H
  H106     1.0000 0.36990  0.17620  0.78090  Biso   1.000  H
  H107     1.0000 0.13010  0.67620  0.71910  Biso   1.000  H
  H108     1.0000 0.86990  0.67620  0.78090  Biso   1.000  H
  H109     1.0000 0.36990  0.82380  0.28090  Biso   1.000  H
  H110     1.0000 0.63010  0.82380  0.21910  Biso   1.000  H
  H111     1.0000 0.86990  0.32380  0.28090  Biso   1.000  H
  H112     1.0000 0.13010  0.32380  0.21910  Biso   1.000  H
  C105     1.0000 0.68230  0.27950  0.79980  Biso   1.000  C
  C106     1.0000 0.31770  0.27950  0.70020  Biso   1.000  C
  C107     1.0000 0.18230  0.77950  0.79980  Biso   1.000  C
  C108     1.0000 0.81770  0.77950  0.70020  Biso   1.000  C
  C109     1.0000 0.31770  0.72050  0.20020  Biso   1.000  C
  C110     1.0000 0.68230  0.72050  0.29980  Biso   1.000  C
  C111     1.0000 0.81770  0.22050  0.20020  Biso   1.000  C
  C112     1.0000 0.18230  0.22050  0.29980  Biso   1.000  C
  H113     1.0000 0.64790  0.24550  0.82650  Biso   1.000  H
  H114     1.0000 0.35210  0.24550  0.67350  Biso   1.000  H
  H115     1.0000 0.14790  0.74550  0.82650  Biso   1.000  H
  H116     1.0000 0.85210  0.74550  0.67350  Biso   1.000  H
  H117     1.0000 0.35210  0.75450  0.17350  Biso   1.000  H
  H118     1.0000 0.64790  0.75450  0.32650  Biso   1.000  H
  H119     1.0000 0.85210  0.25450  0.17350  Biso   1.000  H
  H120     1.0000 0.14790  0.25450  0.32650  Biso   1.000  H
  C113     1.0000 0.74400  0.37170  0.82504  Biso   1.000  C
  C114     1.0000 0.25600  0.37170  0.67496  Biso   1.000  C
  C115     1.0000 0.24400  0.87170  0.82504  Biso   1.000  C
  C116     1.0000 0.75600  0.87170  0.67496  Biso   1.000  C
  C117     1.0000 0.25600  0.62830  0.17496  Biso   1.000  C
  C118     1.0000 0.74400  0.62830  0.32504  Biso   1.000  C
  C119     1.0000 0.75600  0.12830  0.17496  Biso   1.000  C
  C120     1.0000 0.24400  0.12830  0.32504  Biso   1.000  C
  C121     1.0000 0.79320  0.42100  0.78341  Biso   1.000  C
  C122     1.0000 0.20680  0.42100  0.71659  Biso   1.000  C
  C123     1.0000 0.29320  0.92100  0.78341  Biso   1.000  C
  C124     1.0000 0.70680  0.92100  0.71659  Biso   1.000  C
  C125     1.0000 0.20680  0.57900  0.21659  Biso   1.000  C
  C126     1.0000 0.79320  0.57900  0.28341  Biso   1.000  C
  C127     1.0000 0.70680  0.07900  0.21659  Biso   1.000  C
  C128     1.0000 0.29320  0.07900  0.28341  Biso   1.000  C
  H121     1.0000 0.83460  0.48290  0.79910  Biso   1.000  H
  H122     1.0000 0.16540  0.48290  0.70090  Biso   1.000  H
  H123     1.0000 0.33460  0.98290  0.79910  Biso   1.000  H
  H124     1.0000 0.66540  0.98290  0.70090  Biso   1.000  H
  H125     1.0000 0.16540  0.51710  0.20090  Biso   1.000  H
  H126     1.0000 0.83460  0.51710  0.29910  Biso   1.000  H
  H127     1.0000 0.66540  0.01710  0.20090  Biso   1.000  H
  H128     1.0000 0.33460  0.01710  0.29910  Biso   1.000  H
  C129     1.0000 0.78130  0.37930  0.71886  Biso   1.000  C
  C130     1.0000 0.21870  0.37930  0.78114  Biso   1.000  C
  C131     1.0000 0.28130  0.87930  0.71886  Biso   1.000  C
  C132     1.0000 0.71870  0.87930  0.78114  Biso   1.000  C
  C133     1.0000 0.21870  0.62070  0.28114  Biso   1.000  C
  C134     1.0000 0.78130  0.62070  0.21886  Biso   1.000  C
  C135     1.0000 0.71870  0.12070  0.28114  Biso   1.000  C
  C136     1.0000 0.28130  0.12070  0.21886  Biso   1.000  C
  H129     1.0000 0.81420  0.41460  0.69160  Biso   1.000  H
  H130     1.0000 0.18580  0.41460  0.80840  Biso   1.000  H
  H131     1.0000 0.31420  0.91460  0.69160  Biso   1.000  H
  H132     1.0000 0.68580  0.91460  0.80840  Biso   1.000  H
  H133     1.0000 0.18580  0.58540  0.30840  Biso   1.000  H
  H134     1.0000 0.81420  0.58540  0.19160  Biso   1.000  H
  H135     1.0000 0.68580  0.08540  0.30840  Biso   1.000  H
  H136     1.0000 0.31420  0.08540  0.19160  Biso   1.000  H
  C137     1.0000 0.71090  0.23940  0.62409  Biso   1.000  C
  C138     1.0000 0.28910  0.23940  0.87591  Biso   1.000  C
  C139     1.0000 0.21090  0.73940  0.62409  Biso   1.000  C
  C140     1.0000 0.78910  0.73940  0.87591  Biso   1.000  C
  C141     1.0000 0.28910  0.76060  0.37591  Biso   1.000  C
  C142     1.0000 0.71090  0.76060  0.12409  Biso   1.000  C
  C143     1.0000 0.78910  0.26060  0.37591  Biso   1.000  C
  C144     1.0000 0.21090  0.26060  0.12409  Biso   1.000  C
  N1       1.0000 0.99700  0.09850  0.62072  Biso   1.000  N
  N2       1.0000 0.00300  0.09850  0.87928  Biso   1.000  N
  N3       1.0000 0.49700  0.59850  0.62072  Biso   1.000  N
  N4       1.0000 0.50300  0.59850  0.87928  Biso   1.000  N
  N5       1.0000 0.00300  0.90150  0.37928  Biso   1.000  N
  N6       1.0000 0.99700  0.90150  0.12072  Biso   1.000  N
  N7       1.0000 0.50300  0.40150  0.37928  Biso   1.000  N
  N8       1.0000 0.49700  0.40150  0.12072  Biso   1.000  N
  N9       1.0000 0.87470  0.16410  0.53799  Biso   1.000  N
  N10      1.0000 0.12530  0.16410  0.96201  Biso   1.000  N
  N11      1.0000 0.37470  0.66410  0.53799  Biso   1.000  N
  N12      1.0000 0.62530  0.66410  0.96201  Biso   1.000  N
  N13      1.0000 0.12530  0.83590  0.46201  Biso   1.000  N
  N14      1.0000 0.87470  0.83590  0.03799  Biso   1.000  N
  N15      1.0000 0.62530  0.33590  0.46201  Biso   1.000  N
  N16      1.0000 0.37470  0.33590  0.03799  Biso   1.000  N
  O1       1.0000 0.66390  0.15090  0.60452  Biso   1.000  O
  O2       1.0000 0.33610  0.15090  0.89548  Biso   1.000  O
  O3       1.0000 0.16390  0.65090  0.60452  Biso   1.000  O
  O4       1.0000 0.83610  0.65090  0.89548  Biso   1.000  O
  O5       1.0000 0.33610  0.84910  0.39548  Biso   1.000  O
  O6       1.0000 0.66390  0.84910  0.10452  Biso   1.000  O
  O7       1.0000 0.83610  0.34910  0.39548  Biso   1.000  O
  O8       1.0000 0.16390  0.34910  0.10452  Biso   1.000  O
  O9       1.0000 0.75480  0.29820  0.58985  Biso   1.000  O
  O10      1.0000 0.24520  0.29820  0.91015  Biso   1.000  O
  O11      1.0000 0.25480  0.79820  0.58985  Biso   1.000  O
  O12      1.0000 0.74520  0.79820  0.91015  Biso   1.000  O
  O13      1.0000 0.24520  0.70180  0.41015  Biso   1.000  O
  O14      1.0000 0.75480  0.70180  0.08985  Biso   1.000  O
  O15      1.0000 0.74520  0.20180  0.41015  Biso   1.000  O
  O16      1.0000 0.25480  0.20180  0.08985  Biso   1.000  O
  N17      1.0000 0.75920  0.41120  0.88991  Biso   1.000  N
  N18      1.0000 0.24080  0.41120  0.61009  Biso   1.000  N
  N19      1.0000 0.25920  0.91120  0.88991  Biso   1.000  N
  N20      1.0000 0.74080  0.91120  0.61009  Biso   1.000  N
  N21      1.0000 0.24080  0.58880  0.11009  Biso   1.000  N
  N22      1.0000 0.75920  0.58880  0.38991  Biso   1.000  N
  N23      1.0000 0.74080  0.08880  0.11009  Biso   1.000  N
  N24      1.0000 0.25920  0.08880  0.38991  Biso   1.000  N
  H137     1.0000 0.71700  0.38800  0.91400  Biso   1.000  H
  H138     1.0000 0.28300  0.38800  0.58600  Biso   1.000  H
  H139     1.0000 0.21700  0.88800  0.91400  Biso   1.000  H
  H140     1.0000 0.78300  0.88800  0.58600  Biso   1.000  H
  H141     1.0000 0.28300  0.61200  0.08600  Biso   1.000  H
  H142     1.0000 0.71700  0.61200  0.41400  Biso   1.000  H
  H143     1.0000 0.78300  0.11200  0.08600  Biso   1.000  H
  H144     1.0000 0.21700  0.11200  0.41400  Biso   1.000  H
  H145     1.0000 0.77600  0.47600  0.89600  Biso   1.000  H
  H146     1.0000 0.22400  0.47600  0.60400  Biso   1.000  H
  H147     1.0000 0.27600  0.97600  0.89600  Biso   1.000  H
  H148     1.0000 0.72400  0.97600  0.60400  Biso   1.000  H
  H149     1.0000 0.22400  0.52400  0.10400  Biso   1.000  H
  H150     1.0000 0.77600  0.52400  0.39600  Biso   1.000  H
  H151     1.0000 0.72400  0.02400  0.10400  Biso   1.000  H
  H152     1.0000 0.27600  0.02400  0.39600  Biso   1.000  H
