data_image0
_cell_length_a       8.693
_cell_length_b       9.448
_cell_length_c       10.949
_cell_angle_alpha    82.35
_cell_angle_beta     87.79
_cell_angle_gamma    80.26

_symmetry_space_group_name_H-M    "P 1"
_symmetry_int_tables_number       1

loop_
  _symmetry_equiv_pos_as_xyz
  'x, y, z'

loop_
  _atom_site_label
  _atom_site_occupancy
  _atom_site_fract_x
  _atom_site_fract_y
  _atom_site_fract_z
  _atom_site_thermal_displace_type
  _atom_site_B_iso_or_equiv
  _atom_site_type_symbol
  Cu1      1.0000 0.50000  0.00000  0.50000  Biso   1.000  Cu
  C1       1.0000 0.30610  0.10860  0.67000  Biso   1.000  C
  C2       1.0000 0.69390  0.89140  0.33000  Biso   1.000  C
  C3       1.0000 0.23630  0.13650  0.79330  Biso   1.000  C
  C4       1.0000 0.76370  0.86350  0.20670  Biso   1.000  C
  C5       1.0000 0.30890  0.07360  0.90120  Biso   1.000  C
  C6       1.0000 0.69110  0.92640  0.09880  Biso   1.000  C
  H1       1.0000 0.40430  0.01230  0.89770  Biso   1.000  H
  H2       1.0000 0.59570  0.98770  0.10230  Biso   1.000  H
  C7       1.0000 0.24350  0.09950  0.01390  Biso   1.000  C
  C8       1.0000 0.75650  0.90050  0.98610  Biso   1.000  C
  H3       1.0000 0.29380  0.05480  0.08580  Biso   1.000  H
  H4       1.0000 0.70620  0.94520  0.91420  Biso   1.000  H
  C9       1.0000 0.10250  0.19210  0.02040  Biso   1.000  C
  C10      1.0000 0.89750  0.80790  0.97960  Biso   1.000  C
  C11      1.0000 0.02960  0.25830  0.91450  Biso   1.000  C
  C12      1.0000 0.97040  0.74170  0.08550  Biso   1.000  C
  H5       1.0000 0.93590  0.32190  0.91820  Biso   1.000  H
  H6       1.0000 0.06410  0.67810  0.08180  Biso   1.000  H
  C13      1.0000 0.09650  0.22970  0.80160  Biso   1.000  C
  C14      1.0000 0.90350  0.77030  0.19840  Biso   1.000  C
  H7       1.0000 0.04620  0.27430  0.72970  Biso   1.000  H
  H8       1.0000 0.95380  0.72570  0.27030  Biso   1.000  H
  C15      1.0000 0.89600  0.28870  0.14970  Biso   1.000  C
  C16      1.0000 0.10400  0.71130  0.85030  Biso   1.000  C
  H9       1.0000 0.87440  0.29720  0.23530  Biso   1.000  H
  H10      1.0000 0.12560  0.70280  0.76470  Biso   1.000  H
  H11      1.0000 0.82240  0.23720  0.11950  Biso   1.000  H
  H12      1.0000 0.17760  0.76280  0.88050  Biso   1.000  H
  H13      1.0000 0.88750  0.38360  0.10380  Biso   1.000  H
  H14      1.0000 0.11250  0.61640  0.89620  Biso   1.000  H
  C17      1.0000 0.39640  0.58660  0.63150  Biso   1.000  C
  C18      1.0000 0.60360  0.41340  0.36850  Biso   1.000  C
  C19      1.0000 0.41800  0.46500  0.72140  Biso   1.000  C
  C20      1.0000 0.58200  0.53500  0.27860  Biso   1.000  C
  H15      1.0000 0.37030  0.38500  0.71650  Biso   1.000  H
  H16      1.0000 0.62970  0.61500  0.28350  Biso   1.000  H
  C21      1.0000 0.51170  0.47040  0.81570  Biso   1.000  C
  C22      1.0000 0.48830  0.52960  0.18430  Biso   1.000  C
  H17      1.0000 0.52640  0.39290  0.87840  Biso   1.000  H
  H18      1.0000 0.47360  0.60710  0.12160  Biso   1.000  H
  C23      1.0000 0.58710  0.58790  0.82250  Biso   1.000  C
  C24      1.0000 0.41290  0.41210  0.17750  Biso   1.000  C
  H19      1.0000 0.65180  0.58590  0.88860  Biso   1.000  H
  H20      1.0000 0.34820  0.41410  0.11140  Biso   1.000  H
  C25      1.0000 0.56830  0.70730  0.73360  Biso   1.000  C
  C26      1.0000 0.43170  0.29270  0.26640  Biso   1.000  C
  H21      1.0000 0.61930  0.78540  0.73830  Biso   1.000  H
  H22      1.0000 0.38070  0.21460  0.26170  Biso   1.000  H
  C27      1.0000 0.47030  0.70620  0.63690  Biso   1.000  C
  C28      1.0000 0.52970  0.29380  0.36310  Biso   1.000  C
  C29      1.0000 0.33400  0.75120  0.46870  Biso   1.000  C
  C30      1.0000 0.66600  0.24880  0.53130  Biso   1.000  C
  C31      1.0000 0.26160  0.82490  0.35300  Biso   1.000  C
  C32      1.0000 0.73840  0.17510  0.64700  Biso   1.000  C
  H23      1.0000 0.22090  0.75500  0.31140  Biso   1.000  H
  H24      1.0000 0.77910  0.24500  0.68860  Biso   1.000  H
  H25      1.0000 0.34060  0.86310  0.29970  Biso   1.000  H
  H26      1.0000 0.65940  0.13690  0.70030  Biso   1.000  H
  C33      1.0000 0.13280  0.94520  0.37370  Biso   1.000  C
  C34      1.0000 0.86720  0.05480  0.62630  Biso   1.000  C
  H27      1.0000 0.08960  0.99030  0.29590  Biso   1.000  H
  H28      1.0000 0.91040  0.00970  0.70410  Biso   1.000  H
  H29      1.0000 0.17280  0.01550  0.41380  Biso   1.000  H
  H30      1.0000 0.82720  0.98450  0.58620  Biso   1.000  H
  H31      1.0000 0.05290  0.90760  0.42470  Biso   1.000  H
  H32      1.0000 0.94710  0.09240  0.57530  Biso   1.000  H
  C35      1.0000 0.21500  0.52410  0.47930  Biso   1.000  C
  C36      1.0000 0.78500  0.47590  0.52070  Biso   1.000  C
  H33      1.0000 0.26120  0.42410  0.50470  Biso   1.000  H
  H34      1.0000 0.73880  0.57590  0.49530  Biso   1.000  H
  H35      1.0000 0.21510  0.53960  0.38990  Biso   1.000  H
  H36      1.0000 0.78490  0.46040  0.61010  Biso   1.000  H
  C37      1.0000 0.04870  0.54900  0.52670  Biso   1.000  C
  C38      1.0000 0.95130  0.45100  0.47330  Biso   1.000  C
  H37      1.0000 0.00270  0.64960  0.50400  Biso   1.000  H
  H38      1.0000 0.99730  0.35040  0.49600  Biso   1.000  H
  H39      1.0000 0.04740  0.52910  0.61590  Biso   1.000  H
  H40      1.0000 0.95260  0.47090  0.38410  Biso   1.000  H
  N1       1.0000 0.31120  0.61930  0.52380  Biso   1.000  N
  N2       1.0000 0.68880  0.38070  0.47620  Biso   1.000  N
  N3       1.0000 0.42960  0.80820  0.53400  Biso   1.000  N
  N4       1.0000 0.57040  0.19180  0.46600  Biso   1.000  N
  O1       1.0000 0.43990  0.02900  0.67000  Biso   1.000  O
  O2       1.0000 0.56010  0.97100  0.33000  Biso   1.000  O
  O3       1.0000 0.23550  0.16230  0.57520  Biso   1.000  O
  O4       1.0000 0.76450  0.83770  0.42480  Biso   1.000  O
  O5       1.0000 0.04780  0.21300  0.13590  Biso   1.000  O
  O6       1.0000 0.95220  0.78700  0.86410  Biso   1.000  O
