data_image0
_cell_length_a       9.442
_cell_length_b       10.672
_cell_length_c       13.975
_cell_angle_alpha    90
_cell_angle_beta     96.764
_cell_angle_gamma    90

_symmetry_space_group_name_H-M    "P 1"
_symmetry_int_tables_number       1

loop_
  _symmetry_equiv_pos_as_xyz
  'x, y, z'

loop_
  _atom_site_label
  _atom_site_occupancy
  _atom_site_fract_x
  _atom_site_fract_y
  _atom_site_fract_z
  _atom_site_thermal_displace_type
  _atom_site_B_iso_or_equiv
  _atom_site_type_symbol
  Cu1      1.0000 0.50000  0.00000  0.00000  Biso   1.000  Cu
  Cu2      1.0000 0.50000  0.50000  0.50000  Biso   1.000  Cu
  C1       1.0000 0.78862  0.06025  0.93573  Biso   1.000  C
  C2       1.0000 0.21138  0.56025  0.56427  Biso   1.000  C
  C3       1.0000 0.21138  0.93975  0.06427  Biso   1.000  C
  C4       1.0000 0.78862  0.43975  0.43573  Biso   1.000  C
  C5       1.0000 0.90067  0.14621  0.94860  Biso   1.000  C
  C6       1.0000 0.09933  0.64621  0.55140  Biso   1.000  C
  C7       1.0000 0.09933  0.85379  0.05140  Biso   1.000  C
  C8       1.0000 0.90067  0.35379  0.44860  Biso   1.000  C
  C9       1.0000 0.02159  0.13511  0.90146  Biso   1.000  C
  C10      1.0000 0.97841  0.63511  0.59854  Biso   1.000  C
  C11      1.0000 0.97841  0.86489  0.09854  Biso   1.000  C
  C12      1.0000 0.02159  0.36489  0.40146  Biso   1.000  C
  H1       1.0000 0.09620  0.19230  0.91130  Biso   1.000  H
  H2       1.0000 0.90380  0.69230  0.58870  Biso   1.000  H
  H3       1.0000 0.90380  0.80770  0.08870  Biso   1.000  H
  H4       1.0000 0.09620  0.30770  0.41130  Biso   1.000  H
  C13      1.0000 0.02542  0.03529  0.83944  Biso   1.000  C
  C14      1.0000 0.97458  0.53529  0.66056  Biso   1.000  C
  C15      1.0000 0.97458  0.96471  0.16056  Biso   1.000  C
  C16      1.0000 0.02542  0.46471  0.33944  Biso   1.000  C
  H5       1.0000 0.10470  0.02460  0.80660  Biso   1.000  H
  H6       1.0000 0.89530  0.52460  0.69340  Biso   1.000  H
  H7       1.0000 0.89530  0.97540  0.19340  Biso   1.000  H
  H8       1.0000 0.10470  0.47540  0.30660  Biso   1.000  H
  C17      1.0000 0.91286  0.94954  0.82475  Biso   1.000  C
  C18      1.0000 0.08714  0.44954  0.67525  Biso   1.000  C
  C19      1.0000 0.08714  0.05046  0.17525  Biso   1.000  C
  C20      1.0000 0.91286  0.55046  0.32475  Biso   1.000  C
  H9       1.0000 0.91830  0.88390  0.78150  Biso   1.000  H
  H10      1.0000 0.08170  0.38390  0.71850  Biso   1.000  H
  H11      1.0000 0.08170  0.11610  0.21850  Biso   1.000  H
  H12      1.0000 0.91830  0.61610  0.28150  Biso   1.000  H
  C21      1.0000 0.79395  0.96008  0.87289  Biso   1.000  C
  C22      1.0000 0.20605  0.46008  0.62711  Biso   1.000  C
  C23      1.0000 0.20605  0.03992  0.12711  Biso   1.000  C
  C24      1.0000 0.79395  0.53992  0.37289  Biso   1.000  C
  H13      1.0000 0.72000  0.90220  0.86360  Biso   1.000  H
  H14      1.0000 0.28000  0.40220  0.63640  Biso   1.000  H
  H15      1.0000 0.28000  0.09780  0.13640  Biso   1.000  H
  H16      1.0000 0.72000  0.59780  0.36360  Biso   1.000  H
  C25      1.0000 0.94893  0.34104  0.05056  Biso   1.000  C
  C26      1.0000 0.05107  0.84104  0.44944  Biso   1.000  C
  C27      1.0000 0.05107  0.65896  0.94944  Biso   1.000  C
  C28      1.0000 0.94893  0.15896  0.55056  Biso   1.000  C
  H17      1.0000 0.04430  0.31210  0.07330  Biso   1.000  H
  H18      1.0000 0.95570  0.81210  0.42670  Biso   1.000  H
  H19      1.0000 0.95570  0.68790  0.92670  Biso   1.000  H
  H20      1.0000 0.04430  0.18790  0.57330  Biso   1.000  H
  H21      1.0000 0.90840  0.37620  0.10530  Biso   1.000  H
  H22      1.0000 0.09160  0.87620  0.39470  Biso   1.000  H
  H23      1.0000 0.09160  0.62380  0.89470  Biso   1.000  H
  H24      1.0000 0.90840  0.12380  0.60530  Biso   1.000  H
  C29      1.0000 0.95948  0.44360  0.97682  Biso   1.000  C
  C30      1.0000 0.04052  0.94360  0.52318  Biso   1.000  C
  C31      1.0000 0.04052  0.55640  0.02318  Biso   1.000  C
  C32      1.0000 0.95948  0.05640  0.47682  Biso   1.000  C
  H25      1.0000 0.86450  0.46930  0.95010  Biso   1.000  H
  H26      1.0000 0.13550  0.96930  0.54990  Biso   1.000  H
  H27      1.0000 0.13550  0.53070  0.04990  Biso   1.000  H
  H28      1.0000 0.86450  0.03070  0.45010  Biso   1.000  H
  H29      1.0000 0.00850  0.41180  0.92460  Biso   1.000  H
  H30      1.0000 0.99150  0.91180  0.57540  Biso   1.000  H
  H31      1.0000 0.99150  0.58820  0.07540  Biso   1.000  H
  H32      1.0000 0.00850  0.08820  0.42460  Biso   1.000  H
  C33      1.0000 0.65795  0.26709  0.11066  Biso   1.000  C
  C34      1.0000 0.34205  0.76709  0.38934  Biso   1.000  C
  C35      1.0000 0.34205  0.73291  0.88934  Biso   1.000  C
  C36      1.0000 0.65795  0.23291  0.61066  Biso   1.000  C
  H33      1.0000 0.55930  0.23970  0.10480  Biso   1.000  H
  H34      1.0000 0.44070  0.73970  0.39520  Biso   1.000  H
  H35      1.0000 0.44070  0.76030  0.89520  Biso   1.000  H
  H36      1.0000 0.55930  0.26030  0.60480  Biso   1.000  H
  H37      1.0000 0.65840  0.35570  0.09520  Biso   1.000  H
  H38      1.0000 0.34160  0.85570  0.40480  Biso   1.000  H
  H39      1.0000 0.34160  0.64430  0.90480  Biso   1.000  H
  H40      1.0000 0.65840  0.14430  0.59520  Biso   1.000  H
  C37      1.0000 0.72370  0.24920  0.21466  Biso   1.000  C
  C38      1.0000 0.27630  0.74920  0.28534  Biso   1.000  C
  C39      1.0000 0.27630  0.75080  0.78534  Biso   1.000  C
  C40      1.0000 0.72370  0.25080  0.71466  Biso   1.000  C
  H41      1.0000 0.67030  0.29650  0.25660  Biso   1.000  H
  H42      1.0000 0.32970  0.79650  0.24340  Biso   1.000  H
  H43      1.0000 0.32970  0.70350  0.74340  Biso   1.000  H
  H44      1.0000 0.67030  0.20350  0.75660  Biso   1.000  H
  H45      1.0000 0.82070  0.27800  0.22160  Biso   1.000  H
  H46      1.0000 0.17930  0.77800  0.27840  Biso   1.000  H
  H47      1.0000 0.17930  0.72200  0.77840  Biso   1.000  H
  H48      1.0000 0.82070  0.22200  0.72160  Biso   1.000  H
  H49      1.0000 0.72140  0.16200  0.23120  Biso   1.000  H
  H50      1.0000 0.27860  0.66200  0.26880  Biso   1.000  H
  H51      1.0000 0.27860  0.83800  0.76880  Biso   1.000  H
  H52      1.0000 0.72140  0.33800  0.73120  Biso   1.000  H
  C41      1.0000 0.33930  0.20900  0.77004  Biso   1.000  C
  C42      1.0000 0.66070  0.70900  0.72996  Biso   1.000  C
  C43      1.0000 0.66070  0.79100  0.22996  Biso   1.000  C
  C44      1.0000 0.33930  0.29100  0.27004  Biso   1.000  C
  H53      1.0000 0.30070  0.27810  0.80250  Biso   1.000  H
  H54      1.0000 0.69930  0.77810  0.69750  Biso   1.000  H
  H55      1.0000 0.69930  0.72190  0.19750  Biso   1.000  H
  H56      1.0000 0.30070  0.22190  0.30250  Biso   1.000  H
  H57      1.0000 0.26490  0.17050  0.72720  Biso   1.000  H
  H58      1.0000 0.73510  0.67050  0.77280  Biso   1.000  H
  H59      1.0000 0.73510  0.82950  0.27280  Biso   1.000  H
  H60      1.0000 0.26490  0.32950  0.22720  Biso   1.000  H
  H61      1.0000 0.41270  0.23880  0.73380  Biso   1.000  H
  H62      1.0000 0.58730  0.73880  0.76620  Biso   1.000  H
  H63      1.0000 0.58730  0.76120  0.26620  Biso   1.000  H
  H64      1.0000 0.41270  0.26120  0.23380  Biso   1.000  H
  C45      1.0000 0.40128  0.11438  0.84310  Biso   1.000  C
  C46      1.0000 0.59872  0.61438  0.65690  Biso   1.000  C
  C47      1.0000 0.59872  0.88562  0.15690  Biso   1.000  C
  C48      1.0000 0.40128  0.38562  0.34310  Biso   1.000  C
  C49      1.0000 0.73315  0.19764  0.03935  Biso   1.000  C
  C50      1.0000 0.26685  0.69764  0.46065  Biso   1.000  C
  C51      1.0000 0.26685  0.80236  0.96065  Biso   1.000  C
  C52      1.0000 0.73315  0.30236  0.53935  Biso   1.000  C
  N1       1.0000 0.68526  0.09440  0.99370  Biso   1.000  N
  N2       1.0000 0.31474  0.59440  0.50630  Biso   1.000  N
  N3       1.0000 0.31474  0.90560  0.00630  Biso   1.000  N
  N4       1.0000 0.68526  0.40560  0.49370  Biso   1.000  N
  N5       1.0000 0.86229  0.23285  0.01432  Biso   1.000  N
  N6       1.0000 0.13771  0.73285  0.48568  Biso   1.000  N
  N7       1.0000 0.13771  0.76715  0.98568  Biso   1.000  N
  N8       1.0000 0.86229  0.26715  0.51432  Biso   1.000  N
  O1       1.0000 0.39519  0.13967  0.93175  Biso   1.000  O
  O2       1.0000 0.60481  0.63967  0.56825  Biso   1.000  O
  O3       1.0000 0.60481  0.86033  0.06825  Biso   1.000  O
  O4       1.0000 0.39519  0.36033  0.43175  Biso   1.000  O
  O5       1.0000 0.45717  0.01698  0.81736  Biso   1.000  O
  O6       1.0000 0.54283  0.51698  0.68264  Biso   1.000  O
  O7       1.0000 0.54283  0.98302  0.18264  Biso   1.000  O
  O8       1.0000 0.45717  0.48302  0.31736  Biso   1.000  O
  O9       1.0000 0.32040  0.38701  0.96594  Biso   1.000  O
  O10      1.0000 0.67960  0.88701  0.53406  Biso   1.000  O
  O11      1.0000 0.67960  0.61299  0.03406  Biso   1.000  O
  O12      1.0000 0.32040  0.11299  0.46594  Biso   1.000  O
  O13      1.0000 0.43380  0.53190  0.11969  Biso   1.000  O
  O14      1.0000 0.56620  0.03190  0.38031  Biso   1.000  O
  O15      1.0000 0.56620  0.46810  0.88031  Biso   1.000  O
  O16      1.0000 0.43380  0.96810  0.61969  Biso   1.000  O
  H65      1.0000 0.34500  0.31000  0.96600  Biso   1.000  H
  H66      1.0000 0.65500  0.81000  0.53400  Biso   1.000  H
  H67      1.0000 0.65500  0.69000  0.03400  Biso   1.000  H
  H68      1.0000 0.34500  0.19000  0.46600  Biso   1.000  H
  H69      1.0000 0.34700  0.41900  0.01600  Biso   1.000  H
  H70      1.0000 0.65300  0.91900  0.48400  Biso   1.000  H
  H71      1.0000 0.65300  0.58100  0.98400  Biso   1.000  H
  H72      1.0000 0.34700  0.08100  0.51600  Biso   1.000  H
  H73      1.0000 0.44500  0.51300  0.17600  Biso   1.000  H
  H74      1.0000 0.55500  0.01300  0.32400  Biso   1.000  H
  H75      1.0000 0.55500  0.48700  0.82400  Biso   1.000  H
  H76      1.0000 0.44500  0.98700  0.67600  Biso   1.000  H
  H77      1.0000 0.51300  0.54700  0.10700  Biso   1.000  H
  H78      1.0000 0.48700  0.04700  0.39300  Biso   1.000  H
  H79      1.0000 0.48700  0.45300  0.89300  Biso   1.000  H
  H80      1.0000 0.51300  0.95300  0.60700  Biso   1.000  H
