data_image0
_cell_length_a       8.46
_cell_length_b       9.355
_cell_length_c       10.78
_cell_angle_alpha    76.963
_cell_angle_beta     85.67
_cell_angle_gamma    78.324

_symmetry_space_group_name_H-M    "P 1"
_symmetry_int_tables_number       1

loop_
  _symmetry_equiv_pos_as_xyz
  'x, y, z'

loop_
  _atom_site_label
  _atom_site_occupancy
  _atom_site_fract_x
  _atom_site_fract_y
  _atom_site_fract_z
  _atom_site_thermal_displace_type
  _atom_site_B_iso_or_equiv
  _atom_site_type_symbol
  Cu1      1.0000 0.50000  0.00000  0.00000  Biso   1.000  Cu
  C1       1.0000 0.70330  0.90870  0.82210  Biso   1.000  C
  C2       1.0000 0.29670  0.09130  0.17790  Biso   1.000  C
  C3       1.0000 0.77020  0.88920  0.69320  Biso   1.000  C
  C4       1.0000 0.22980  0.11080  0.30680  Biso   1.000  C
  C5       1.0000 0.91640  0.79750  0.67890  Biso   1.000  C
  C6       1.0000 0.08360  0.20250  0.32110  Biso   1.000  C
  H1       1.0000 0.97590  0.74970  0.75080  Biso   1.000  H
  H2       1.0000 0.02410  0.25030  0.24920  Biso   1.000  H
  C7       1.0000 0.97770  0.77420  0.56100  Biso   1.000  C
  C8       1.0000 0.02230  0.22580  0.43900  Biso   1.000  C
  H3       1.0000 0.07620  0.71060  0.55410  Biso   1.000  H
  H4       1.0000 0.92380  0.28940  0.44590  Biso   1.000  H
  C9       1.0000 0.89150  0.84610  0.45430  Biso   1.000  C
  C10      1.0000 0.10850  0.15390  0.54570  Biso   1.000  C
  C11      1.0000 0.74500  0.93940  0.46720  Biso   1.000  C
  C12      1.0000 0.25500  0.06060  0.53280  Biso   1.000  C
  H5       1.0000 0.68550  0.98800  0.39550  Biso   1.000  H
  H6       1.0000 0.31450  0.01200  0.60450  Biso   1.000  H
  C13      1.0000 0.68710  0.96040  0.58450  Biso   1.000  C
  C14      1.0000 0.31290  0.03960  0.41550  Biso   1.000  C
  H7       1.0000 0.58890  0.02460  0.59130  Biso   1.000  H
  H8       1.0000 0.41110  0.97540  0.40870  Biso   1.000  H
  C15      1.0000 0.08910  0.74510  0.31170  Biso   1.000  C
  C16      1.0000 0.91090  0.25490  0.68830  Biso   1.000  C
  H9       1.0000 0.10500  0.74490  0.22260  Biso   1.000  H
  H10      1.0000 0.89500  0.25510  0.77740  Biso   1.000  H
  H11      1.0000 0.09360  0.64460  0.35950  Biso   1.000  H
  H12      1.0000 0.90640  0.35540  0.64050  Biso   1.000  H
  H13      1.0000 0.17230  0.78650  0.33870  Biso   1.000  H
  H14      1.0000 0.82770  0.21350  0.66130  Biso   1.000  H
  C17      1.0000 0.22970  0.85160  0.88090  Biso   1.000  C
  C18      1.0000 0.77030  0.14840  0.11910  Biso   1.000  C
  H15      1.0000 0.16420  0.79340  0.85240  Biso   1.000  H
  H16      1.0000 0.83580  0.20660  0.14760  Biso   1.000  H
  H17      1.0000 0.30270  0.88520  0.81310  Biso   1.000  H
  H18      1.0000 0.69730  0.11480  0.18690  Biso   1.000  H
  H19      1.0000 0.16170  0.93650  0.90580  Biso   1.000  H
  H20      1.0000 0.83830  0.06350  0.09420  Biso   1.000  H
  C19      1.0000 0.32270  0.75920  0.99070  Biso   1.000  C
  C20      1.0000 0.67730  0.24080  0.00930  Biso   1.000  C
  C21      1.0000 0.40730  0.56880  0.14860  Biso   1.000  C
  C22      1.0000 0.59270  0.43120  0.85140  Biso   1.000  C
  C23      1.0000 0.47840  0.68970  0.15320  Biso   1.000  C
  C24      1.0000 0.52160  0.31030  0.84680  Biso   1.000  C
  C25      1.0000 0.58550  0.67900  0.24740  Biso   1.000  C
  C26      1.0000 0.41450  0.32100  0.75260  Biso   1.000  C
  H21      1.0000 0.63580  0.75810  0.24950  Biso   1.000  H
  H22      1.0000 0.36420  0.24190  0.75050  Biso   1.000  H
  C27      1.0000 0.61520  0.54680  0.33820  Biso   1.000  C
  C28      1.0000 0.38480  0.45320  0.66180  Biso   1.000  C
  H23      1.0000 0.68410  0.53770  0.40400  Biso   1.000  H
  H24      1.0000 0.31590  0.46230  0.59600  Biso   1.000  H
  C29      1.0000 0.54360  0.42760  0.33240  Biso   1.000  C
  C30      1.0000 0.45640  0.57240  0.66760  Biso   1.000  C
  H25      1.0000 0.56710  0.33980  0.39420  Biso   1.000  H
  H26      1.0000 0.43290  0.66020  0.60580  Biso   1.000  H
  C31      1.0000 0.43820  0.43470  0.23780  Biso   1.000  C
  C32      1.0000 0.56180  0.56530  0.76220  Biso   1.000  C
  H27      1.0000 0.39100  0.35430  0.23430  Biso   1.000  H
  H28      1.0000 0.60900  0.64570  0.76570  Biso   1.000  H
  C33      1.0000 0.22020  0.52450  0.99330  Biso   1.000  C
  C34      1.0000 0.77980  0.47550  0.00670  Biso   1.000  C
  H29      1.0000 0.26920  0.42000  0.02160  Biso   1.000  H
  H30      1.0000 0.73080  0.58000  0.97840  Biso   1.000  H
  H31      1.0000 0.22970  0.54900  0.90100  Biso   1.000  H
  H32      1.0000 0.77030  0.45100  0.09900  Biso   1.000  H
  C35      1.0000 0.04260  0.54570  0.03300  Biso   1.000  C
  C36      1.0000 0.95740  0.45430  0.96700  Biso   1.000  C
  H33      1.0000 0.99330  0.65070  0.00950  Biso   1.000  H
  H34      1.0000 0.00670  0.34930  0.99050  Biso   1.000  H
  H35      1.0000 0.03110  0.51330  0.12470  Biso   1.000  H
  H36      1.0000 0.96890  0.48670  0.87530  Biso   1.000  H
  N1       1.0000 0.42540  0.80580  0.05190  Biso   1.000  N
  N2       1.0000 0.57460  0.19420  0.94810  Biso   1.000  N
  N3       1.0000 0.31010  0.61570  0.04430  Biso   1.000  N
  N4       1.0000 0.68990  0.38430  0.95570  Biso   1.000  N
  O1       1.0000 0.55370  0.97080  0.82660  Biso   1.000  O
  O2       1.0000 0.44630  0.02920  0.17340  Biso   1.000  O
  O3       1.0000 0.78760  0.86890  0.91500  Biso   1.000  O
  O4       1.0000 0.21240  0.13110  0.08500  Biso   1.000  O
  O5       1.0000 0.93710  0.83230  0.33270  Biso   1.000  O
  O6       1.0000 0.06290  0.16770  0.66730  Biso   1.000  O
