data_image0
_cell_length_a       11.2835
_cell_length_b       22.3634
_cell_length_c       27.3143
_cell_angle_alpha    90
_cell_angle_beta     99.148
_cell_angle_gamma    90

_symmetry_space_group_name_H-M    "P 1"
_symmetry_int_tables_number       1

loop_
  _symmetry_equiv_pos_as_xyz
  'x, y, z'

loop_
  _atom_site_label
  _atom_site_occupancy
  _atom_site_fract_x
  _atom_site_fract_y
  _atom_site_fract_z
  _atom_site_thermal_displace_type
  _atom_site_B_iso_or_equiv
  _atom_site_type_symbol
  Eu1      1.0000 0.11771  0.49324  0.23014  Biso   1.000  Eu
  Eu2      1.0000 0.88229  0.99324  0.26986  Biso   1.000  Eu
  Eu3      1.0000 0.88229  0.50676  0.76986  Biso   1.000  Eu
  Eu4      1.0000 0.11771  0.00676  0.73014  Biso   1.000  Eu
  O1       1.0000 0.10460  0.39260  0.27570  Biso   1.000  O
  O2       1.0000 0.89540  0.89260  0.22430  Biso   1.000  O
  O3       1.0000 0.89540  0.60740  0.72430  Biso   1.000  O
  O4       1.0000 0.10460  0.10740  0.77570  Biso   1.000  O
  O5       1.0000 0.93870  0.42130  0.22780  Biso   1.000  O
  O6       1.0000 0.06130  0.92130  0.27220  Biso   1.000  O
  O7       1.0000 0.06130  0.57870  0.77220  Biso   1.000  O
  O8       1.0000 0.93870  0.07870  0.72780  Biso   1.000  O
  O9       1.0000 0.28210  0.43510  0.21420  Biso   1.000  O
  O10      1.0000 0.71790  0.93510  0.28580  Biso   1.000  O
  O11      1.0000 0.71790  0.56490  0.78580  Biso   1.000  O
  O12      1.0000 0.28210  0.06490  0.71420  Biso   1.000  O
  O13      1.0000 0.27930  0.50000  0.30080  Biso   1.000  O
  O14      1.0000 0.72070  0.00000  0.19920  Biso   1.000  O
  O15      1.0000 0.72070  0.50000  0.69920  Biso   1.000  O
  O16      1.0000 0.27930  0.00000  0.80080  Biso   1.000  O
  O17      1.0000 0.21320  0.58990  0.27740  Biso   1.000  O
  O18      1.0000 0.78680  0.08990  0.22260  Biso   1.000  O
  O19      1.0000 0.78680  0.41010  0.72260  Biso   1.000  O
  O20      1.0000 0.21320  0.91010  0.77740  Biso   1.000  O
  O21      1.0000 0.96800  0.55900  0.19280  Biso   1.000  O
  O22      1.0000 0.03200  0.05900  0.30720  Biso   1.000  O
  O23      1.0000 0.03200  0.44100  0.80720  Biso   1.000  O
  O24      1.0000 0.96800  0.94100  0.69280  Biso   1.000  O
  O25      1.0000 0.01380  0.52090  0.29730  Biso   1.000  O
  O26      1.0000 0.98620  0.02090  0.20270  Biso   1.000  O
  O27      1.0000 0.98620  0.47910  0.70270  Biso   1.000  O
  O28      1.0000 0.01380  0.97910  0.79730  Biso   1.000  O
  O29      1.0000 0.06440  0.44830  0.14860  Biso   1.000  O
  O30      1.0000 0.93560  0.94830  0.35140  Biso   1.000  O
  O31      1.0000 0.93560  0.55170  0.85140  Biso   1.000  O
  O32      1.0000 0.06440  0.05170  0.64860  Biso   1.000  O
  O33      1.0000 0.22090  0.55900  0.17880  Biso   1.000  O
  O34      1.0000 0.77910  0.05900  0.32120  Biso   1.000  O
  O35      1.0000 0.77910  0.44100  0.82120  Biso   1.000  O
  O36      1.0000 0.22090  0.94100  0.67880  Biso   1.000  O
  C1       1.0000 0.99560  0.38390  0.25650  Biso   1.000  C
  C2       1.0000 0.00440  0.88390  0.24350  Biso   1.000  C
  C3       1.0000 0.00440  0.61610  0.74350  Biso   1.000  C
  C4       1.0000 0.99560  0.11610  0.75650  Biso   1.000  C
  C5       1.0000 0.36360  0.41250  0.19500  Biso   1.000  C
  C6       1.0000 0.63640  0.91250  0.30500  Biso   1.000  C
  C7       1.0000 0.63640  0.58750  0.80500  Biso   1.000  C
  C8       1.0000 0.36360  0.08750  0.69500  Biso   1.000  C
  C9       1.0000 0.28000  0.55730  0.30610  Biso   1.000  C
  C10      1.0000 0.72000  0.05730  0.19390  Biso   1.000  C
  C11      1.0000 0.72000  0.44270  0.69390  Biso   1.000  C
  C12      1.0000 0.28000  0.94270  0.80610  Biso   1.000  C
  C13      1.0000 0.86440  0.57760  0.19510  Biso   1.000  C
  C14      1.0000 0.13560  0.07760  0.30490  Biso   1.000  C
  C15      1.0000 0.13560  0.42240  0.80490  Biso   1.000  C
  C16      1.0000 0.86440  0.92240  0.69510  Biso   1.000  C
  H1       1.0000 0.04650  0.55190  0.31180  Biso   1.000  H
  H2       1.0000 0.95350  0.05190  0.18820  Biso   1.000  H
  H3       1.0000 0.95350  0.44810  0.68820  Biso   1.000  H
  H4       1.0000 0.04650  0.94810  0.81180  Biso   1.000  H
  H5       1.0000 0.01770  0.49220  0.31810  Biso   1.000  H
  H6       1.0000 0.98230  0.99220  0.18190  Biso   1.000  H
  H7       1.0000 0.98230  0.50780  0.68190  Biso   1.000  H
  H8       1.0000 0.01770  0.00780  0.81810  Biso   1.000  H
  H9       1.0000 0.98820  0.45080  0.13930  Biso   1.000  H
  H10      1.0000 0.01180  0.95080  0.36070  Biso   1.000  H
  H11      1.0000 0.01180  0.54920  0.86070  Biso   1.000  H
  H12      1.0000 0.98820  0.04920  0.63930  Biso   1.000  H
  H13      1.0000 0.08490  0.41130  0.14990  Biso   1.000  H
  H14      1.0000 0.91510  0.91130  0.35010  Biso   1.000  H
  H15      1.0000 0.91510  0.58870  0.85010  Biso   1.000  H
  H16      1.0000 0.08490  0.08870  0.64990  Biso   1.000  H
  H17      1.0000 0.17410  0.58790  0.16750  Biso   1.000  H
  H18      1.0000 0.82590  0.08790  0.33250  Biso   1.000  H
  H19      1.0000 0.82590  0.41210  0.83250  Biso   1.000  H
  H20      1.0000 0.17410  0.91210  0.66750  Biso   1.000  H
  H21      1.0000 0.24020  0.53920  0.15430  Biso   1.000  H
  H22      1.0000 0.75980  0.03920  0.34570  Biso   1.000  H
  H23      1.0000 0.75980  0.46080  0.84570  Biso   1.000  H
  H24      1.0000 0.24020  0.96080  0.65430  Biso   1.000  H
  C17      1.0000 0.93950  0.32470  0.26850  Biso   1.000  C
  C18      1.0000 0.06050  0.82470  0.23150  Biso   1.000  C
  C19      1.0000 0.06050  0.67530  0.73150  Biso   1.000  C
  C20      1.0000 0.93950  0.17530  0.76850  Biso   1.000  C
  C21      1.0000 0.34050  0.35120  0.16910  Biso   1.000  C
  C22      1.0000 0.65950  0.85120  0.33090  Biso   1.000  C
  C23      1.0000 0.65950  0.64880  0.83090  Biso   1.000  C
  C24      1.0000 0.34050  0.14880  0.66910  Biso   1.000  C
  O37      1.0000 0.46800  0.43350  0.19610  Biso   1.000  O
  O38      1.0000 0.53200  0.93350  0.30390  Biso   1.000  O
  O39      1.0000 0.53200  0.56650  0.80390  Biso   1.000  O
  O40      1.0000 0.46800  0.06650  0.69610  Biso   1.000  O
  C25      1.0000 0.36110  0.58090  0.35100  Biso   1.000  C
  C26      1.0000 0.63890  0.08090  0.14900  Biso   1.000  C
  C27      1.0000 0.63890  0.41910  0.64900  Biso   1.000  C
  C28      1.0000 0.36110  0.91910  0.85100  Biso   1.000  C
  C29      1.0000 0.83050  0.63840  0.17120  Biso   1.000  C
  C30      1.0000 0.16950  0.13840  0.32880  Biso   1.000  C
  C31      1.0000 0.16950  0.36160  0.82880  Biso   1.000  C
  C32      1.0000 0.83050  0.86160  0.67120  Biso   1.000  C
  O41      1.0000 0.78780  0.55290  0.21670  Biso   1.000  O
  O42      1.0000 0.21220  0.05290  0.28330  Biso   1.000  O
  O43      1.0000 0.21220  0.44710  0.78330  Biso   1.000  O
  O44      1.0000 0.78780  0.94710  0.71670  Biso   1.000  O
  C33      1.0000 0.91570  0.31180  0.31580  Biso   1.000  C
  C34      1.0000 0.08430  0.81180  0.18420  Biso   1.000  C
  C35      1.0000 0.08430  0.68820  0.68420  Biso   1.000  C
  C36      1.0000 0.91570  0.18820  0.81580  Biso   1.000  C
  C37      1.0000 0.92470  0.27910  0.23300  Biso   1.000  C
  C38      1.0000 0.07530  0.77910  0.26700  Biso   1.000  C
  C39      1.0000 0.07530  0.72090  0.76700  Biso   1.000  C
  C40      1.0000 0.92470  0.22090  0.73300  Biso   1.000  C
  C41      1.0000 0.26790  0.31140  0.19050  Biso   1.000  C
  C42      1.0000 0.73210  0.81140  0.30950  Biso   1.000  C
  C43      1.0000 0.73210  0.68860  0.80950  Biso   1.000  C
  C44      1.0000 0.26790  0.18860  0.69050  Biso   1.000  C
  C45      1.0000 0.39770  0.33230  0.13160  Biso   1.000  C
  C46      1.0000 0.60230  0.83230  0.36840  Biso   1.000  C
  C47      1.0000 0.60230  0.66770  0.86840  Biso   1.000  C
  C48      1.0000 0.39770  0.16770  0.63160  Biso   1.000  C
  Eu5      1.0000 0.62044  0.49719  0.23312  Biso   1.000  Eu
  Eu6      1.0000 0.37956  0.99719  0.26688  Biso   1.000  Eu
  Eu7      1.0000 0.37956  0.50281  0.76688  Biso   1.000  Eu
  Eu8      1.0000 0.62044  0.00281  0.73312  Biso   1.000  Eu
  C49      1.0000 0.38070  0.54560  0.39310  Biso   1.000  C
  C50      1.0000 0.61930  0.04560  0.10690  Biso   1.000  C
  C51      1.0000 0.61930  0.45440  0.60690  Biso   1.000  C
  C52      1.0000 0.38070  0.95440  0.89310  Biso   1.000  C
  C53      1.0000 0.40580  0.63950  0.35450  Biso   1.000  C
  C54      1.0000 0.59420  0.13950  0.14550  Biso   1.000  C
  C55      1.0000 0.59420  0.36050  0.64550  Biso   1.000  C
  C56      1.0000 0.40580  0.86050  0.85450  Biso   1.000  C
  C57      1.0000 0.75550  0.67570  0.19330  Biso   1.000  C
  C58      1.0000 0.24450  0.17570  0.30670  Biso   1.000  C
  C59      1.0000 0.24450  0.32430  0.80670  Biso   1.000  C
  C60      1.0000 0.75550  0.82430  0.69330  Biso   1.000  C
  C61      1.0000 0.87770  0.65910  0.13060  Biso   1.000  C
  C62      1.0000 0.12230  0.15910  0.36940  Biso   1.000  C
  C63      1.0000 0.12230  0.34090  0.86940  Biso   1.000  C
  C64      1.0000 0.87770  0.84090  0.63060  Biso   1.000  C
  C65      1.0000 0.92410  0.35560  0.35620  Biso   1.000  C
  C66      1.0000 0.07590  0.85560  0.14380  Biso   1.000  C
  C67      1.0000 0.07590  0.64440  0.64380  Biso   1.000  C
  C68      1.0000 0.92410  0.14440  0.85620  Biso   1.000  C
  N1       1.0000 0.89950  0.25470  0.33080  Biso   1.000  N
  N2       1.0000 0.10050  0.75470  0.16920  Biso   1.000  N
  N3       1.0000 0.10050  0.74530  0.66920  Biso   1.000  N
  N4       1.0000 0.89950  0.24530  0.83080  Biso   1.000  N
  C69      1.0000 0.89660  0.22170  0.24700  Biso   1.000  C
  C70      1.0000 0.10340  0.72170  0.25300  Biso   1.000  C
  C71      1.0000 0.10340  0.77830  0.75300  Biso   1.000  C
  C72      1.0000 0.89660  0.27830  0.74700  Biso   1.000  C
  H25      1.0000 0.93370  0.28710  0.20040  Biso   1.000  H
  H26      1.0000 0.06630  0.78710  0.29960  Biso   1.000  H
  H27      1.0000 0.06630  0.71290  0.79960  Biso   1.000  H
  H28      1.0000 0.93370  0.21290  0.70040  Biso   1.000  H
  H29      1.0000 0.22390  0.32440  0.21460  Biso   1.000  H
  H30      1.0000 0.77610  0.82440  0.28540  Biso   1.000  H
  H31      1.0000 0.77610  0.67560  0.78540  Biso   1.000  H
  H32      1.0000 0.22390  0.17560  0.71460  Biso   1.000  H
  C73      1.0000 0.26300  0.25310  0.17540  Biso   1.000  C
  C74      1.0000 0.73700  0.75310  0.32460  Biso   1.000  C
  C75      1.0000 0.73700  0.74690  0.82460  Biso   1.000  C
  C76      1.0000 0.26300  0.24690  0.67540  Biso   1.000  C
  C77      1.0000 0.46680  0.36930  0.09960  Biso   1.000  C
  C78      1.0000 0.53320  0.86930  0.40040  Biso   1.000  C
  C79      1.0000 0.53320  0.63070  0.90040  Biso   1.000  C
  C80      1.0000 0.46680  0.13070  0.59960  Biso   1.000  C
  N5       1.0000 0.39860  0.27320  0.11970  Biso   1.000  N
  N6       1.0000 0.60140  0.77320  0.38030  Biso   1.000  N
  N7       1.0000 0.60140  0.72680  0.88030  Biso   1.000  N
  N8       1.0000 0.39860  0.22680  0.61970  Biso   1.000  N
  O45      1.0000 0.44170  0.56600  0.23190  Biso   1.000  O
  O46      1.0000 0.55830  0.06600  0.26810  Biso   1.000  O
  O47      1.0000 0.55830  0.43400  0.76810  Biso   1.000  O
  O48      1.0000 0.44170  0.93400  0.73190  Biso   1.000  O
  O49      1.0000 0.60770  0.59570  0.28010  Biso   1.000  O
  O50      1.0000 0.39230  0.09570  0.21990  Biso   1.000  O
  O51      1.0000 0.39230  0.40430  0.71990  Biso   1.000  O
  O52      1.0000 0.60770  0.90430  0.78010  Biso   1.000  O
  H33      1.0000 0.35320  0.50630  0.39140  Biso   1.000  H
  H34      1.0000 0.64680  0.00630  0.10860  Biso   1.000  H
  H35      1.0000 0.64680  0.49370  0.60860  Biso   1.000  H
  H36      1.0000 0.35320  0.99370  0.89140  Biso   1.000  H
  C81      1.0000 0.43960  0.56720  0.43710  Biso   1.000  C
  C82      1.0000 0.56040  0.06720  0.06290  Biso   1.000  C
  C83      1.0000 0.56040  0.43280  0.56290  Biso   1.000  C
  C84      1.0000 0.43960  0.93280  0.93710  Biso   1.000  C
  C85      1.0000 0.40830  0.68130  0.31120  Biso   1.000  C
  C86      1.0000 0.59170  0.18130  0.18880  Biso   1.000  C
  C87      1.0000 0.59170  0.31870  0.68880  Biso   1.000  C
  C88      1.0000 0.40830  0.81870  0.81120  Biso   1.000  C
  N9       1.0000 0.45750  0.66140  0.39960  Biso   1.000  N
  N10      1.0000 0.54250  0.16140  0.10040  Biso   1.000  N
  N11      1.0000 0.54250  0.33860  0.60040  Biso   1.000  N
  N12      1.0000 0.45750  0.83860  0.89960  Biso   1.000  N
  H37      1.0000 0.71960  0.66180  0.21950  Biso   1.000  H
  H38      1.0000 0.28040  0.16180  0.28050  Biso   1.000  H
  H39      1.0000 0.28040  0.33820  0.78050  Biso   1.000  H
  H40      1.0000 0.71960  0.83820  0.71950  Biso   1.000  H
  C89      1.0000 0.73460  0.73360  0.17580  Biso   1.000  C
  C90      1.0000 0.26540  0.23360  0.32420  Biso   1.000  C
  C91      1.0000 0.26540  0.26640  0.82420  Biso   1.000  C
  C92      1.0000 0.73460  0.76640  0.67580  Biso   1.000  C
  C93      1.0000 0.95530  0.62420  0.10110  Biso   1.000  C
  C94      1.0000 0.04470  0.12420  0.39890  Biso   1.000  C
  C95      1.0000 0.04470  0.37580  0.89890  Biso   1.000  C
  C96      1.0000 0.95530  0.87580  0.60110  Biso   1.000  C
  N13      1.0000 0.86190  0.71650  0.11430  Biso   1.000  N
  N14      1.0000 0.13810  0.21650  0.38570  Biso   1.000  N
  N15      1.0000 0.13810  0.28350  0.88570  Biso   1.000  N
  N16      1.0000 0.86190  0.78350  0.61430  Biso   1.000  N
  O53      1.0000 0.72280  0.40040  0.28240  Biso   1.000  O
  O54      1.0000 0.27720  0.90040  0.21760  Biso   1.000  O
  O55      1.0000 0.27720  0.59960  0.71760  Biso   1.000  O
  O56      1.0000 0.72280  0.09960  0.78240  Biso   1.000  O
  O57      1.0000 0.77930  0.49320  0.30320  Biso   1.000  O
  O58      1.0000 0.22070  0.99320  0.19680  Biso   1.000  O
  O59      1.0000 0.22070  0.50680  0.69680  Biso   1.000  O
  O60      1.0000 0.77930  0.00680  0.80320  Biso   1.000  O
  O61      1.0000 0.71650  0.43300  0.17770  Biso   1.000  O
  O62      1.0000 0.28350  0.93300  0.32230  Biso   1.000  O
  O63      1.0000 0.28350  0.56700  0.82230  Biso   1.000  O
  O64      1.0000 0.71650  0.06700  0.67770  Biso   1.000  O
  O65      1.0000 0.56500  0.54560  0.15310  Biso   1.000  O
  O66      1.0000 0.43500  0.04560  0.34690  Biso   1.000  O
  O67      1.0000 0.43500  0.45440  0.84690  Biso   1.000  O
  O68      1.0000 0.56500  0.95440  0.65310  Biso   1.000  O
  O69      1.0000 0.51880  0.46960  0.30230  Biso   1.000  O
  O70      1.0000 0.48120  0.96960  0.19770  Biso   1.000  O
  O71      1.0000 0.48120  0.53040  0.69770  Biso   1.000  O
  O72      1.0000 0.51880  0.03040  0.80230  Biso   1.000  O
  C97      1.0000 0.88270  0.41390  0.35160  Biso   1.000  C
  C98      1.0000 0.11730  0.91390  0.14840  Biso   1.000  C
  C99      1.0000 0.11730  0.58610  0.64840  Biso   1.000  C
  C100     1.0000 0.88270  0.08610  0.85160  Biso   1.000  C
  N17      1.0000 0.98140  0.33410  0.39990  Biso   1.000  N
  N18      1.0000 0.01860  0.83410  0.10010  Biso   1.000  N
  N19      1.0000 0.01860  0.66590  0.60010  Biso   1.000  N
  N20      1.0000 0.98140  0.16590  0.89990  Biso   1.000  N
  C101     1.0000 0.88750  0.21040  0.29660  Biso   1.000  C
  C102     1.0000 0.11250  0.71040  0.20340  Biso   1.000  C
  C103     1.0000 0.11250  0.78960  0.70340  Biso   1.000  C
  C104     1.0000 0.88750  0.28960  0.79660  Biso   1.000  C
  Cu1      1.0000 0.95890  0.24561  0.40533  Biso   1.000  Cu
  Cu2      1.0000 0.04110  0.74561  0.09467  Biso   1.000  Cu
  Cu3      1.0000 0.04110  0.75439  0.59467  Biso   1.000  Cu
  Cu4      1.0000 0.95890  0.25439  0.90533  Biso   1.000  Cu
  H41      1.0000 0.88390  0.19120  0.22360  Biso   1.000  H
  H42      1.0000 0.11610  0.69120  0.27640  Biso   1.000  H
  H43      1.0000 0.11610  0.80880  0.77640  Biso   1.000  H
  H44      1.0000 0.88390  0.30880  0.72360  Biso   1.000  H
  H45      1.0000 0.21330  0.22590  0.18810  Biso   1.000  H
  H46      1.0000 0.78670  0.72590  0.31190  Biso   1.000  H
  H47      1.0000 0.78670  0.77410  0.81190  Biso   1.000  H
  H48      1.0000 0.21330  0.27410  0.68810  Biso   1.000  H
  C105     1.0000 0.33310  0.23540  0.14120  Biso   1.000  C
  C106     1.0000 0.66690  0.73540  0.35880  Biso   1.000  C
  C107     1.0000 0.66690  0.76460  0.85880  Biso   1.000  C
  C108     1.0000 0.33310  0.26460  0.64120  Biso   1.000  C
  C109     1.0000 0.43920  0.42880  0.08500  Biso   1.000  C
  C110     1.0000 0.56080  0.92880  0.41500  Biso   1.000  C
  C111     1.0000 0.56080  0.57120  0.91500  Biso   1.000  C
  C112     1.0000 0.43920  0.07120  0.58500  Biso   1.000  C
  N21      1.0000 0.55670  0.33950  0.08360  Biso   1.000  N
  N22      1.0000 0.44330  0.83950  0.41640  Biso   1.000  N
  N23      1.0000 0.44330  0.66050  0.91640  Biso   1.000  N
  N24      1.0000 0.55670  0.16050  0.58360  Biso   1.000  N
  Cu5      1.0000 0.55112  0.25074  0.09202  Biso   1.000  Cu
  Cu6      1.0000 0.44888  0.75074  0.40798  Biso   1.000  Cu
  Cu7      1.0000 0.44888  0.74926  0.90798  Biso   1.000  Cu
  Cu8      1.0000 0.55112  0.24926  0.59202  Biso   1.000  Cu
  C113     1.0000 0.50120  0.60520  0.26010  Biso   1.000  C
  C114     1.0000 0.49880  0.10520  0.23990  Biso   1.000  C
  C115     1.0000 0.49880  0.39480  0.73990  Biso   1.000  C
  C116     1.0000 0.50120  0.89480  0.76010  Biso   1.000  C
  H49      1.0000 0.45740  0.54260  0.46480  Biso   1.000  H
  H50      1.0000 0.54260  0.04260  0.03520  Biso   1.000  H
  H51      1.0000 0.54260  0.45740  0.53520  Biso   1.000  H
  H52      1.0000 0.45740  0.95740  0.96480  Biso   1.000  H
  C117     1.0000 0.47220  0.62710  0.43930  Biso   1.000  C
  C118     1.0000 0.52780  0.12710  0.06070  Biso   1.000  C
  C119     1.0000 0.52780  0.37290  0.56070  Biso   1.000  C
  C120     1.0000 0.47220  0.87290  0.93930  Biso   1.000  C
  C121     1.0000 0.44420  0.66490  0.26750  Biso   1.000  C
  C122     1.0000 0.55580  0.16490  0.23250  Biso   1.000  C
  C123     1.0000 0.55580  0.33510  0.73250  Biso   1.000  C
  C124     1.0000 0.44420  0.83510  0.76750  Biso   1.000  C
  N25      1.0000 0.38020  0.73860  0.32110  Biso   1.000  N
  N26      1.0000 0.61980  0.23860  0.17890  Biso   1.000  N
  N27      1.0000 0.61980  0.26140  0.67890  Biso   1.000  N
  N28      1.0000 0.38020  0.76140  0.82110  Biso   1.000  N
  H53      1.0000 0.68440  0.75950  0.18960  Biso   1.000  H
  H54      1.0000 0.31560  0.25950  0.31040  Biso   1.000  H
  H55      1.0000 0.31560  0.24050  0.81040  Biso   1.000  H
  H56      1.0000 0.68440  0.74050  0.68960  Biso   1.000  H
  C125     1.0000 0.79210  0.75130  0.13670  Biso   1.000  C
  C126     1.0000 0.20790  0.25130  0.36330  Biso   1.000  C
  C127     1.0000 0.20790  0.24870  0.86330  Biso   1.000  C
  C128     1.0000 0.79210  0.74870  0.63670  Biso   1.000  C
  C129     1.0000 0.93280  0.56580  0.08440  Biso   1.000  C
  C130     1.0000 0.06720  0.06580  0.41560  Biso   1.000  C
  C131     1.0000 0.06720  0.43420  0.91560  Biso   1.000  C
  C132     1.0000 0.93280  0.93420  0.58440  Biso   1.000  C
  N29      1.0000 0.04960  0.65540  0.09010  Biso   1.000  N
  N30      1.0000 0.95040  0.15540  0.40990  Biso   1.000  N
  N31      1.0000 0.95040  0.34460  0.90990  Biso   1.000  N
  N32      1.0000 0.04960  0.84460  0.59010  Biso   1.000  N
  C133     1.0000 0.79030  0.43680  0.30860  Biso   1.000  C
  C134     1.0000 0.20970  0.93680  0.19140  Biso   1.000  C
  C135     1.0000 0.20970  0.56320  0.69140  Biso   1.000  C
  C136     1.0000 0.79030  0.06320  0.80860  Biso   1.000  C
  H57      1.0000 0.66730  0.40550  0.16510  Biso   1.000  H
  H58      1.0000 0.33270  0.90550  0.33490  Biso   1.000  H
  H59      1.0000 0.33270  0.59450  0.83490  Biso   1.000  H
  H60      1.0000 0.66730  0.09450  0.66510  Biso   1.000  H
  H61      1.0000 0.77930  0.41630  0.19420  Biso   1.000  H
  H62      1.0000 0.22070  0.91630  0.30580  Biso   1.000  H
  H63      1.0000 0.22070  0.58370  0.80580  Biso   1.000  H
  H64      1.0000 0.77930  0.08370  0.69420  Biso   1.000  H
  H65      1.0000 0.48980  0.53920  0.14160  Biso   1.000  H
  H66      1.0000 0.51020  0.03920  0.35840  Biso   1.000  H
  H67      1.0000 0.51020  0.46080  0.85840  Biso   1.000  H
  H68      1.0000 0.48980  0.96080  0.64160  Biso   1.000  H
  H69      1.0000 0.60780  0.53130  0.13210  Biso   1.000  H
  H70      1.0000 0.39220  0.03130  0.36790  Biso   1.000  H
  H71      1.0000 0.39220  0.46870  0.86790  Biso   1.000  H
  H72      1.0000 0.60780  0.96870  0.63210  Biso   1.000  H
  H73      1.0000 0.55710  0.48460  0.33000  Biso   1.000  H
  H74      1.0000 0.44290  0.98460  0.17000  Biso   1.000  H
  H75      1.0000 0.44290  0.51540  0.67000  Biso   1.000  H
  H76      1.0000 0.55710  0.01540  0.83000  Biso   1.000  H
  H77      1.0000 0.51620  0.43070  0.30560  Biso   1.000  H
  H78      1.0000 0.48380  0.93070  0.19440  Biso   1.000  H
  H79      1.0000 0.48380  0.56930  0.69440  Biso   1.000  H
  H80      1.0000 0.51620  0.06930  0.80560  Biso   1.000  H
  C137     1.0000 0.92180  0.45360  0.39090  Biso   1.000  C
  C138     1.0000 0.07820  0.95360  0.10910  Biso   1.000  C
  C139     1.0000 0.07820  0.54640  0.60910  Biso   1.000  C
  C140     1.0000 0.92180  0.04640  0.89090  Biso   1.000  C
  C141     1.0000 0.01570  0.37190  0.43750  Biso   1.000  C
  C142     1.0000 0.98430  0.87190  0.06250  Biso   1.000  C
  C143     1.0000 0.98430  0.62810  0.56250  Biso   1.000  C
  C144     1.0000 0.01570  0.12810  0.93750  Biso   1.000  C
  H81      1.0000 0.87280  0.17160  0.30630  Biso   1.000  H
  H82      1.0000 0.12720  0.67160  0.19370  Biso   1.000  H
  H83      1.0000 0.12720  0.82840  0.69370  Biso   1.000  H
  H84      1.0000 0.87280  0.32840  0.80630  Biso   1.000  H
  N33      1.0000 0.98060  0.24900  0.47970  Biso   1.000  N
  N34      1.0000 0.01940  0.74900  0.02030  Biso   1.000  N
  N35      1.0000 0.01940  0.75100  0.52030  Biso   1.000  N
  N36      1.0000 0.98060  0.25100  0.97970  Biso   1.000  N
  N37      1.0000 0.74590  0.25430  0.43430  Biso   1.000  N
  N38      1.0000 0.25410  0.75430  0.06570  Biso   1.000  N
  N39      1.0000 0.25410  0.74570  0.56570  Biso   1.000  N
  N40      1.0000 0.74590  0.24570  0.93430  Biso   1.000  N
  H85      1.0000 0.33440  0.19510  0.13280  Biso   1.000  H
  H86      1.0000 0.66560  0.69510  0.36720  Biso   1.000  H
  H87      1.0000 0.66560  0.80490  0.86720  Biso   1.000  H
  H88      1.0000 0.33440  0.30490  0.63280  Biso   1.000  H
  C145     1.0000 0.51410  0.45690  0.05710  Biso   1.000  C
  C146     1.0000 0.48590  0.95690  0.44290  Biso   1.000  C
  C147     1.0000 0.48590  0.54310  0.94290  Biso   1.000  C
  C148     1.0000 0.51410  0.04310  0.55710  Biso   1.000  C
  C149     1.0000 0.32790  0.46060  0.09400  Biso   1.000  C
  C150     1.0000 0.67210  0.96060  0.40600  Biso   1.000  C
  C151     1.0000 0.67210  0.53940  0.90600  Biso   1.000  C
  C152     1.0000 0.32790  0.03940  0.59400  Biso   1.000  C
  C153     1.0000 0.62610  0.36640  0.05470  Biso   1.000  C
  C154     1.0000 0.37390  0.86640  0.44530  Biso   1.000  C
  C155     1.0000 0.37390  0.63360  0.94530  Biso   1.000  C
  C156     1.0000 0.62610  0.13360  0.55470  Biso   1.000  C
  O73      1.0000 0.41250  0.24860  0.00820  Biso   1.000  O
  O74      1.0000 0.58750  0.74860  0.49180  Biso   1.000  O
  O75      1.0000 0.58750  0.75140  0.99180  Biso   1.000  O
  O76      1.0000 0.41250  0.25140  0.50820  Biso   1.000  O
  O77      1.0000 0.69240  0.24020  0.06010  Biso   1.000  O
  O78      1.0000 0.30760  0.74020  0.43990  Biso   1.000  O
  O79      1.0000 0.30760  0.75980  0.93990  Biso   1.000  O
  O80      1.0000 0.69240  0.25980  0.56010  Biso   1.000  O
  H89      1.0000 0.50530  0.64350  0.46970  Biso   1.000  H
  H90      1.0000 0.49470  0.14350  0.03030  Biso   1.000  H
  H91      1.0000 0.49470  0.35650  0.53030  Biso   1.000  H
  H92      1.0000 0.50530  0.85650  0.96970  Biso   1.000  H
  C157     1.0000 0.44160  0.70720  0.23040  Biso   1.000  C
  C158     1.0000 0.55840  0.20720  0.26960  Biso   1.000  C
  C159     1.0000 0.55840  0.29280  0.76960  Biso   1.000  C
  C160     1.0000 0.44160  0.79280  0.73040  Biso   1.000  C
  C161     1.0000 0.37890  0.77950  0.28560  Biso   1.000  C
  C162     1.0000 0.62110  0.27950  0.21440  Biso   1.000  C
  C163     1.0000 0.62110  0.22050  0.71440  Biso   1.000  C
  C164     1.0000 0.37890  0.72050  0.78560  Biso   1.000  C
  H93      1.0000 0.78070  0.79050  0.12550  Biso   1.000  H
  H94      1.0000 0.21930  0.29050  0.37450  Biso   1.000  H
  H95      1.0000 0.21930  0.20950  0.87450  Biso   1.000  H
  H96      1.0000 0.78070  0.70950  0.62550  Biso   1.000  H
  C165     1.0000 0.01280  0.53870  0.05820  Biso   1.000  C
  C166     1.0000 0.98720  0.03870  0.44180  Biso   1.000  C
  C167     1.0000 0.98720  0.46130  0.94180  Biso   1.000  C
  C168     1.0000 0.01280  0.96130  0.55820  Biso   1.000  C
  C169     1.0000 0.82200  0.53100  0.09350  Biso   1.000  C
  C170     1.0000 0.17800  0.03100  0.40650  Biso   1.000  C
  C171     1.0000 0.17800  0.46900  0.90650  Biso   1.000  C
  C172     1.0000 0.82200  0.96900  0.59350  Biso   1.000  C
  C173     1.0000 0.12630  0.62850  0.06380  Biso   1.000  C
  C174     1.0000 0.87370  0.12850  0.43620  Biso   1.000  C
  C175     1.0000 0.87370  0.37150  0.93620  Biso   1.000  C
  C176     1.0000 0.12630  0.87150  0.56380  Biso   1.000  C
  H97      1.0000 0.89920  0.49360  0.38840  Biso   1.000  H
  H98      1.0000 0.10080  0.99360  0.11160  Biso   1.000  H
  H99      1.0000 0.10080  0.50640  0.61160  Biso   1.000  H
  H100     1.0000 0.89920  0.00640  0.88840  Biso   1.000  H
  C177     1.0000 0.99330  0.43300  0.43290  Biso   1.000  C
  C178     1.0000 0.00670  0.93300  0.06710  Biso   1.000  C
  C179     1.0000 0.00670  0.56700  0.56710  Biso   1.000  C
  C180     1.0000 0.99330  0.06700  0.93290  Biso   1.000  C
  H101     1.0000 0.05550  0.35690  0.46740  Biso   1.000  H
  H102     1.0000 0.94450  0.85690  0.03260  Biso   1.000  H
  H103     1.0000 0.94450  0.64310  0.53260  Biso   1.000  H
  H104     1.0000 0.05550  0.14310  0.96740  Biso   1.000  H
  C181     1.0000 0.07620  0.22080  0.50490  Biso   1.000  C
  C182     1.0000 0.92380  0.72080  0.99510  Biso   1.000  C
  C183     1.0000 0.92380  0.77920  0.49510  Biso   1.000  C
  C184     1.0000 0.07620  0.27920  0.00490  Biso   1.000  C
  C185     1.0000 0.89180  0.26940  0.50330  Biso   1.000  C
  C186     1.0000 0.10820  0.76940  0.99670  Biso   1.000  C
  C187     1.0000 0.10820  0.73060  0.49670  Biso   1.000  C
  C188     1.0000 0.89180  0.23060  0.00330  Biso   1.000  C
  C189     1.0000 0.78380  0.29420  0.46910  Biso   1.000  C
  C190     1.0000 0.21620  0.79420  0.03090  Biso   1.000  C
  C191     1.0000 0.21620  0.70580  0.53090  Biso   1.000  C
  C192     1.0000 0.78380  0.20580  0.96910  Biso   1.000  C
  C193     1.0000 0.63820  0.26420  0.40550  Biso   1.000  C
  C194     1.0000 0.36180  0.76420  0.09450  Biso   1.000  C
  C195     1.0000 0.36180  0.73580  0.59450  Biso   1.000  C
  C196     1.0000 0.63820  0.23580  0.90550  Biso   1.000  C
  C197     1.0000 0.60940  0.42530  0.04120  Biso   1.000  C
  C198     1.0000 0.39060  0.92530  0.45880  Biso   1.000  C
  C199     1.0000 0.39060  0.57470  0.95880  Biso   1.000  C
  C200     1.0000 0.60940  0.07470  0.54120  Biso   1.000  C
  H105     1.0000 0.50190  0.49700  0.04870  Biso   1.000  H
  H106     1.0000 0.49810  0.99700  0.45130  Biso   1.000  H
  H107     1.0000 0.49810  0.50300  0.95130  Biso   1.000  H
  H108     1.0000 0.50190  0.00300  0.54870  Biso   1.000  H
  O81      1.0000 0.23200  0.43210  0.08600  Biso   1.000  O
  O82      1.0000 0.76800  0.93210  0.41400  Biso   1.000  O
  O83      1.0000 0.76800  0.56790  0.91400  Biso   1.000  O
  O84      1.0000 0.23200  0.06790  0.58600  Biso   1.000  O
  O85      1.0000 0.34110  0.51530  0.10700  Biso   1.000  O
  O86      1.0000 0.65890  0.01530  0.39300  Biso   1.000  O
  O87      1.0000 0.65890  0.48470  0.89300  Biso   1.000  O
  O88      1.0000 0.34110  0.98470  0.60700  Biso   1.000  O
  H109     1.0000 0.68690  0.34470  0.04360  Biso   1.000  H
  H110     1.0000 0.31310  0.84470  0.45640  Biso   1.000  H
  H111     1.0000 0.31310  0.65530  0.95640  Biso   1.000  H
  H112     1.0000 0.68690  0.15530  0.54360  Biso   1.000  H
  C201     1.0000 0.40680  0.76570  0.23920  Biso   1.000  C
  C202     1.0000 0.59320  0.26570  0.26080  Biso   1.000  C
  C203     1.0000 0.59320  0.23430  0.76080  Biso   1.000  C
  C204     1.0000 0.40680  0.73430  0.73920  Biso   1.000  C
  H113     1.0000 0.46270  0.69680  0.19990  Biso   1.000  H
  H114     1.0000 0.53730  0.19680  0.30010  Biso   1.000  H
  H115     1.0000 0.53730  0.30320  0.80010  Biso   1.000  H
  H116     1.0000 0.46270  0.80320  0.69990  Biso   1.000  H
  H117     1.0000 0.35860  0.81870  0.29210  Biso   1.000  H
  H118     1.0000 0.64140  0.31870  0.20790  Biso   1.000  H
  H119     1.0000 0.64140  0.18130  0.70790  Biso   1.000  H
  H120     1.0000 0.35860  0.68130  0.79210  Biso   1.000  H
  C205     1.0000 0.11140  0.56980  0.04710  Biso   1.000  C
  C206     1.0000 0.88860  0.06980  0.45290  Biso   1.000  C
  C207     1.0000 0.88860  0.43020  0.95290  Biso   1.000  C
  C208     1.0000 0.11140  0.93020  0.54710  Biso   1.000  C
  H121     1.0000 0.00050  0.49930  0.04790  Biso   1.000  H
  H122     1.0000 0.99950  0.99930  0.45210  Biso   1.000  H
  H123     1.0000 0.99950  0.50070  0.95210  Biso   1.000  H
  H124     1.0000 0.00050  0.00070  0.54790  Biso   1.000  H
  O89      1.0000 0.83740  0.47650  0.10480  Biso   1.000  O
  O90      1.0000 0.16260  0.97650  0.39520  Biso   1.000  O
  O91      1.0000 0.16260  0.52350  0.89520  Biso   1.000  O
  O92      1.0000 0.83740  0.02350  0.60480  Biso   1.000  O
  O93      1.0000 0.72330  0.55830  0.08670  Biso   1.000  O
  O94      1.0000 0.27670  0.05830  0.41330  Biso   1.000  O
  O95      1.0000 0.27670  0.44170  0.91330  Biso   1.000  O
  O96      1.0000 0.72330  0.94170  0.58670  Biso   1.000  O
  H125     1.0000 0.19170  0.65010  0.05660  Biso   1.000  H
  H126     1.0000 0.80830  0.15010  0.44340  Biso   1.000  H
  H127     1.0000 0.80830  0.34990  0.94340  Biso   1.000  H
  H128     1.0000 0.19170  0.84990  0.55660  Biso   1.000  H
  H129     1.0000 0.02600  0.45930  0.45780  Biso   1.000  H
  H130     1.0000 0.97400  0.95930  0.04220  Biso   1.000  H
  H131     1.0000 0.97400  0.54070  0.54220  Biso   1.000  H
  H132     1.0000 0.02600  0.04070  0.95780  Biso   1.000  H
  C209     1.0000 0.08750  0.21100  0.55650  Biso   1.000  C
  C210     1.0000 0.91250  0.71100  0.94350  Biso   1.000  C
  C211     1.0000 0.91250  0.78900  0.44350  Biso   1.000  C
  C212     1.0000 0.08750  0.28900  0.05650  Biso   1.000  C
  H133     1.0000 0.13650  0.20740  0.48800  Biso   1.000  H
  H134     1.0000 0.86350  0.70740  0.01200  Biso   1.000  H
  H135     1.0000 0.86350  0.79260  0.51200  Biso   1.000  H
  H136     1.0000 0.13650  0.29260  0.98800  Biso   1.000  H
  C213     1.0000 0.89720  0.26070  0.55470  Biso   1.000  C
  C214     1.0000 0.10280  0.76070  0.94530  Biso   1.000  C
  C215     1.0000 0.10280  0.73930  0.44530  Biso   1.000  C
  C216     1.0000 0.89720  0.23930  0.05470  Biso   1.000  C
  C217     1.0000 0.73470  0.35150  0.47130  Biso   1.000  C
  C218     1.0000 0.26530  0.85150  0.02870  Biso   1.000  C
  C219     1.0000 0.26530  0.64850  0.52870  Biso   1.000  C
  C220     1.0000 0.73470  0.14850  0.97130  Biso   1.000  C
  H137     1.0000 0.60560  0.23370  0.38450  Biso   1.000  H
  H138     1.0000 0.39440  0.73370  0.11550  Biso   1.000  H
  H139     1.0000 0.39440  0.76630  0.61550  Biso   1.000  H
  H140     1.0000 0.60560  0.26630  0.88450  Biso   1.000  H
  C221     1.0000 0.57560  0.31530  0.40540  Biso   1.000  C
  C222     1.0000 0.42440  0.81530  0.09460  Biso   1.000  C
  C223     1.0000 0.42440  0.68470  0.59460  Biso   1.000  C
  C224     1.0000 0.57560  0.18470  0.90540  Biso   1.000  C
  H141     1.0000 0.65960  0.44390  0.02200  Biso   1.000  H
  H142     1.0000 0.34040  0.94390  0.47800  Biso   1.000  H
  H143     1.0000 0.34040  0.55610  0.97800  Biso   1.000  H
  H144     1.0000 0.65960  0.05610  0.52200  Biso   1.000  H
  H145     1.0000 0.40240  0.79470  0.21460  Biso   1.000  H
  H146     1.0000 0.59760  0.29470  0.28540  Biso   1.000  H
  H147     1.0000 0.59760  0.20530  0.78540  Biso   1.000  H
  H148     1.0000 0.40240  0.70530  0.71460  Biso   1.000  H
  H149     1.0000 0.16560  0.55210  0.02920  Biso   1.000  H
  H150     1.0000 0.83440  0.05210  0.47080  Biso   1.000  H
  H151     1.0000 0.83440  0.44790  0.97080  Biso   1.000  H
  H152     1.0000 0.16560  0.94790  0.52920  Biso   1.000  H
  C225     1.0000 0.99600  0.23220  0.58120  Biso   1.000  C
  C226     1.0000 0.00400  0.73220  0.91880  Biso   1.000  C
  C227     1.0000 0.00400  0.76780  0.41880  Biso   1.000  C
  C228     1.0000 0.99600  0.26780  0.08120  Biso   1.000  C
  H153     1.0000 0.15370  0.19110  0.57360  Biso   1.000  H
  H154     1.0000 0.84630  0.69110  0.92640  Biso   1.000  H
  H155     1.0000 0.84630  0.80890  0.42640  Biso   1.000  H
  H156     1.0000 0.15370  0.30890  0.07360  Biso   1.000  H
  C229     1.0000 0.79440  0.27480  0.58220  Biso   1.000  C
  C230     1.0000 0.20560  0.77480  0.91780  Biso   1.000  C
  C231     1.0000 0.20560  0.72520  0.41780  Biso   1.000  C
  C232     1.0000 0.79440  0.22520  0.08220  Biso   1.000  C
  C233     1.0000 0.62970  0.36180  0.43600  Biso   1.000  C
  C234     1.0000 0.37030  0.86180  0.06400  Biso   1.000  C
  C235     1.0000 0.37030  0.63820  0.56400  Biso   1.000  C
  C236     1.0000 0.62970  0.13820  0.93600  Biso   1.000  C
  C237     1.0000 0.79110  0.40110  0.50140  Biso   1.000  C
  C238     1.0000 0.20890  0.90110  0.99860  Biso   1.000  C
  C239     1.0000 0.20890  0.59890  0.49860  Biso   1.000  C
  C240     1.0000 0.79110  0.09890  0.00140  Biso   1.000  C
  H157     1.0000 0.50040  0.31980  0.38610  Biso   1.000  H
  H158     1.0000 0.49960  0.81980  0.11390  Biso   1.000  H
  H159     1.0000 0.49960  0.68020  0.61390  Biso   1.000  H
  H160     1.0000 0.50040  0.18020  0.88610  Biso   1.000  H
  H161     1.0000 0.00170  0.22710  0.61530  Biso   1.000  H
  H162     1.0000 0.99830  0.72710  0.88470  Biso   1.000  H
  H163     1.0000 0.99830  0.77290  0.38470  Biso   1.000  H
  H164     1.0000 0.00170  0.27290  0.11530  Biso   1.000  H
  O97      1.0000 0.82160  0.29540  0.62530  Biso   1.000  O
  O98      1.0000 0.17840  0.79540  0.87470  Biso   1.000  O
  O99      1.0000 0.17840  0.70460  0.37470  Biso   1.000  O
  O100     1.0000 0.82160  0.20460  0.12530  Biso   1.000  O
  H165     1.0000 0.59630  0.39990  0.43300  Biso   1.000  H
  H166     1.0000 0.40370  0.89990  0.06700  Biso   1.000  H
  H167     1.0000 0.40370  0.60010  0.56700  Biso   1.000  H
  H168     1.0000 0.59630  0.10010  0.93300  Biso   1.000  H
  O101     1.0000 0.88010  0.39030  0.53370  Biso   1.000  O
  O102     1.0000 0.11990  0.89030  0.96630  Biso   1.000  O
  O103     1.0000 0.11990  0.60970  0.46630  Biso   1.000  O
  O104     1.0000 0.88010  0.10970  0.03370  Biso   1.000  O
  O105     1.0000 0.74790  0.45270  0.48950  Biso   1.000  O
  O106     1.0000 0.25210  0.95270  0.01050  Biso   1.000  O
  O107     1.0000 0.25210  0.54730  0.51050  Biso   1.000  O
  O108     1.0000 0.74790  0.04730  0.98950  Biso   1.000  O
  O109     1.0000 0.69410  0.56120  0.52380  Biso   1.000  O
  O110     1.0000 0.30590  0.06120  0.97620  Biso   1.000  O
  O111     1.0000 0.30590  0.43880  0.47620  Biso   1.000  O
  O112     1.0000 0.69410  0.93880  0.02380  Biso   1.000  O
  O113     1.0000 0.78640  0.60630  0.36950  Biso   1.000  O
  O114     1.0000 0.21360  0.10630  0.13050  Biso   1.000  O
  O115     1.0000 0.21360  0.39370  0.63050  Biso   1.000  O
  O116     1.0000 0.78640  0.89370  0.86950  Biso   1.000  O
  O117     1.0000 0.25170  0.39950  0.37570  Biso   1.000  O
  O118     1.0000 0.74830  0.89950  0.12430  Biso   1.000  O
  O119     1.0000 0.74830  0.60050  0.62430  Biso   1.000  O
  O120     1.0000 0.25170  0.10050  0.87570  Biso   1.000  O
  O121     1.0000 0.96440  0.39610  0.63070  Biso   1.000  O
  O122     1.0000 0.03560  0.89610  0.86930  Biso   1.000  O
  O123     1.0000 0.03560  0.60390  0.36930  Biso   1.000  O
  O124     1.0000 0.96440  0.10390  0.13070  Biso   1.000  O
  O125     1.0000 0.65010  0.49920  0.39520  Biso   1.000  O
  O126     1.0000 0.34990  0.99920  0.10480  Biso   1.000  O
  O127     1.0000 0.34990  0.50080  0.60480  Biso   1.000  O
  O128     1.0000 0.65010  0.00080  0.89520  Biso   1.000  O
  O129     1.0000 0.70660  0.63810  0.00630  Biso   1.000  O
  O130     1.0000 0.29340  0.13810  0.49370  Biso   1.000  O
  O131     1.0000 0.29340  0.36190  0.99370  Biso   1.000  O
  O132     1.0000 0.70660  0.86190  0.50630  Biso   1.000  O
  O133     1.0000 0.76100  0.65430  0.46910  Biso   1.000  O
  O134     1.0000 0.23900  0.15430  0.03090  Biso   1.000  O
  O135     1.0000 0.23900  0.34570  0.53090  Biso   1.000  O
  O136     1.0000 0.76100  0.84570  0.96910  Biso   1.000  O
  O137     1.0000 0.37640  0.36390  0.31080  Biso   1.000  O
  O138     1.0000 0.62360  0.86390  0.18920  Biso   1.000  O
  O139     1.0000 0.62360  0.63610  0.68920  Biso   1.000  O
  O140     1.0000 0.37640  0.13610  0.81080  Biso   1.000  O
