data_image0
_cell_length_a       11.252
_cell_length_b       22.3034
_cell_length_c       27.1573
_cell_angle_alpha    90
_cell_angle_beta     98.299
_cell_angle_gamma    90

_symmetry_space_group_name_H-M    "P 1"
_symmetry_int_tables_number       1

loop_
  _symmetry_equiv_pos_as_xyz
  'x, y, z'

loop_
  _atom_site_label
  _atom_site_occupancy
  _atom_site_fract_x
  _atom_site_fract_y
  _atom_site_fract_z
  _atom_site_thermal_displace_type
  _atom_site_B_iso_or_equiv
  _atom_site_type_symbol
  Tb1      1.0000 0.11702  0.00746  0.23027  Biso   1.000  Tb
  Tb2      1.0000 0.88298  0.50746  0.26973  Biso   1.000  Tb
  Tb3      1.0000 0.88298  0.99254  0.76973  Biso   1.000  Tb
  Tb4      1.0000 0.11702  0.49254  0.73027  Biso   1.000  Tb
  O1       1.0000 0.28160  0.06440  0.21450  Biso   1.000  O
  O2       1.0000 0.71840  0.56440  0.28550  Biso   1.000  O
  O3       1.0000 0.71840  0.93560  0.78550  Biso   1.000  O
  O4       1.0000 0.28160  0.43560  0.71450  Biso   1.000  O
  O5       1.0000 0.21110  0.91020  0.27720  Biso   1.000  O
  O6       1.0000 0.78890  0.41020  0.22280  Biso   1.000  O
  O7       1.0000 0.78890  0.08980  0.72280  Biso   1.000  O
  O8       1.0000 0.21110  0.58980  0.77720  Biso   1.000  O
  O9       1.0000 0.27640  0.00030  0.30120  Biso   1.000  O
  O10      1.0000 0.72360  0.50030  0.19880  Biso   1.000  O
  O11      1.0000 0.72360  0.99970  0.69880  Biso   1.000  O
  O12      1.0000 0.27640  0.49970  0.80120  Biso   1.000  O
  O13      1.0000 0.96850  0.94160  0.19320  Biso   1.000  O
  O14      1.0000 0.03150  0.44160  0.30680  Biso   1.000  O
  O15      1.0000 0.03150  0.05840  0.80680  Biso   1.000  O
  O16      1.0000 0.96850  0.55840  0.69320  Biso   1.000  O
  O17      1.0000 0.93810  0.07860  0.22800  Biso   1.000  O
  O18      1.0000 0.06190  0.57860  0.27200  Biso   1.000  O
  O19      1.0000 0.06190  0.92140  0.77200  Biso   1.000  O
  O20      1.0000 0.93810  0.42140  0.72800  Biso   1.000  O
  O21      1.0000 0.10520  0.10770  0.27550  Biso   1.000  O
  O22      1.0000 0.89480  0.60770  0.22450  Biso   1.000  O
  O23      1.0000 0.89480  0.89230  0.72450  Biso   1.000  O
  O24      1.0000 0.10520  0.39230  0.77550  Biso   1.000  O
  O25      1.0000 0.21710  0.94320  0.17840  Biso   1.000  O
  O26      1.0000 0.78290  0.44320  0.32160  Biso   1.000  O
  O27      1.0000 0.78290  0.05680  0.82160  Biso   1.000  O
  O28      1.0000 0.21710  0.55680  0.67840  Biso   1.000  O
  O29      1.0000 0.01400  0.98120  0.29690  Biso   1.000  O
  O30      1.0000 0.98600  0.48120  0.20310  Biso   1.000  O
  O31      1.0000 0.98600  0.01880  0.70310  Biso   1.000  O
  O32      1.0000 0.01400  0.51880  0.79690  Biso   1.000  O
  O33      1.0000 0.06480  0.05300  0.15050  Biso   1.000  O
  O34      1.0000 0.93520  0.55300  0.34950  Biso   1.000  O
  O35      1.0000 0.93520  0.94700  0.84950  Biso   1.000  O
  O36      1.0000 0.06480  0.44700  0.65050  Biso   1.000  O
  C1       1.0000 0.36360  0.08700  0.19500  Biso   1.000  C
  C2       1.0000 0.63640  0.58700  0.30500  Biso   1.000  C
  C3       1.0000 0.63640  0.91300  0.80500  Biso   1.000  C
  C4       1.0000 0.36360  0.41300  0.69500  Biso   1.000  C
  C5       1.0000 0.27840  0.94440  0.30660  Biso   1.000  C
  C6       1.0000 0.72160  0.44440  0.19340  Biso   1.000  C
  C7       1.0000 0.72160  0.05560  0.69340  Biso   1.000  C
  C8       1.0000 0.27840  0.55560  0.80660  Biso   1.000  C
  C9       1.0000 0.86290  0.92300  0.19550  Biso   1.000  C
  C10      1.0000 0.13710  0.42300  0.30450  Biso   1.000  C
  C11      1.0000 0.13710  0.07700  0.80450  Biso   1.000  C
  C12      1.0000 0.86290  0.57700  0.69550  Biso   1.000  C
  C13      1.0000 0.99650  0.11650  0.25670  Biso   1.000  C
  C14      1.0000 0.00350  0.61650  0.24330  Biso   1.000  C
  C15      1.0000 0.00350  0.88350  0.74330  Biso   1.000  C
  C16      1.0000 0.99650  0.38350  0.75670  Biso   1.000  C
  H1       1.0000 0.18810  0.90770  0.17840  Biso   1.000  H
  H2       1.0000 0.81190  0.40770  0.32160  Biso   1.000  H
  H3       1.0000 0.81190  0.09230  0.82160  Biso   1.000  H
  H4       1.0000 0.18810  0.59230  0.67840  Biso   1.000  H
  H5       1.0000 0.29220  0.94200  0.18930  Biso   1.000  H
  H6       1.0000 0.70780  0.44200  0.31070  Biso   1.000  H
  H7       1.0000 0.70780  0.05800  0.81070  Biso   1.000  H
  H8       1.0000 0.29220  0.55800  0.68930  Biso   1.000  H
  H9       1.0000 0.04050  0.94740  0.30980  Biso   1.000  H
  H10      1.0000 0.95950  0.44740  0.19020  Biso   1.000  H
  H11      1.0000 0.95950  0.05260  0.69020  Biso   1.000  H
  H12      1.0000 0.04050  0.55260  0.80980  Biso   1.000  H
  H13      1.0000 0.93780  0.97770  0.28660  Biso   1.000  H
  H14      1.0000 0.06220  0.47770  0.21340  Biso   1.000  H
  H15      1.0000 0.06220  0.02230  0.71340  Biso   1.000  H
  H16      1.0000 0.93780  0.52230  0.78660  Biso   1.000  H
  H17      1.0000 0.99540  0.03980  0.13600  Biso   1.000  H
  H18      1.0000 0.00460  0.53980  0.36400  Biso   1.000  H
  H19      1.0000 0.00460  0.96020  0.86400  Biso   1.000  H
  H20      1.0000 0.99540  0.46020  0.63600  Biso   1.000  H
  H21      1.0000 0.11870  0.04500  0.13130  Biso   1.000  H
  H22      1.0000 0.88130  0.54500  0.36870  Biso   1.000  H
  H23      1.0000 0.88130  0.95500  0.86870  Biso   1.000  H
  H24      1.0000 0.11870  0.45500  0.63130  Biso   1.000  H
  C17      1.0000 0.33960  0.14760  0.17030  Biso   1.000  C
  C18      1.0000 0.66040  0.64760  0.32970  Biso   1.000  C
  C19      1.0000 0.66040  0.85240  0.82970  Biso   1.000  C
  C20      1.0000 0.33960  0.35240  0.67030  Biso   1.000  C
  O37      1.0000 0.46800  0.06660  0.19640  Biso   1.000  O
  O38      1.0000 0.53200  0.56660  0.30360  Biso   1.000  O
  O39      1.0000 0.53200  0.93340  0.80360  Biso   1.000  O
  O40      1.0000 0.46800  0.43340  0.69640  Biso   1.000  O
  C21      1.0000 0.36060  0.91960  0.35090  Biso   1.000  C
  C22      1.0000 0.63940  0.41960  0.14910  Biso   1.000  C
  C23      1.0000 0.63940  0.08040  0.64910  Biso   1.000  C
  C24      1.0000 0.36060  0.58040  0.85090  Biso   1.000  C
  C25      1.0000 0.82980  0.86330  0.17180  Biso   1.000  C
  C26      1.0000 0.17020  0.36330  0.32820  Biso   1.000  C
  C27      1.0000 0.17020  0.13670  0.82820  Biso   1.000  C
  C28      1.0000 0.82980  0.63670  0.67180  Biso   1.000  C
  O41      1.0000 0.78830  0.94830  0.21710  Biso   1.000  O
  O42      1.0000 0.21170  0.44830  0.28290  Biso   1.000  O
  O43      1.0000 0.21170  0.05170  0.78290  Biso   1.000  O
  O44      1.0000 0.78830  0.55170  0.71710  Biso   1.000  O
  C29      1.0000 0.94070  0.17540  0.26800  Biso   1.000  C
  C30      1.0000 0.05930  0.67540  0.23200  Biso   1.000  C
  C31      1.0000 0.05930  0.82460  0.73200  Biso   1.000  C
  C32      1.0000 0.94070  0.32460  0.76800  Biso   1.000  C
  C33      1.0000 0.39740  0.16770  0.13190  Biso   1.000  C
  C34      1.0000 0.60260  0.66770  0.36810  Biso   1.000  C
  C35      1.0000 0.60260  0.83230  0.86810  Biso   1.000  C
  C36      1.0000 0.39740  0.33230  0.63190  Biso   1.000  C
  C37      1.0000 0.26750  0.18770  0.19140  Biso   1.000  C
  C38      1.0000 0.73250  0.68770  0.30860  Biso   1.000  C
  C39      1.0000 0.73250  0.81230  0.80860  Biso   1.000  C
  C40      1.0000 0.26750  0.31230  0.69140  Biso   1.000  C
  Tb5      1.0000 0.61948  0.00309  0.23301  Biso   1.000  Tb
  Tb6      1.0000 0.38052  0.50309  0.26699  Biso   1.000  Tb
  Tb7      1.0000 0.38052  0.99691  0.76699  Biso   1.000  Tb
  Tb8      1.0000 0.61948  0.49691  0.73301  Biso   1.000  Tb
  C41      1.0000 0.38120  0.95520  0.39290  Biso   1.000  C
  C42      1.0000 0.61880  0.45520  0.10710  Biso   1.000  C
  C43      1.0000 0.61880  0.04480  0.60710  Biso   1.000  C
  C44      1.0000 0.38120  0.54480  0.89290  Biso   1.000  C
  C45      1.0000 0.40650  0.86180  0.35410  Biso   1.000  C
  C46      1.0000 0.59350  0.36180  0.14590  Biso   1.000  C
  C47      1.0000 0.59350  0.13820  0.64590  Biso   1.000  C
  C48      1.0000 0.40650  0.63820  0.85410  Biso   1.000  C
  C49      1.0000 0.87820  0.84140  0.13080  Biso   1.000  C
  C50      1.0000 0.12180  0.34140  0.36920  Biso   1.000  C
  C51      1.0000 0.12180  0.15860  0.86920  Biso   1.000  C
  C52      1.0000 0.87820  0.65860  0.63080  Biso   1.000  C
  C53      1.0000 0.75430  0.82480  0.19370  Biso   1.000  C
  C54      1.0000 0.24570  0.32480  0.30630  Biso   1.000  C
  C55      1.0000 0.24570  0.17520  0.80630  Biso   1.000  C
  C56      1.0000 0.75430  0.67520  0.69370  Biso   1.000  C
  C57      1.0000 0.92670  0.22160  0.23290  Biso   1.000  C
  C58      1.0000 0.07330  0.72160  0.26710  Biso   1.000  C
  C59      1.0000 0.07330  0.77840  0.76710  Biso   1.000  C
  C60      1.0000 0.92670  0.27840  0.73290  Biso   1.000  C
  C61      1.0000 0.91680  0.18980  0.31530  Biso   1.000  C
  C62      1.0000 0.08320  0.68980  0.18470  Biso   1.000  C
  C63      1.0000 0.08320  0.81020  0.68470  Biso   1.000  C
  C64      1.0000 0.91680  0.31020  0.81530  Biso   1.000  C
  C65      1.0000 0.46710  0.13030  0.10050  Biso   1.000  C
  C66      1.0000 0.53290  0.63030  0.39950  Biso   1.000  C
  C67      1.0000 0.53290  0.86970  0.89950  Biso   1.000  C
  C68      1.0000 0.46710  0.36970  0.60050  Biso   1.000  C
  N1       1.0000 0.39830  0.22630  0.12020  Biso   1.000  N
  N2       1.0000 0.60170  0.72630  0.37980  Biso   1.000  N
  N3       1.0000 0.60170  0.77370  0.87980  Biso   1.000  N
  N4       1.0000 0.39830  0.27370  0.62020  Biso   1.000  N
  C69      1.0000 0.26070  0.24630  0.17590  Biso   1.000  C
  C70      1.0000 0.73930  0.74630  0.32410  Biso   1.000  C
  C71      1.0000 0.73930  0.75370  0.82410  Biso   1.000  C
  C72      1.0000 0.26070  0.25370  0.67590  Biso   1.000  C
  H25      1.0000 0.22380  0.17490  0.21600  Biso   1.000  H
  H26      1.0000 0.77620  0.67490  0.28400  Biso   1.000  H
  H27      1.0000 0.77620  0.82510  0.78400  Biso   1.000  H
  H28      1.0000 0.22380  0.32510  0.71600  Biso   1.000  H
  O45      1.0000 0.44100  0.93480  0.23180  Biso   1.000  O
  O46      1.0000 0.55900  0.43480  0.26820  Biso   1.000  O
  O47      1.0000 0.55900  0.06520  0.76820  Biso   1.000  O
  O48      1.0000 0.44100  0.56520  0.73180  Biso   1.000  O
  O49      1.0000 0.60760  0.90530  0.27950  Biso   1.000  O
  O50      1.0000 0.39240  0.40530  0.22050  Biso   1.000  O
  O51      1.0000 0.39240  0.09470  0.72050  Biso   1.000  O
  O52      1.0000 0.60760  0.59470  0.77950  Biso   1.000  O
  H29      1.0000 0.35440  0.99470  0.39140  Biso   1.000  H
  H30      1.0000 0.64560  0.49470  0.10860  Biso   1.000  H
  H31      1.0000 0.64560  0.00530  0.60860  Biso   1.000  H
  H32      1.0000 0.35440  0.50530  0.89140  Biso   1.000  H
  C73      1.0000 0.44170  0.93260  0.43750  Biso   1.000  C
  C74      1.0000 0.55830  0.43260  0.06250  Biso   1.000  C
  C75      1.0000 0.55830  0.06740  0.56250  Biso   1.000  C
  C76      1.0000 0.44170  0.56740  0.93750  Biso   1.000  C
  C77      1.0000 0.40700  0.81940  0.31170  Biso   1.000  C
  C78      1.0000 0.59300  0.31940  0.18830  Biso   1.000  C
  C79      1.0000 0.59300  0.18060  0.68830  Biso   1.000  C
  C80      1.0000 0.40700  0.68060  0.81170  Biso   1.000  C
  N5       1.0000 0.45790  0.83860  0.39880  Biso   1.000  N
  N6       1.0000 0.54210  0.33860  0.10120  Biso   1.000  N
  N7       1.0000 0.54210  0.16140  0.60120  Biso   1.000  N
  N8       1.0000 0.45790  0.66140  0.89880  Biso   1.000  N
  C81      1.0000 0.95430  0.87720  0.10160  Biso   1.000  C
  C82      1.0000 0.04570  0.37720  0.39840  Biso   1.000  C
  C83      1.0000 0.04570  0.12280  0.89840  Biso   1.000  C
  C84      1.0000 0.95430  0.62280  0.60160  Biso   1.000  C
  N9       1.0000 0.86100  0.78450  0.11520  Biso   1.000  N
  N10      1.0000 0.13900  0.28450  0.38480  Biso   1.000  N
  N11      1.0000 0.13900  0.21550  0.88480  Biso   1.000  N
  N12      1.0000 0.86100  0.71550  0.61520  Biso   1.000  N
  C85      1.0000 0.73450  0.76810  0.17600  Biso   1.000  C
  C86      1.0000 0.26550  0.26810  0.32400  Biso   1.000  C
  C87      1.0000 0.26550  0.23190  0.82400  Biso   1.000  C
  C88      1.0000 0.73450  0.73190  0.67600  Biso   1.000  C
  H33      1.0000 0.71770  0.83810  0.22030  Biso   1.000  H
  H34      1.0000 0.28230  0.33810  0.27970  Biso   1.000  H
  H35      1.0000 0.28230  0.16190  0.77970  Biso   1.000  H
  H36      1.0000 0.71770  0.66190  0.72030  Biso   1.000  H
  O53      1.0000 0.77780  0.00850  0.30260  Biso   1.000  O
  O54      1.0000 0.22220  0.50850  0.19740  Biso   1.000  O
  O55      1.0000 0.22220  0.99150  0.69740  Biso   1.000  O
  O56      1.0000 0.77780  0.49150  0.80260  Biso   1.000  O
  O57      1.0000 0.72140  0.10090  0.28250  Biso   1.000  O
  O58      1.0000 0.27860  0.60090  0.21750  Biso   1.000  O
  O59      1.0000 0.27860  0.89910  0.71750  Biso   1.000  O
  O60      1.0000 0.72140  0.39910  0.78250  Biso   1.000  O
  O61      1.0000 0.71390  0.06830  0.17940  Biso   1.000  O
  O62      1.0000 0.28610  0.56830  0.32060  Biso   1.000  O
  O63      1.0000 0.28610  0.93170  0.82060  Biso   1.000  O
  O64      1.0000 0.71390  0.43170  0.67940  Biso   1.000  O
  O65      1.0000 0.56660  0.95660  0.15360  Biso   1.000  O
  O66      1.0000 0.43340  0.45660  0.34640  Biso   1.000  O
  O67      1.0000 0.43340  0.04340  0.84640  Biso   1.000  O
  O68      1.0000 0.56660  0.54340  0.65360  Biso   1.000  O
  O69      1.0000 0.51860  0.03160  0.30170  Biso   1.000  O
  O70      1.0000 0.48140  0.53160  0.19830  Biso   1.000  O
  O71      1.0000 0.48140  0.96840  0.69830  Biso   1.000  O
  O72      1.0000 0.51860  0.46840  0.80170  Biso   1.000  O
  H37      1.0000 0.93780  0.21390  0.20030  Biso   1.000  H
  H38      1.0000 0.06220  0.71390  0.29970  Biso   1.000  H
  H39      1.0000 0.06220  0.78610  0.79970  Biso   1.000  H
  H40      1.0000 0.93780  0.28610  0.70030  Biso   1.000  H
  C89      1.0000 0.89630  0.27890  0.24660  Biso   1.000  C
  C90      1.0000 0.10370  0.77890  0.25340  Biso   1.000  C
  C91      1.0000 0.10370  0.72110  0.75340  Biso   1.000  C
  C92      1.0000 0.89630  0.22110  0.74660  Biso   1.000  C
  C93      1.0000 0.92400  0.14470  0.35550  Biso   1.000  C
  C94      1.0000 0.07600  0.64470  0.14450  Biso   1.000  C
  C95      1.0000 0.07600  0.85530  0.64450  Biso   1.000  C
  C96      1.0000 0.92400  0.35530  0.85550  Biso   1.000  C
  N13      1.0000 0.89960  0.24600  0.32980  Biso   1.000  N
  N14      1.0000 0.10040  0.74600  0.17020  Biso   1.000  N
  N15      1.0000 0.10040  0.75400  0.67020  Biso   1.000  N
  N16      1.0000 0.89960  0.25400  0.82980  Biso   1.000  N
  C97      1.0000 0.44070  0.07150  0.08550  Biso   1.000  C
  C98      1.0000 0.55930  0.57150  0.41450  Biso   1.000  C
  C99      1.0000 0.55930  0.92850  0.91450  Biso   1.000  C
  C100     1.0000 0.44070  0.42850  0.58550  Biso   1.000  C
  N17      1.0000 0.55700  0.16110  0.08360  Biso   1.000  N
  N18      1.0000 0.44300  0.66110  0.41640  Biso   1.000  N
  N19      1.0000 0.44300  0.83890  0.91640  Biso   1.000  N
  N20      1.0000 0.55700  0.33890  0.58360  Biso   1.000  N
  C101     1.0000 0.33210  0.26550  0.14190  Biso   1.000  C
  C102     1.0000 0.66790  0.76550  0.35810  Biso   1.000  C
  C103     1.0000 0.66790  0.73450  0.85810  Biso   1.000  C
  C104     1.0000 0.33210  0.23450  0.64190  Biso   1.000  C
  Cu1      1.0000 0.55077  0.24979  0.09234  Biso   1.000  Cu
  Cu2      1.0000 0.44923  0.74979  0.40766  Biso   1.000  Cu
  Cu3      1.0000 0.44923  0.75021  0.90766  Biso   1.000  Cu
  Cu4      1.0000 0.55077  0.25021  0.59234  Biso   1.000  Cu
  H41      1.0000 0.20850  0.27290  0.18830  Biso   1.000  H
  H42      1.0000 0.79150  0.77290  0.31170  Biso   1.000  H
  H43      1.0000 0.79150  0.72710  0.81170  Biso   1.000  H
  H44      1.0000 0.20850  0.22710  0.68830  Biso   1.000  H
  C105     1.0000 0.49950  0.89530  0.25920  Biso   1.000  C
  C106     1.0000 0.50050  0.39530  0.24080  Biso   1.000  C
  C107     1.0000 0.50050  0.10470  0.74080  Biso   1.000  C
  C108     1.0000 0.49950  0.60470  0.75920  Biso   1.000  C
  H45      1.0000 0.46040  0.95710  0.46520  Biso   1.000  H
  H46      1.0000 0.53960  0.45710  0.03480  Biso   1.000  H
  H47      1.0000 0.53960  0.04290  0.53480  Biso   1.000  H
  H48      1.0000 0.46040  0.54290  0.96520  Biso   1.000  H
  C109     1.0000 0.47290  0.87310  0.43930  Biso   1.000  C
  C110     1.0000 0.52710  0.37310  0.06070  Biso   1.000  C
  C111     1.0000 0.52710  0.12690  0.56070  Biso   1.000  C
  C112     1.0000 0.47290  0.62690  0.93930  Biso   1.000  C
  C113     1.0000 0.44370  0.83600  0.26700  Biso   1.000  C
  C114     1.0000 0.55630  0.33600  0.23300  Biso   1.000  C
  C115     1.0000 0.55630  0.16400  0.73300  Biso   1.000  C
  C116     1.0000 0.44370  0.66400  0.76700  Biso   1.000  C
  N21      1.0000 0.37980  0.76190  0.32120  Biso   1.000  N
  N22      1.0000 0.62020  0.26190  0.17880  Biso   1.000  N
  N23      1.0000 0.62020  0.23810  0.67880  Biso   1.000  N
  N24      1.0000 0.37980  0.73810  0.82120  Biso   1.000  N
  C117     1.0000 0.93210  0.93520  0.08460  Biso   1.000  C
  C118     1.0000 0.06790  0.43520  0.41540  Biso   1.000  C
  C119     1.0000 0.06790  0.06480  0.91540  Biso   1.000  C
  C120     1.0000 0.93210  0.56480  0.58460  Biso   1.000  C
  N25      1.0000 0.04860  0.84520  0.08990  Biso   1.000  N
  N26      1.0000 0.95140  0.34520  0.41010  Biso   1.000  N
  N27      1.0000 0.95140  0.15480  0.91010  Biso   1.000  N
  N28      1.0000 0.04860  0.65480  0.58990  Biso   1.000  N
  C121     1.0000 0.79160  0.75130  0.13770  Biso   1.000  C
  C122     1.0000 0.20840  0.25130  0.36230  Biso   1.000  C
  C123     1.0000 0.20840  0.24870  0.86230  Biso   1.000  C
  C124     1.0000 0.79160  0.74870  0.63770  Biso   1.000  C
  Cu5      1.0000 0.04109  0.75498  0.09488  Biso   1.000  Cu
  Cu6      1.0000 0.95891  0.25498  0.40512  Biso   1.000  Cu
  Cu7      1.0000 0.95891  0.24502  0.90512  Biso   1.000  Cu
  Cu8      1.0000 0.04109  0.74502  0.59488  Biso   1.000  Cu
  H49      1.0000 0.68380  0.74200  0.18970  Biso   1.000  H
  H50      1.0000 0.31620  0.24200  0.31030  Biso   1.000  H
  H51      1.0000 0.31620  0.25800  0.81030  Biso   1.000  H
  H52      1.0000 0.68380  0.75800  0.68970  Biso   1.000  H
  C125     1.0000 0.78730  0.06480  0.30830  Biso   1.000  C
  C126     1.0000 0.21270  0.56480  0.19170  Biso   1.000  C
  C127     1.0000 0.21270  0.93520  0.69170  Biso   1.000  C
  C128     1.0000 0.78730  0.43520  0.80830  Biso   1.000  C
  H53      1.0000 0.72020  0.05040  0.15140  Biso   1.000  H
  H54      1.0000 0.27980  0.55040  0.34860  Biso   1.000  H
  H55      1.0000 0.27980  0.94960  0.84860  Biso   1.000  H
  H56      1.0000 0.72020  0.44960  0.65140  Biso   1.000  H
  H57      1.0000 0.78530  0.07830  0.19360  Biso   1.000  H
  H58      1.0000 0.21470  0.57830  0.30640  Biso   1.000  H
  H59      1.0000 0.21470  0.92170  0.80640  Biso   1.000  H
  H60      1.0000 0.78530  0.42170  0.69360  Biso   1.000  H
  H61      1.0000 0.49320  0.96540  0.14120  Biso   1.000  H
  H62      1.0000 0.50680  0.46540  0.35880  Biso   1.000  H
  H63      1.0000 0.50680  0.03460  0.85880  Biso   1.000  H
  H64      1.0000 0.49320  0.53460  0.64120  Biso   1.000  H
  H65      1.0000 0.57250  0.91770  0.15630  Biso   1.000  H
  H66      1.0000 0.42750  0.41770  0.34370  Biso   1.000  H
  H67      1.0000 0.42750  0.08230  0.84370  Biso   1.000  H
  H68      1.0000 0.57250  0.58230  0.65630  Biso   1.000  H
  H69      1.0000 0.56200  0.02240  0.32980  Biso   1.000  H
  H70      1.0000 0.43800  0.52240  0.17020  Biso   1.000  H
  H71      1.0000 0.43800  0.97760  0.67020  Biso   1.000  H
  H72      1.0000 0.56200  0.47760  0.82980  Biso   1.000  H
  H73      1.0000 0.45000  0.01320  0.30000  Biso   1.000  H
  H74      1.0000 0.55000  0.51320  0.20000  Biso   1.000  H
  H75      1.0000 0.55000  0.98680  0.70000  Biso   1.000  H
  H76      1.0000 0.45000  0.48680  0.80000  Biso   1.000  H
  H77      1.0000 0.88200  0.30920  0.22300  Biso   1.000  H
  H78      1.0000 0.11800  0.80920  0.27700  Biso   1.000  H
  H79      1.0000 0.11800  0.69080  0.77700  Biso   1.000  H
  H80      1.0000 0.88200  0.19080  0.72300  Biso   1.000  H
  C129     1.0000 0.88780  0.29010  0.29580  Biso   1.000  C
  C130     1.0000 0.11220  0.79010  0.20420  Biso   1.000  C
  C131     1.0000 0.11220  0.70990  0.70420  Biso   1.000  C
  C132     1.0000 0.88780  0.20990  0.79580  Biso   1.000  C
  C133     1.0000 0.88190  0.08610  0.35090  Biso   1.000  C
  C134     1.0000 0.11810  0.58610  0.14910  Biso   1.000  C
  C135     1.0000 0.11810  0.91390  0.64910  Biso   1.000  C
  C136     1.0000 0.88190  0.41390  0.85090  Biso   1.000  C
  N29      1.0000 0.98180  0.16620  0.39970  Biso   1.000  N
  N30      1.0000 0.01820  0.66620  0.10030  Biso   1.000  N
  N31      1.0000 0.01820  0.83380  0.60030  Biso   1.000  N
  N32      1.0000 0.98180  0.33380  0.89970  Biso   1.000  N
  C137     1.0000 0.32770  0.03920  0.09480  Biso   1.000  C
  C138     1.0000 0.67230  0.53920  0.40520  Biso   1.000  C
  C139     1.0000 0.67230  0.96080  0.90520  Biso   1.000  C
  C140     1.0000 0.32770  0.46080  0.59480  Biso   1.000  C
  C141     1.0000 0.51540  0.04370  0.05700  Biso   1.000  C
  C142     1.0000 0.48460  0.54370  0.44300  Biso   1.000  C
  C143     1.0000 0.48460  0.95630  0.94300  Biso   1.000  C
  C144     1.0000 0.51540  0.45630  0.55700  Biso   1.000  C
  C145     1.0000 0.62590  0.13400  0.05440  Biso   1.000  C
  C146     1.0000 0.37410  0.63400  0.44560  Biso   1.000  C
  C147     1.0000 0.37410  0.86600  0.94560  Biso   1.000  C
  C148     1.0000 0.62590  0.36600  0.55440  Biso   1.000  C
  H81      1.0000 0.33430  0.30600  0.13390  Biso   1.000  H
  H82      1.0000 0.66570  0.80600  0.36610  Biso   1.000  H
  H83      1.0000 0.66570  0.69400  0.86610  Biso   1.000  H
  H84      1.0000 0.33430  0.19400  0.63390  Biso   1.000  H
  O73      1.0000 0.41040  0.25140  0.01000  Biso   1.000  O
  O74      1.0000 0.58960  0.75140  0.49000  Biso   1.000  O
  O75      1.0000 0.58960  0.74860  0.99000  Biso   1.000  O
  O76      1.0000 0.41040  0.24860  0.51000  Biso   1.000  O
  O77      1.0000 0.69320  0.26030  0.06020  Biso   1.000  O
  O78      1.0000 0.30680  0.76030  0.43980  Biso   1.000  O
  O79      1.0000 0.30680  0.73970  0.93980  Biso   1.000  O
  O80      1.0000 0.69320  0.23970  0.56020  Biso   1.000  O
  H85      1.0000 0.50540  0.85640  0.46960  Biso   1.000  H
  H86      1.0000 0.49460  0.35640  0.03040  Biso   1.000  H
  H87      1.0000 0.49460  0.14360  0.53040  Biso   1.000  H
  H88      1.0000 0.50540  0.64360  0.96960  Biso   1.000  H
  C149     1.0000 0.44040  0.79250  0.23020  Biso   1.000  C
  C150     1.0000 0.55960  0.29250  0.26980  Biso   1.000  C
  C151     1.0000 0.55960  0.20750  0.76980  Biso   1.000  C
  C152     1.0000 0.44040  0.70750  0.73020  Biso   1.000  C
  C153     1.0000 0.37950  0.72070  0.28480  Biso   1.000  C
  C154     1.0000 0.62050  0.22070  0.21520  Biso   1.000  C
  C155     1.0000 0.62050  0.27930  0.71520  Biso   1.000  C
  C156     1.0000 0.37950  0.77930  0.78480  Biso   1.000  C
  C157     1.0000 0.82090  0.97020  0.09380  Biso   1.000  C
  C158     1.0000 0.17910  0.47020  0.40620  Biso   1.000  C
  C159     1.0000 0.17910  0.02980  0.90620  Biso   1.000  C
  C160     1.0000 0.82090  0.52980  0.59380  Biso   1.000  C
  C161     1.0000 0.01270  0.96240  0.05800  Biso   1.000  C
  C162     1.0000 0.98730  0.46240  0.44200  Biso   1.000  C
  C163     1.0000 0.98730  0.03760  0.94200  Biso   1.000  C
  C164     1.0000 0.01270  0.53760  0.55800  Biso   1.000  C
  C165     1.0000 0.12630  0.87190  0.06340  Biso   1.000  C
  C166     1.0000 0.87370  0.37190  0.43660  Biso   1.000  C
  C167     1.0000 0.87370  0.12810  0.93660  Biso   1.000  C
  C168     1.0000 0.12630  0.62810  0.56340  Biso   1.000  C
  H89      1.0000 0.77970  0.71210  0.12650  Biso   1.000  H
  H90      1.0000 0.22030  0.21210  0.37350  Biso   1.000  H
  H91      1.0000 0.22030  0.28790  0.87350  Biso   1.000  H
  H92      1.0000 0.77970  0.78790  0.62650  Biso   1.000  H
  H93      1.0000 0.87360  0.32900  0.30580  Biso   1.000  H
  H94      1.0000 0.12640  0.82900  0.19420  Biso   1.000  H
  H95      1.0000 0.12640  0.67100  0.69420  Biso   1.000  H
  H96      1.0000 0.87360  0.17100  0.80580  Biso   1.000  H
  C169     1.0000 0.92050  0.04690  0.38990  Biso   1.000  C
  C170     1.0000 0.07950  0.54690  0.11010  Biso   1.000  C
  C171     1.0000 0.07950  0.95310  0.61010  Biso   1.000  C
  C172     1.0000 0.92050  0.45310  0.88990  Biso   1.000  C
  C173     1.0000 0.01480  0.12790  0.43720  Biso   1.000  C
  C174     1.0000 0.98520  0.62790  0.06280  Biso   1.000  C
  C175     1.0000 0.98520  0.87210  0.56280  Biso   1.000  C
  C176     1.0000 0.01480  0.37210  0.93720  Biso   1.000  C
  N33      1.0000 0.98030  0.25160  0.47940  Biso   1.000  N
  N34      1.0000 0.01970  0.75160  0.02060  Biso   1.000  N
  N35      1.0000 0.01970  0.74840  0.52060  Biso   1.000  N
  N36      1.0000 0.98030  0.24840  0.97940  Biso   1.000  N
  O81      1.0000 0.33970  0.98480  0.10730  Biso   1.000  O
  O82      1.0000 0.66030  0.48480  0.39270  Biso   1.000  O
  O83      1.0000 0.66030  0.01520  0.89270  Biso   1.000  O
  O84      1.0000 0.33970  0.51520  0.60730  Biso   1.000  O
  O85      1.0000 0.23100  0.06820  0.08660  Biso   1.000  O
  O86      1.0000 0.76900  0.56820  0.41340  Biso   1.000  O
  O87      1.0000 0.76900  0.93180  0.91340  Biso   1.000  O
  O88      1.0000 0.23100  0.43180  0.58660  Biso   1.000  O
  H97      1.0000 0.50330  0.00360  0.04820  Biso   1.000  H
  H98      1.0000 0.49670  0.50360  0.45180  Biso   1.000  H
  H99      1.0000 0.49670  0.99640  0.95180  Biso   1.000  H
  H100     1.0000 0.50330  0.49640  0.54820  Biso   1.000  H
  C177     1.0000 0.60840  0.07510  0.04120  Biso   1.000  C
  C178     1.0000 0.39160  0.57510  0.45880  Biso   1.000  C
  C179     1.0000 0.39160  0.92490  0.95880  Biso   1.000  C
  C180     1.0000 0.60840  0.42490  0.54120  Biso   1.000  C
  H101     1.0000 0.68710  0.15550  0.04280  Biso   1.000  H
  H102     1.0000 0.31290  0.65550  0.45720  Biso   1.000  H
  H103     1.0000 0.31290  0.84450  0.95720  Biso   1.000  H
  H104     1.0000 0.68710  0.34450  0.54280  Biso   1.000  H
  C181     1.0000 0.40660  0.73490  0.23860  Biso   1.000  C
  C182     1.0000 0.59340  0.23490  0.26140  Biso   1.000  C
  C183     1.0000 0.59340  0.26510  0.76140  Biso   1.000  C
  C184     1.0000 0.40660  0.76510  0.73860  Biso   1.000  C
  H105     1.0000 0.46160  0.80270  0.19940  Biso   1.000  H
  H106     1.0000 0.53840  0.30270  0.30060  Biso   1.000  H
  H107     1.0000 0.53840  0.19730  0.80060  Biso   1.000  H
  H108     1.0000 0.46160  0.69730  0.69940  Biso   1.000  H
  H109     1.0000 0.36020  0.68120  0.29140  Biso   1.000  H
  H110     1.0000 0.63980  0.18120  0.20860  Biso   1.000  H
  H111     1.0000 0.63980  0.31880  0.70860  Biso   1.000  H
  H112     1.0000 0.36020  0.81880  0.79140  Biso   1.000  H
  O89      1.0000 0.83620  0.02380  0.10540  Biso   1.000  O
  O90      1.0000 0.16380  0.52380  0.39460  Biso   1.000  O
  O91      1.0000 0.16380  0.97620  0.89460  Biso   1.000  O
  O92      1.0000 0.83620  0.47620  0.60540  Biso   1.000  O
  O93      1.0000 0.72220  0.94240  0.08680  Biso   1.000  O
  O94      1.0000 0.27780  0.44240  0.41320  Biso   1.000  O
  O95      1.0000 0.27780  0.05760  0.91320  Biso   1.000  O
  O96      1.0000 0.72220  0.55760  0.58680  Biso   1.000  O
  H113     1.0000 0.00120  0.00180  0.04720  Biso   1.000  H
  H114     1.0000 0.99880  0.50180  0.45280  Biso   1.000  H
  H115     1.0000 0.99880  0.99820  0.95280  Biso   1.000  H
  H116     1.0000 0.00120  0.49820  0.54720  Biso   1.000  H
  C185     1.0000 0.11130  0.93000  0.04750  Biso   1.000  C
  C186     1.0000 0.88870  0.43000  0.45250  Biso   1.000  C
  C187     1.0000 0.88870  0.07000  0.95250  Biso   1.000  C
  C188     1.0000 0.11130  0.57000  0.54750  Biso   1.000  C
  H117     1.0000 0.19190  0.85030  0.05570  Biso   1.000  H
  H118     1.0000 0.80810  0.35030  0.44430  Biso   1.000  H
  H119     1.0000 0.80810  0.14970  0.94430  Biso   1.000  H
  H120     1.0000 0.19190  0.64970  0.55570  Biso   1.000  H
  C189     1.0000 0.99300  0.06660  0.43250  Biso   1.000  C
  C190     1.0000 0.00700  0.56660  0.06750  Biso   1.000  C
  C191     1.0000 0.00700  0.93340  0.56750  Biso   1.000  C
  C192     1.0000 0.99300  0.43340  0.93250  Biso   1.000  C
  H121     1.0000 0.89740  0.00680  0.38720  Biso   1.000  H
  H122     1.0000 0.10260  0.50680  0.11280  Biso   1.000  H
  H123     1.0000 0.10260  0.99320  0.61280  Biso   1.000  H
  H124     1.0000 0.89740  0.49320  0.88720  Biso   1.000  H
  H125     1.0000 0.05350  0.14270  0.46730  Biso   1.000  H
  H126     1.0000 0.94650  0.64270  0.03270  Biso   1.000  H
  H127     1.0000 0.94650  0.85730  0.53270  Biso   1.000  H
  H128     1.0000 0.05350  0.35730  0.96730  Biso   1.000  H
  C193     1.0000 0.07640  0.28000  0.50510  Biso   1.000  C
  C194     1.0000 0.92360  0.78000  0.99490  Biso   1.000  C
  C195     1.0000 0.92360  0.72000  0.49490  Biso   1.000  C
  C196     1.0000 0.07640  0.22000  0.00510  Biso   1.000  C
  C197     1.0000 0.89220  0.23080  0.50390  Biso   1.000  C
  C198     1.0000 0.10780  0.73080  0.99610  Biso   1.000  C
  C199     1.0000 0.10780  0.76920  0.49610  Biso   1.000  C
  C200     1.0000 0.89220  0.26920  0.00390  Biso   1.000  C
  H129     1.0000 0.65890  0.05630  0.02170  Biso   1.000  H
  H130     1.0000 0.34110  0.55630  0.47830  Biso   1.000  H
  H131     1.0000 0.34110  0.94370  0.97830  Biso   1.000  H
  H132     1.0000 0.65890  0.44370  0.52170  Biso   1.000  H
  H133     1.0000 0.40200  0.70610  0.21360  Biso   1.000  H
  H134     1.0000 0.59800  0.20610  0.28640  Biso   1.000  H
  H135     1.0000 0.59800  0.29390  0.78640  Biso   1.000  H
  H136     1.0000 0.40200  0.79390  0.71360  Biso   1.000  H
  H137     1.0000 0.16690  0.94770  0.02980  Biso   1.000  H
  H138     1.0000 0.83310  0.44770  0.47020  Biso   1.000  H
  H139     1.0000 0.83310  0.05230  0.97020  Biso   1.000  H
  H140     1.0000 0.16690  0.55230  0.52980  Biso   1.000  H
  H141     1.0000 0.02580  0.03980  0.45700  Biso   1.000  H
  H142     1.0000 0.97420  0.53980  0.04300  Biso   1.000  H
  H143     1.0000 0.97420  0.96020  0.54300  Biso   1.000  H
  H144     1.0000 0.02580  0.46020  0.95700  Biso   1.000  H
  C201     1.0000 0.08950  0.28830  0.55560  Biso   1.000  C
  C202     1.0000 0.91050  0.78830  0.94440  Biso   1.000  C
  C203     1.0000 0.91050  0.71170  0.44440  Biso   1.000  C
  C204     1.0000 0.08950  0.21170  0.05560  Biso   1.000  C
  H145     1.0000 0.13580  0.29440  0.48770  Biso   1.000  H
  H146     1.0000 0.86420  0.79440  0.01230  Biso   1.000  H
  H147     1.0000 0.86420  0.70560  0.51230  Biso   1.000  H
  H148     1.0000 0.13580  0.20560  0.98770  Biso   1.000  H
  C205     1.0000 0.89910  0.23900  0.55500  Biso   1.000  C
  C206     1.0000 0.10090  0.73900  0.94500  Biso   1.000  C
  C207     1.0000 0.10090  0.76100  0.44500  Biso   1.000  C
  C208     1.0000 0.89910  0.26100  0.05500  Biso   1.000  C
  C209     1.0000 0.78420  0.20510  0.46920  Biso   1.000  C
  C210     1.0000 0.21580  0.70510  0.03080  Biso   1.000  C
  C211     1.0000 0.21580  0.79490  0.53080  Biso   1.000  C
  C212     1.0000 0.78420  0.29490  0.96920  Biso   1.000  C
  C213     1.0000 0.99770  0.26610  0.58030  Biso   1.000  C
  C214     1.0000 0.00230  0.76610  0.91970  Biso   1.000  C
  C215     1.0000 0.00230  0.73390  0.41970  Biso   1.000  C
  C216     1.0000 0.99770  0.23390  0.08030  Biso   1.000  C
  H149     1.0000 0.15620  0.30770  0.57260  Biso   1.000  H
  H150     1.0000 0.84380  0.80770  0.92740  Biso   1.000  H
  H151     1.0000 0.84380  0.69230  0.42740  Biso   1.000  H
  H152     1.0000 0.15620  0.19230  0.07260  Biso   1.000  H
  C217     1.0000 0.79590  0.22370  0.58270  Biso   1.000  C
  C218     1.0000 0.20410  0.72370  0.91730  Biso   1.000  C
  C219     1.0000 0.20410  0.77630  0.41730  Biso   1.000  C
  C220     1.0000 0.79590  0.27630  0.08270  Biso   1.000  C
  C221     1.0000 0.73390  0.14830  0.47070  Biso   1.000  C
  C222     1.0000 0.26610  0.64830  0.02930  Biso   1.000  C
  C223     1.0000 0.26610  0.85170  0.52930  Biso   1.000  C
  C224     1.0000 0.73390  0.35170  0.97070  Biso   1.000  C
  N37      1.0000 0.73530  0.24760  0.43670  Biso   1.000  N
  N38      1.0000 0.26470  0.74760  0.06330  Biso   1.000  N
  N39      1.0000 0.26470  0.75240  0.56330  Biso   1.000  N
  N40      1.0000 0.73530  0.25240  0.93670  Biso   1.000  N
  H153     1.0000 0.00440  0.26990  0.61470  Biso   1.000  H
  H154     1.0000 0.99560  0.76990  0.88530  Biso   1.000  H
  H155     1.0000 0.99560  0.73010  0.38530  Biso   1.000  H
  H156     1.0000 0.00440  0.23010  0.11470  Biso   1.000  H
  O97      1.0000 0.82210  0.20390  0.62570  Biso   1.000  O
  O98      1.0000 0.17790  0.70390  0.87430  Biso   1.000  O
  O99      1.0000 0.17790  0.79610  0.37430  Biso   1.000  O
  O100     1.0000 0.82210  0.29610  0.12570  Biso   1.000  O
  C225     1.0000 0.62320  0.14050  0.43720  Biso   1.000  C
  C226     1.0000 0.37680  0.64050  0.06280  Biso   1.000  C
  C227     1.0000 0.37680  0.85950  0.56280  Biso   1.000  C
  C228     1.0000 0.62320  0.35950  0.93720  Biso   1.000  C
  C229     1.0000 0.78930  0.09720  0.50030  Biso   1.000  C
  C230     1.0000 0.21070  0.59720  0.99970  Biso   1.000  C
  C231     1.0000 0.21070  0.90280  0.49970  Biso   1.000  C
  C232     1.0000 0.78930  0.40280  0.00030  Biso   1.000  C
  C233     1.0000 0.62900  0.23760  0.40750  Biso   1.000  C
  C234     1.0000 0.37100  0.73760  0.09250  Biso   1.000  C
  C235     1.0000 0.37100  0.76240  0.59250  Biso   1.000  C
  C236     1.0000 0.62900  0.26240  0.90750  Biso   1.000  C
  H157     1.0000 0.58520  0.10340  0.43650  Biso   1.000  H
  H158     1.0000 0.41480  0.60340  0.06350  Biso   1.000  H
  H159     1.0000 0.41480  0.89660  0.56350  Biso   1.000  H
  H160     1.0000 0.58520  0.39660  0.93650  Biso   1.000  H
  C237     1.0000 0.57100  0.18490  0.40630  Biso   1.000  C
  C238     1.0000 0.42900  0.68490  0.09370  Biso   1.000  C
  C239     1.0000 0.42900  0.81510  0.59370  Biso   1.000  C
  C240     1.0000 0.57100  0.31510  0.90630  Biso   1.000  C
  O101     1.0000 0.87660  0.10950  0.53260  Biso   1.000  O
  O102     1.0000 0.12340  0.60950  0.96740  Biso   1.000  O
  O103     1.0000 0.12340  0.89050  0.46740  Biso   1.000  O
  O104     1.0000 0.87660  0.39050  0.03260  Biso   1.000  O
  O105     1.0000 0.74600  0.04660  0.48890  Biso   1.000  O
  O106     1.0000 0.25400  0.54660  0.01110  Biso   1.000  O
  O107     1.0000 0.25400  0.95340  0.51110  Biso   1.000  O
  O108     1.0000 0.74600  0.45340  0.98890  Biso   1.000  O
  H161     1.0000 0.59470  0.26870  0.38750  Biso   1.000  H
  H162     1.0000 0.40530  0.76870  0.11250  Biso   1.000  H
  H163     1.0000 0.40530  0.73130  0.61250  Biso   1.000  H
  H164     1.0000 0.59470  0.23130  0.88750  Biso   1.000  H
  H165     1.0000 0.49880  0.17870  0.38550  Biso   1.000  H
  H166     1.0000 0.50120  0.67870  0.11450  Biso   1.000  H
  H167     1.0000 0.50120  0.82130  0.61450  Biso   1.000  H
  H168     1.0000 0.49880  0.32130  0.88550  Biso   1.000  H
  O109     1.0000 0.30570  0.06230  0.47490  Biso   1.000  O
  O110     1.0000 0.69430  0.56230  0.02510  Biso   1.000  O
  O111     1.0000 0.69430  0.93770  0.52510  Biso   1.000  O
  O112     1.0000 0.30570  0.43770  0.97490  Biso   1.000  O
  O113     1.0000 0.70630  0.86190  0.00670  Biso   1.000  O
  O114     1.0000 0.29370  0.36190  0.49330  Biso   1.000  O
  O115     1.0000 0.29370  0.13810  0.99330  Biso   1.000  O
  O116     1.0000 0.70630  0.63810  0.50670  Biso   1.000  O
  O117     1.0000 0.78520  0.89520  0.37010  Biso   1.000  O
  O118     1.0000 0.21480  0.39520  0.12990  Biso   1.000  O
  O119     1.0000 0.21480  0.10480  0.62990  Biso   1.000  O
  O120     1.0000 0.78520  0.60480  0.87010  Biso   1.000  O
  O121     1.0000 0.03660  0.89780  0.36960  Biso   1.000  O
  O122     1.0000 0.96340  0.39780  0.13040  Biso   1.000  O
  O123     1.0000 0.96340  0.10220  0.63040  Biso   1.000  O
  O124     1.0000 0.03660  0.60220  0.86960  Biso   1.000  O
  O125     1.0000 0.64870  0.00100  0.39420  Biso   1.000  O
  O126     1.0000 0.35130  0.50100  0.10580  Biso   1.000  O
  O127     1.0000 0.35130  0.99900  0.60580  Biso   1.000  O
  O128     1.0000 0.64870  0.49900  0.89420  Biso   1.000  O
  O129     1.0000 0.23840  0.15480  0.53160  Biso   1.000  O
  O130     1.0000 0.76160  0.65480  0.96840  Biso   1.000  O
  O131     1.0000 0.76160  0.84520  0.46840  Biso   1.000  O
  O132     1.0000 0.23840  0.34520  0.03160  Biso   1.000  O
  O133     1.0000 0.37850  0.13520  0.31070  Biso   1.000  O
  O134     1.0000 0.62150  0.63520  0.18930  Biso   1.000  O
  O135     1.0000 0.62150  0.86480  0.68930  Biso   1.000  O
  O136     1.0000 0.37850  0.36480  0.81070  Biso   1.000  O
  O137     1.0000 0.74810  0.59790  0.12520  Biso   1.000  O
  O138     1.0000 0.25190  0.09790  0.37480  Biso   1.000  O
  O139     1.0000 0.25190  0.40210  0.87480  Biso   1.000  O
  O140     1.0000 0.74810  0.90210  0.62520  Biso   1.000  O
  C241     1.0000 0.65310  0.12780  0.43070  Biso   1.000  C
  C242     1.0000 0.34690  0.62780  0.06930  Biso   1.000  C
  C243     1.0000 0.34690  0.87220  0.56930  Biso   1.000  C
  C244     1.0000 0.65310  0.37220  0.93070  Biso   1.000  C
  H169     1.0000 0.61940  0.08980  0.43170  Biso   1.000  H
  H170     1.0000 0.38060  0.58980  0.06830  Biso   1.000  H
  H171     1.0000 0.38060  0.91020  0.56830  Biso   1.000  H
  H172     1.0000 0.61940  0.41020  0.93170  Biso   1.000  H
  N41      1.0000 0.75400  0.24130  0.42770  Biso   1.000  N
  N42      1.0000 0.24600  0.74130  0.07230  Biso   1.000  N
  N43      1.0000 0.24600  0.75870  0.57230  Biso   1.000  N
  N44      1.0000 0.75400  0.25870  0.92770  Biso   1.000  N
  C245     1.0000 0.67300  0.22080  0.38760  Biso   1.000  C
  C246     1.0000 0.32700  0.72080  0.11240  Biso   1.000  C
  C247     1.0000 0.32700  0.77920  0.61240  Biso   1.000  C
  C248     1.0000 0.67300  0.27920  0.88760  Biso   1.000  C
  H173     1.0000 0.65250  0.24510  0.35990  Biso   1.000  H
  H174     1.0000 0.34750  0.74510  0.14010  Biso   1.000  H
  H175     1.0000 0.34750  0.75490  0.64010  Biso   1.000  H
  H176     1.0000 0.65250  0.25490  0.85990  Biso   1.000  H
  C249     1.0000 0.62300  0.16410  0.38910  Biso   1.000  C
  C250     1.0000 0.37700  0.66410  0.11090  Biso   1.000  C
  C251     1.0000 0.37700  0.83590  0.61090  Biso   1.000  C
  C252     1.0000 0.62300  0.33590  0.88910  Biso   1.000  C
  H177     1.0000 0.56850  0.15030  0.36240  Biso   1.000  H
  H178     1.0000 0.43150  0.65030  0.13760  Biso   1.000  H
  H179     1.0000 0.43150  0.84970  0.63760  Biso   1.000  H
  H180     1.0000 0.56850  0.34970  0.86240  Biso   1.000  H
