data_image0
_cell_length_a       12.1832
_cell_length_b       14.8529
_cell_length_c       15.197
_cell_angle_alpha    92.957
_cell_angle_beta     105.125
_cell_angle_gamma    110.694

_symmetry_space_group_name_H-M    "P 1"
_symmetry_int_tables_number       1

loop_
  _symmetry_equiv_pos_as_xyz
  'x, y, z'

loop_
  _atom_site_label
  _atom_site_occupancy
  _atom_site_fract_x
  _atom_site_fract_y
  _atom_site_fract_z
  _atom_site_thermal_displace_type
  _atom_site_B_iso_or_equiv
  _atom_site_type_symbol
  C1       1.0000 0.14370  0.15980  0.61900  Biso   1.000  C
  C2       1.0000 0.85630  0.84020  0.38100  Biso   1.000  C
  C3       1.0000 0.17380  0.06890  0.63620  Biso   1.000  C
  C4       1.0000 0.82620  0.93110  0.36380  Biso   1.000  C
  C5       1.0000 0.17040  0.03380  0.71960  Biso   1.000  C
  C6       1.0000 0.82960  0.96620  0.28040  Biso   1.000  C
  H1       1.0000 0.16520  0.07180  0.76780  Biso   1.000  H
  H2       1.0000 0.83480  0.92820  0.23220  Biso   1.000  H
  C7       1.0000 0.17450  0.94260  0.73110  Biso   1.000  C
  C8       1.0000 0.82550  0.05740  0.26890  Biso   1.000  C
  H3       1.0000 0.17870  0.92080  0.78770  Biso   1.000  H
  H4       1.0000 0.82130  0.07920  0.21230  Biso   1.000  H
  C9       1.0000 0.17230  0.88590  0.65540  Biso   1.000  C
  C10      1.0000 0.82770  0.11410  0.34460  Biso   1.000  C
  H5       1.0000 0.16700  0.82230  0.65980  Biso   1.000  H
  H6       1.0000 0.83300  0.17770  0.34020  Biso   1.000  H
  C11      1.0000 0.18430  0.01150  0.56580  Biso   1.000  C
  C12      1.0000 0.81570  0.98850  0.43420  Biso   1.000  C
  C13      1.0000 0.20310  0.03900  0.47760  Biso   1.000  C
  C14      1.0000 0.79690  0.96100  0.52240  Biso   1.000  C
  C15      1.0000 0.16450  0.97290  0.32380  Biso   1.000  C
  C16      1.0000 0.83550  0.02710  0.67620  Biso   1.000  C
  H7       1.0000 0.12940  0.91900  0.27730  Biso   1.000  H
  H8       1.0000 0.87060  0.08100  0.72270  Biso   1.000  H
  C17      1.0000 0.22670  0.06300  0.30450  Biso   1.000  C
  C18      1.0000 0.77330  0.93700  0.69550  Biso   1.000  C
  H9       1.0000 0.23380  0.07030  0.24550  Biso   1.000  H
  H10      1.0000 0.76620  0.92970  0.75450  Biso   1.000  H
  C19      1.0000 0.27910  0.14340  0.37480  Biso   1.000  C
  C20      1.0000 0.72090  0.85660  0.62520  Biso   1.000  C
  H11      1.0000 0.32130  0.20490  0.36290  Biso   1.000  H
  H12      1.0000 0.67870  0.79510  0.63710  Biso   1.000  H
  C21      1.0000 0.26840  0.13150  0.46060  Biso   1.000  C
  C22      1.0000 0.73160  0.86850  0.53940  Biso   1.000  C
  C23      1.0000 0.33860  0.22190  0.53250  Biso   1.000  C
  C24      1.0000 0.66140  0.77810  0.46750  Biso   1.000  C
  C25      1.0000 0.35760  0.79180  0.46710  Biso   1.000  C
  C26      1.0000 0.64240  0.20820  0.53290  Biso   1.000  C
  C27      1.0000 0.39060  0.81650  0.57180  Biso   1.000  C
  C28      1.0000 0.60940  0.18350  0.42820  Biso   1.000  C
  C29      1.0000 0.44780  0.91590  0.60750  Biso   1.000  C
  C30      1.0000 0.55220  0.08410  0.39250  Biso   1.000  C
  H13      1.0000 0.45960  0.96180  0.56800  Biso   1.000  H
  H14      1.0000 0.54040  0.03820  0.43200  Biso   1.000  H
  C31      1.0000 0.48660  0.94560  0.70170  Biso   1.000  C
  C32      1.0000 0.51340  0.05440  0.29830  Biso   1.000  C
  H15      1.0000 0.52470  0.01140  0.72660  Biso   1.000  H
  H16      1.0000 0.47530  0.98860  0.27340  Biso   1.000  H
  C33      1.0000 0.46740  0.87480  0.75870  Biso   1.000  C
  C34      1.0000 0.53260  0.12520  0.24130  Biso   1.000  C
  H17      1.0000 0.49560  0.89500  0.82230  Biso   1.000  H
  H18      1.0000 0.50440  0.10500  0.17770  Biso   1.000  H
  C35      1.0000 0.37020  0.75030  0.63310  Biso   1.000  C
  C36      1.0000 0.62980  0.24970  0.36690  Biso   1.000  C
  C37      1.0000 0.30570  0.64150  0.60710  Biso   1.000  C
  C38      1.0000 0.69430  0.35850  0.39290  Biso   1.000  C
  C39      1.0000 0.31210  0.49320  0.64070  Biso   1.000  C
  C40      1.0000 0.68790  0.50680  0.35930  Biso   1.000  C
  H19      1.0000 0.34970  0.45950  0.67970  Biso   1.000  H
  H20      1.0000 0.65030  0.54050  0.32030  Biso   1.000  H
  C41      1.0000 0.21890  0.44190  0.56320  Biso   1.000  C
  C42      1.0000 0.78110  0.55810  0.43680  Biso   1.000  C
  H21      1.0000 0.19390  0.37460  0.54920  Biso   1.000  H
  H22      1.0000 0.80610  0.62540  0.45080  Biso   1.000  H
  C43      1.0000 0.16320  0.49130  0.50680  Biso   1.000  C
  C44      1.0000 0.83680  0.50870  0.49320  Biso   1.000  C
  H23      1.0000 0.09920  0.45780  0.45360  Biso   1.000  H
  H24      1.0000 0.90080  0.54220  0.54640  Biso   1.000  H
  C45      1.0000 0.20210  0.59320  0.52880  Biso   1.000  C
  C46      1.0000 0.79790  0.40680  0.47120  Biso   1.000  C
  C47      1.0000 0.12880  0.64490  0.46970  Biso   1.000  C
  C48      1.0000 0.87120  0.35510  0.53030  Biso   1.000  C
  C49      1.0000 0.33740  0.85130  0.03310  Biso   1.000  C
  C50      1.0000 0.66260  0.14870  0.96690  Biso   1.000  C
  C51      1.0000 0.44000  0.82890  0.01210  Biso   1.000  C
  C52      1.0000 0.56000  0.17110  0.98790  Biso   1.000  C
  C53      1.0000 0.56170  0.90010  0.04700  Biso   1.000  C
  C54      1.0000 0.43830  0.09990  0.95300  Biso   1.000  C
  H25      1.0000 0.57790  0.95330  0.09030  Biso   1.000  H
  H26      1.0000 0.42210  0.04670  0.90970  Biso   1.000  H
  C55      1.0000 0.65370  0.89180  0.01820  Biso   1.000  C
  C56      1.0000 0.34630  0.10820  0.98180  Biso   1.000  C
  H27      1.0000 0.73350  0.93800  0.04130  Biso   1.000  H
  H28      1.0000 0.26650  0.06200  0.95870  Biso   1.000  H
  C57      1.0000 0.62480  0.81060  0.95200  Biso   1.000  C
  C58      1.0000 0.37520  0.18940  0.04800  Biso   1.000  C
  H29      1.0000 0.68610  0.80590  0.92840  Biso   1.000  H
  H30      1.0000 0.31390  0.19410  0.07160  Biso   1.000  H
  C59      1.0000 0.42310  0.74520  0.95650  Biso   1.000  C
  C60      1.0000 0.57690  0.25480  0.04350  Biso   1.000  C
  C61      1.0000 0.30840  0.65380  0.92290  Biso   1.000  C
  C62      1.0000 0.69160  0.34620  0.07710  Biso   1.000  C
  C63      1.0000 0.20130  0.52730  0.79860  Biso   1.000  C
  C64      1.0000 0.79870  0.47270  0.20140  Biso   1.000  C
  H31      1.0000 0.19730  0.49510  0.74310  Biso   1.000  H
  H32      1.0000 0.80270  0.50490  0.25690  Biso   1.000  H
  C65      1.0000 0.10600  0.48750  0.84070  Biso   1.000  C
  C66      1.0000 0.89400  0.51250  0.15930  Biso   1.000  C
  H33      1.0000 0.03460  0.43430  0.80970  Biso   1.000  H
  H34      1.0000 0.96540  0.56570  0.19030  Biso   1.000  H
  C67      1.0000 0.12300  0.53020  0.92860  Biso   1.000  C
  C68      1.0000 0.87700  0.46980  0.07140  Biso   1.000  C
  H35      1.0000 0.06570  0.50200  0.95930  Biso   1.000  H
  H36      1.0000 0.93430  0.49800  0.04070  Biso   1.000  H
  C69      1.0000 0.22390  0.61440  0.97160  Biso   1.000  C
  C70      1.0000 0.77610  0.38560  0.02840  Biso   1.000  C
  C71      1.0000 0.23740  0.65240  0.06970  Biso   1.000  C
  C72      1.0000 0.76260  0.34760  0.93030  Biso   1.000  C
  C73      1.0000 0.60360  0.52030  0.85820  Biso   1.000  C
  C74      1.0000 0.39640  0.47970  0.14180  Biso   1.000  C
  C75      1.0000 0.87900  0.72800  0.08950  Biso   1.000  C
  C76      1.0000 0.12100  0.27200  0.91050  Biso   1.000  C
  H37      1.0000 0.93860  0.77040  0.14090  Biso   1.000  H
  H38      1.0000 0.06140  0.22960  0.85910  Biso   1.000  H
  N1       1.0000 0.90350  0.72430  0.00530  Biso   1.000  N
  N2       1.0000 0.09650  0.27570  0.99470  Biso   1.000  N
  C77      1.0000 0.81450  0.66090  0.92830  Biso   1.000  C
  C78      1.0000 0.18550  0.33910  0.07170  Biso   1.000  C
  C79      1.0000 0.70110  0.60120  0.93560  Biso   1.000  C
  C80      1.0000 0.29890  0.39880  0.06440  Biso   1.000  C
  C81      1.0000 0.67670  0.60480  0.01980  Biso   1.000  C
  C82      1.0000 0.32330  0.39520  0.98020  Biso   1.000  C
  H39      1.0000 0.60080  0.56490  0.02470  Biso   1.000  H
  H40      1.0000 0.39920  0.43510  0.97530  Biso   1.000  H
  C83      1.0000 0.76560  0.66820  0.09670  Biso   1.000  C
  C84      1.0000 0.23440  0.33180  0.90330  Biso   1.000  C
  H41      1.0000 0.74930  0.67070  0.15310  Biso   1.000  H
  H42      1.0000 0.25070  0.32930  0.84690  Biso   1.000  H
  C85      1.0000 0.85550  0.67370  0.84600  Biso   1.000  C
  C86      1.0000 0.14450  0.32630  0.15400  Biso   1.000  C
  C87      1.0000 0.02760  0.70420  0.79520  Biso   1.000  C
  C88      1.0000 0.97240  0.29580  0.20480  Biso   1.000  C
  H43      1.0000 0.11170  0.71940  0.80960  Biso   1.000  H
  H44      1.0000 0.88830  0.28060  0.19040  Biso   1.000  H
  C89      1.0000 0.95950  0.68620  0.70310  Biso   1.000  C
  C90      1.0000 0.04050  0.31380  0.29690  Biso   1.000  C
  H45      1.0000 0.99620  0.68610  0.65650  Biso   1.000  H
  H46      1.0000 0.00380  0.31390  0.34350  Biso   1.000  H
  C91      1.0000 0.83490  0.66820  0.68230  Biso   1.000  C
  C92      1.0000 0.16510  0.33180  0.31770  Biso   1.000  C
  H47      1.0000 0.78710  0.65960  0.62150  Biso   1.000  H
  H48      1.0000 0.21290  0.34040  0.37850  Biso   1.000  H
  C93      1.0000 0.78170  0.66310  0.75630  Biso   1.000  C
  C94      1.0000 0.21830  0.33690  0.24370  Biso   1.000  C
  C95      1.0000 0.64850  0.65240  0.72720  Biso   1.000  C
  C96      1.0000 0.35150  0.34760  0.27280  Biso   1.000  C
  N3       1.0000 0.17760  0.91950  0.57520  Biso   1.000  N
  N4       1.0000 0.82240  0.08050  0.42480  Biso   1.000  N
  N5       1.0000 0.15390  0.96160  0.40650  Biso   1.000  N
  N6       1.0000 0.84610  0.03840  0.59350  Biso   1.000  N
  N7       1.0000 0.41080  0.77970  0.72690  Biso   1.000  N
  N8       1.0000 0.58920  0.22030  0.27310  Biso   1.000  N
  N9       1.0000 0.35190  0.58990  0.66300  Biso   1.000  N
  N10      1.0000 0.64810  0.41010  0.33700  Biso   1.000  N
  N11      1.0000 0.51410  0.74080  0.92200  Biso   1.000  N
  N12      1.0000 0.48590  0.25920  0.07800  Biso   1.000  N
  N13      1.0000 0.29460  0.60940  0.83850  Biso   1.000  N
  N14      1.0000 0.70540  0.39060  0.16150  Biso   1.000  N
  N15      1.0000 0.97870  0.70100  0.86360  Biso   1.000  N
  N16      1.0000 0.02130  0.29900  0.13640  Biso   1.000  N
  N17      1.0000 0.99080  0.95060  0.89890  Biso   1.000  N
  N18      1.0000 0.00920  0.04940  0.10110  Biso   1.000  N
  O1       1.0000 0.18090  0.22430  0.69210  Biso   1.000  O
  O2       1.0000 0.81910  0.77570  0.30790  Biso   1.000  O
  O3       1.0000 0.08050  0.16250  0.54310  Biso   1.000  O
  O4       1.0000 0.91950  0.83750  0.45690  Biso   1.000  O
  O5       1.0000 0.40110  0.20910  0.60860  Biso   1.000  O
  O6       1.0000 0.59890  0.79090  0.39140  Biso   1.000  O
  O7       1.0000 0.33410  0.29810  0.50870  Biso   1.000  O
  O8       1.0000 0.66590  0.70190  0.49130  Biso   1.000  O
  O9       1.0000 0.37770  0.72050  0.43460  Biso   1.000  O
  O10      1.0000 0.62230  0.27950  0.56540  Biso   1.000  O
  O11      1.0000 0.30960  0.84310  0.42160  Biso   1.000  O
  O12      1.0000 0.69040  0.15690  0.57840  Biso   1.000  O
  O13      1.0000 0.12400  0.71810  0.50970  Biso   1.000  O
  O14      1.0000 0.87600  0.28190  0.49030  Biso   1.000  O
  O15      1.0000 0.07580  0.60670  0.38600  Biso   1.000  O
  O16      1.0000 0.92420  0.39330  0.61400  Biso   1.000  O
  O17      1.0000 0.44520  0.57040  0.39210  Biso   1.000  O
  O18      1.0000 0.55480  0.42960  0.60790  Biso   1.000  O
  H49      1.0000 0.39580  0.56190  0.42780  Biso   1.000  H
  H50      1.0000 0.60420  0.43810  0.57220  Biso   1.000  H
  H51      1.0000 0.52200  0.59350  0.42940  Biso   1.000  H
  H52      1.0000 0.47800  0.40650  0.57060  Biso   1.000  H
  O19      1.0000 0.20170  0.59250  0.26110  Biso   1.000  O
  O20      1.0000 0.79830  0.40750  0.73890  Biso   1.000  O
  H53      1.0000 0.16040  0.61840  0.22110  Biso   1.000  H
  H54      1.0000 0.83960  0.38160  0.77890  Biso   1.000  H
  H55      1.0000 0.18210  0.59630  0.31240  Biso   1.000  H
  H56      1.0000 0.81790  0.40370  0.68760  Biso   1.000  H
  O21      1.0000 0.57770  0.68470  0.22930  Biso   1.000  O
  O22      1.0000 0.42230  0.31530  0.77070  Biso   1.000  O
  H57      1.0000 0.57120  0.62680  0.20760  Biso   1.000  H
  H58      1.0000 0.42880  0.37320  0.79240  Biso   1.000  H
  H59      1.0000 0.64820  0.71210  0.27220  Biso   1.000  H
  H60      1.0000 0.35180  0.28790  0.72780  Biso   1.000  H
  O23      1.0000 0.34210  0.68140  0.12660  Biso   1.000  O
  O24      1.0000 0.65790  0.31860  0.87340  Biso   1.000  O
  O25      1.0000 0.14050  0.64470  0.08820  Biso   1.000  O
  O26      1.0000 0.85950  0.35530  0.91180  Biso   1.000  O
  O27      1.0000 0.23030  0.80590  0.97460  Biso   1.000  O
  O28      1.0000 0.76970  0.19410  0.02540  Biso   1.000  O
  O29      1.0000 0.36130  0.91010  0.10370  Biso   1.000  O
  O30      1.0000 0.63870  0.08990  0.89630  Biso   1.000  O
  O31      1.0000 0.64320  0.48260  0.80340  Biso   1.000  O
  O32      1.0000 0.35680  0.51740  0.19660  Biso   1.000  O
  O33      1.0000 0.49640  0.50080  0.85690  Biso   1.000  O
  O34      1.0000 0.50360  0.49920  0.14310  Biso   1.000  O
  O35      1.0000 0.61550  0.69020  0.78990  Biso   1.000  O
  O36      1.0000 0.38450  0.30980  0.21010  Biso   1.000  O
  O37      1.0000 0.58240  0.61320  0.64940  Biso   1.000  O
  O38      1.0000 0.41760  0.38680  0.35060  Biso   1.000  O
  O39      1.0000 0.13550  0.87320  0.10730  Biso   1.000  O
  O40      1.0000 0.86450  0.12680  0.89270  Biso   1.000  O
  H61      1.0000 0.10130  0.91740  0.10720  Biso   1.000  H
  H62      1.0000 0.89870  0.08260  0.89280  Biso   1.000  H
  H63      1.0000 0.21640  0.90640  0.12110  Biso   1.000  H
  H64      1.0000 0.78360  0.09360  0.87890  Biso   1.000  H
  O41      1.0000 0.07220  0.91630  0.91150  Biso   1.000  O
  O42      1.0000 0.92780  0.08370  0.08850  Biso   1.000  O
  O43      1.0000 0.01320  0.03480  0.87580  Biso   1.000  O
  O44      1.0000 0.98680  0.96520  0.12420  Biso   1.000  O
  O45      1.0000 0.88990  0.90680  0.91220  Biso   1.000  O
  O46      1.0000 0.11010  0.09320  0.08780  Biso   1.000  O
  Cu1      1.0000 0.06863  0.78372  0.98951  Biso   1.000  Cu
  Cu2      1.0000 0.93137  0.21628  0.01049  Biso   1.000  Cu
  Cu3      1.0000 0.44770  0.65786  0.79494  Biso   1.000  Cu
  Cu4      1.0000 0.55230  0.34214  0.20506  Biso   1.000  Cu
  Cu5      1.0000 0.11745  0.83349  0.45203  Biso   1.000  Cu
  Cu6      1.0000 0.88255  0.16651  0.54797  Biso   1.000  Cu
  Dy1      1.0000 0.41647  0.67430  0.28934  Biso   1.000  Dy
  Dy2      1.0000 0.58353  0.32570  0.71066  Biso   1.000  Dy
  O47      1.0000 0.36660  0.81320  0.27150  Biso   1.000  O
  O48      1.0000 0.63340  0.18680  0.72850  Biso   1.000  O
  H65      1.0000 0.30560  0.80350  0.22000  Biso   1.000  H
  H66      1.0000 0.69440  0.19650  0.78000  Biso   1.000  H
  H67      1.0000 0.34270  0.82930  0.31860  Biso   1.000  H
  H68      1.0000 0.65730  0.17070  0.68140  Biso   1.000  H
  O49      1.0000 0.02750  0.75620  0.32700  Biso   1.000  O
  O50      1.0000 0.97250  0.24380  0.67300  Biso   1.000  O
  H69      1.0000 0.99550  0.69140  0.32840  Biso   1.000  H
  H70      1.0000 0.00450  0.30860  0.67160  Biso   1.000  H
  H71      1.0000 0.07540  0.76370  0.28940  Biso   1.000  H
  H72      1.0000 0.92460  0.23630  0.71060  Biso   1.000  H
