data_image0
_cell_length_a       12.4202
_cell_length_b       13.843
_cell_length_c       13.9603
_cell_angle_alpha    90
_cell_angle_beta     115.446
_cell_angle_gamma    90

_symmetry_space_group_name_H-M    "P 1"
_symmetry_int_tables_number       1

loop_
  _symmetry_equiv_pos_as_xyz
  'x, y, z'

loop_
  _atom_site_label
  _atom_site_occupancy
  _atom_site_fract_x
  _atom_site_fract_y
  _atom_site_fract_z
  _atom_site_thermal_displace_type
  _atom_site_B_iso_or_equiv
  _atom_site_type_symbol
  Cu1      1.0000 0.51797  0.21504  0.13297  Biso   1.000  Cu
  Cu2      1.0000 0.48203  0.71504  0.86703  Biso   1.000  Cu
  Cu3      1.0000 0.41988  0.26741  0.25801  Biso   1.000  Cu
  Cu4      1.0000 0.58012  0.76741  0.74199  Biso   1.000  Cu
  O1       1.0000 0.26650  0.22760  0.14720  Biso   1.000  O
  O2       1.0000 0.73350  0.72760  0.85280  Biso   1.000  O
  O3       1.0000 0.59520  0.89200  0.81280  Biso   1.000  O
  O4       1.0000 0.40480  0.39200  0.18720  Biso   1.000  O
  O5       1.0000 0.34690  0.20160  0.03220  Biso   1.000  O
  O6       1.0000 0.65310  0.70160  0.96780  Biso   1.000  O
  O7       1.0000 0.51320  0.08420  0.19090  Biso   1.000  O
  O8       1.0000 0.48680  0.58420  0.80910  Biso   1.000  O
  O9       1.0000 0.58220  0.30070  0.35820  Biso   1.000  O
  O10      1.0000 0.41780  0.80070  0.64180  Biso   1.000  O
  O11      1.0000 0.48710  0.85160  0.90240  Biso   1.000  O
  O12      1.0000 0.51290  0.35160  0.09760  Biso   1.000  O
  O13      1.0000 0.33300  0.30520  0.35510  Biso   1.000  O
  O14      1.0000 0.66700  0.80520  0.64490  Biso   1.000  O
  H1       1.0000 0.36430  0.28200  0.42600  Biso   1.000  H
  H2       1.0000 0.63570  0.78200  0.57400  Biso   1.000  H
  O15      1.0000 0.44870  0.13460  0.31060  Biso   1.000  O
  O16      1.0000 0.55130  0.63460  0.68940  Biso   1.000  O
  O17      1.0000 0.66980  0.23680  0.26070  Biso   1.000  O
  O18      1.0000 0.33020  0.73680  0.73930  Biso   1.000  O
  N1       1.0000 0.99920  0.13390  0.82180  Biso   1.000  N
  N2       1.0000 0.00080  0.63390  0.17820  Biso   1.000  N
  N3       1.0000 0.70350  0.07510  0.84880  Biso   1.000  N
  N4       1.0000 0.29650  0.57510  0.15120  Biso   1.000  N
  H3       1.0000 0.75000  0.12350  0.85020  Biso   1.000  H
  H4       1.0000 0.25000  0.62350  0.14980  Biso   1.000  H
  H5       1.0000 0.69990  0.02310  0.81110  Biso   1.000  H
  H6       1.0000 0.30010  0.52310  0.18890  Biso   1.000  H
  N5       1.0000 0.63720  0.15620  0.96380  Biso   1.000  N
  N6       1.0000 0.36280  0.65620  0.03620  Biso   1.000  N
  C1       1.0000 0.63770  0.08040  0.90430  Biso   1.000  C
  C2       1.0000 0.36230  0.58040  0.09570  Biso   1.000  C
  C3       1.0000 0.54520  0.91190  0.87300  Biso   1.000  C
  C4       1.0000 0.45480  0.41190  0.12700  Biso   1.000  C
  N7       1.0000 0.57060  0.82500  0.36260  Biso   1.000  N
  N8       1.0000 0.42940  0.32500  0.63740  Biso   1.000  N
  N9       1.0000 0.19390  0.14550  0.82460  Biso   1.000  N
  N10      1.0000 0.80610  0.64550  0.17540  Biso   1.000  N
  H7       1.0000 0.16700  0.12870  0.75750  Biso   1.000  H
  H8       1.0000 0.83300  0.62870  0.24250  Biso   1.000  H
  H9       1.0000 0.27010  0.15830  0.86180  Biso   1.000  H
  H10      1.0000 0.72990  0.65830  0.13820  Biso   1.000  H
  C5       1.0000 0.56090  0.00970  0.91470  Biso   1.000  C
  C6       1.0000 0.43910  0.50970  0.08530  Biso   1.000  C
  N11      1.0000 0.73250  0.36940  0.56440  Biso   1.000  N
  N12      1.0000 0.26750  0.86940  0.43560  Biso   1.000  N
  H11      1.0000 0.75870  0.39530  0.62800  Biso   1.000  H
  H12      1.0000 0.24130  0.89530  0.37200  Biso   1.000  H
  H13      1.0000 0.65540  0.36260  0.52540  Biso   1.000  H
  H14      1.0000 0.34460  0.86260  0.47460  Biso   1.000  H
  N13      1.0000 0.94450  0.14820  0.88840  Biso   1.000  N
  N14      1.0000 0.05550  0.64820  0.11160  Biso   1.000  N
  C7       1.0000 0.26080  0.20440  0.05720  Biso   1.000  C
  C8       1.0000 0.73920  0.70440  0.94280  Biso   1.000  C
  N15      1.0000 0.93080  0.34810  0.58230  Biso   1.000  N
  N16      1.0000 0.06920  0.84810  0.41770  Biso   1.000  N
  N17      1.0000 0.53570  0.85820  0.43940  Biso   1.000  N
  N18      1.0000 0.46430  0.35820  0.56060  Biso   1.000  N
  C9       1.0000 0.81010  0.34020  0.52680  Biso   1.000  C
  C10      1.0000 0.18990  0.84020  0.47320  Biso   1.000  C
  C11      1.0000 0.97770  0.03950  0.66760  Biso   1.000  C
  C12      1.0000 0.02230  0.53950  0.33240  Biso   1.000  C
  H15      1.0000 0.05570  0.01430  0.70660  Biso   1.000  H
  H16      1.0000 0.94430  0.51430  0.29340  Biso   1.000  H
  N19      1.0000 0.56290  0.13990  0.01320  Biso   1.000  N
  N20      1.0000 0.43710  0.63990  0.98680  Biso   1.000  N
  N21      1.0000 0.98910  0.31200  0.52510  Biso   1.000  N
  N22      1.0000 0.01090  0.81200  0.47490  Biso   1.000  N
  C13      1.0000 0.14270  0.17650  0.97470  Biso   1.000  C
  C14      1.0000 0.85730  0.67650  0.02530  Biso   1.000  C
  C15      1.0000 0.70200  0.29760  0.89930  Biso   1.000  C
  C16      1.0000 0.29800  0.79760  0.10070  Biso   1.000  C
  H17      1.0000 0.65300  0.27870  0.82830  Biso   1.000  H
  H18      1.0000 0.34700  0.77870  0.17170  Biso   1.000  H
  C17      1.0000 0.11700  0.15180  0.87130  Biso   1.000  C
  C18      1.0000 0.88300  0.65180  0.12870  Biso   1.000  C
  C19      1.0000 0.92970  0.10370  0.71440  Biso   1.000  C
  C20      1.0000 0.07030  0.60370  0.28560  Biso   1.000  C
  C21      1.0000 0.03190  0.17460  0.97970  Biso   1.000  C
  C22      1.0000 0.96810  0.67460  0.02030  Biso   1.000  C
  H19      1.0000 0.02130  0.19050  0.04130  Biso   1.000  H
  H20      1.0000 0.97870  0.69050  0.95870  Biso   1.000  H
  C23      1.0000 0.96550  0.36730  0.76650  Biso   1.000  C
  C24      1.0000 0.03450  0.86730  0.23350  Biso   1.000  C
  H21      1.0000 0.89660  0.32950  0.75290  Biso   1.000  H
  H22      1.0000 0.10340  0.82950  0.24710  Biso   1.000  H
  C25      1.0000 0.81500  0.13830  0.66090  Biso   1.000  C
  C26      1.0000 0.18500  0.63830  0.33910  Biso   1.000  C
  H23      1.0000 0.78240  0.18130  0.69460  Biso   1.000  H
  H24      1.0000 0.21760  0.68130  0.30540  Biso   1.000  H
  C27      1.0000 0.51770  0.05330  0.98190  Biso   1.000  C
  C28      1.0000 0.48230  0.55330  0.01810  Biso   1.000  C
  H25      1.0000 0.46190  0.02370  0.00250  Biso   1.000  H
  H26      1.0000 0.53810  0.52370  0.99750  Biso   1.000  H
  C29      1.0000 0.49000  0.07060  0.27000  Biso   1.000  C
  C30      1.0000 0.51000  0.57060  0.73000  Biso   1.000  C
  C31      1.0000 0.78910  0.29800  0.42880  Biso   1.000  C
  C32      1.0000 0.21090  0.79800  0.57120  Biso   1.000  C
  C33      1.0000 0.70630  0.24290  0.98350  Biso   1.000  C
  C34      1.0000 0.29370  0.74290  0.01650  Biso   1.000  C
  C35      1.0000 0.99900  0.38490  0.68650  Biso   1.000  C
  C36      1.0000 0.00100  0.88490  0.31350  Biso   1.000  C
  C37      1.0000 0.51010  0.97520  0.31780  Biso   1.000  C
  C38      1.0000 0.48990  0.47520  0.68220  Biso   1.000  C
  C39      1.0000 0.62530  0.73240  0.37400  Biso   1.000  C
  C40      1.0000 0.37470  0.23240  0.62600  Biso   1.000  C
  C41      1.0000 0.90420  0.28180  0.43480  Biso   1.000  C
  C42      1.0000 0.09580  0.78180  0.56520  Biso   1.000  C
  H27      1.0000 0.91870  0.25240  0.37990  Biso   1.000  H
  H28      1.0000 0.08130  0.75240  0.62010  Biso   1.000  H
  C43      1.0000 0.67260  0.27550  0.34280  Biso   1.000  C
  C44      1.0000 0.32740  0.77550  0.65720  Biso   1.000  C
  C45      1.0000 0.90970  0.01210  0.56170  Biso   1.000  C
  C46      1.0000 0.09030  0.51210  0.43830  Biso   1.000  C
  H29      1.0000 0.94150  0.96770  0.52870  Biso   1.000  H
  H30      1.0000 0.05850  0.46770  0.47130  Biso   1.000  H
  C47      1.0000 0.79590  0.04960  0.50500  Biso   1.000  C
  C48      1.0000 0.20410  0.54960  0.49500  Biso   1.000  C
  H31      1.0000 0.75200  0.03450  0.43200  Biso   1.000  H
  H32      1.0000 0.24800  0.53450  0.56800  Biso   1.000  H
  N23      1.0000 0.58860  0.88110  0.20800  Biso   1.000  N
  N24      1.0000 0.41140  0.38110  0.79200  Biso   1.000  N
  H33      1.0000 0.57870  0.92700  0.16130  Biso   1.000  H
  H34      1.0000 0.42130  0.42700  0.83870  Biso   1.000  H
  H35      1.0000 0.61860  0.82490  0.20230  Biso   1.000  H
  H36      1.0000 0.38140  0.32490  0.79770  Biso   1.000  H
  C49      1.0000 0.77110  0.38100  0.92060  Biso   1.000  C
  C50      1.0000 0.22890  0.88100  0.07940  Biso   1.000  C
  H37      1.0000 0.76900  0.42010  0.86390  Biso   1.000  H
  H38      1.0000 0.23100  0.92010  0.13610  Biso   1.000  H
  C51      1.0000 0.74760  0.72810  0.40300  Biso   1.000  C
  C52      1.0000 0.25240  0.22810  0.59700  Biso   1.000  C
  H39      1.0000 0.79370  0.78540  0.41510  Biso   1.000  H
  H40      1.0000 0.20630  0.28540  0.58490  Biso   1.000  H
  C53      1.0000 0.77870  0.26860  0.08810  Biso   1.000  C
  C54      1.0000 0.22130  0.76860  0.91190  Biso   1.000  C
  H41      1.0000 0.78140  0.22970  0.14510  Biso   1.000  H
  H42      1.0000 0.21860  0.72970  0.85490  Biso   1.000  H
  C55      1.0000 0.09980  0.43870  0.70600  Biso   1.000  C
  C56      1.0000 0.90020  0.93870  0.29400  Biso   1.000  C
  H43      1.0000 0.12370  0.45010  0.65090  Biso   1.000  H
  H44      1.0000 0.87630  0.95010  0.34910  Biso   1.000  H
  C57      1.0000 0.74720  0.10880  0.55530  Biso   1.000  C
  C58      1.0000 0.25280  0.60880  0.44470  Biso   1.000  C
  H45      1.0000 0.66700  0.13000  0.51840  Biso   1.000  H
  H46      1.0000 0.33300  0.63000  0.48160  Biso   1.000  H
  C59      1.0000 0.50070  0.94890  0.40910  Biso   1.000  C
  C60      1.0000 0.49930  0.44890  0.59090  Biso   1.000  C
  H47      1.0000 0.47210  0.99100  0.44670  Biso   1.000  H
  H48      1.0000 0.52790  0.49100  0.55330  Biso   1.000  H
  C61      1.0000 0.55740  0.89720  0.28970  Biso   1.000  C
  C62      1.0000 0.44260  0.39720  0.71030  Biso   1.000  C
  C63      1.0000 0.84710  0.35210  0.10770  Biso   1.000  C
  C64      1.0000 0.15290  0.85210  0.89230  Biso   1.000  C
  H49      1.0000 0.89660  0.37120  0.17850  Biso   1.000  H
  H50      1.0000 0.10340  0.87120  0.82150  Biso   1.000  H
  C65      1.0000 0.84280  0.40670  0.02420  Biso   1.000  C
  C66      1.0000 0.15720  0.90670  0.97580  Biso   1.000  C
  H51      1.0000 0.89010  0.46350  0.03800  Biso   1.000  H
  H52      1.0000 0.10990  0.96350  0.96200  Biso   1.000  H
  C67      1.0000 0.73210  0.55660  0.39170  Biso   1.000  C
  C68      1.0000 0.26790  0.05660  0.60830  Biso   1.000  C
  H53      1.0000 0.76870  0.49560  0.39550  Biso   1.000  H
  H54      1.0000 0.23130  0.99560  0.60450  Biso   1.000  H
  C69      1.0000 0.55650  0.65100  0.35560  Biso   1.000  C
  C70      1.0000 0.44350  0.15100  0.64440  Biso   1.000  C
  H55      1.0000 0.47380  0.65560  0.33760  Biso   1.000  H
  H56      1.0000 0.52620  0.15560  0.66240  Biso   1.000  H
  C71      1.0000 0.79990  0.63830  0.41380  Biso   1.000  C
  C72      1.0000 0.20010  0.13830  0.58620  Biso   1.000  C
  H57      1.0000 0.88360  0.63340  0.43670  Biso   1.000  H
  H58      1.0000 0.11640  0.13340  0.56330  Biso   1.000  H
  C73      1.0000 0.03210  0.40460  0.86780  Biso   1.000  C
  C74      1.0000 0.96790  0.90460  0.13220  Biso   1.000  C
  H59      1.0000 0.00860  0.39270  0.92320  Biso   1.000  H
  H60      1.0000 0.99140  0.89270  0.07680  Biso   1.000  H
  C75      1.0000 0.16650  0.47630  0.80730  Biso   1.000  C
  C76      1.0000 0.83350  0.97630  0.19270  Biso   1.000  C
  H61      1.0000 0.23540  0.51410  0.82070  Biso   1.000  H
  H62      1.0000 0.76460  0.01410  0.17930  Biso   1.000  H
  C77      1.0000 0.13310  0.45920  0.88700  Biso   1.000  C
  C78      1.0000 0.86690  0.95920  0.11300  Biso   1.000  C
  H63      1.0000 0.17910  0.48470  0.95590  Biso   1.000  H
  H64      1.0000 0.82090  0.98470  0.04410  Biso   1.000  H
  C79      1.0000 0.22870  0.36460  0.31650  Biso   1.000  C
  C80      1.0000 0.77130  0.86460  0.68350  Biso   1.000  C
  H65      1.0000 0.20200  0.37340  0.37260  Biso   1.000  H
  H66      1.0000 0.79800  0.87340  0.62740  Biso   1.000  H
  H67      1.0000 0.16530  0.33340  0.25510  Biso   1.000  H
  H68      1.0000 0.83470  0.83340  0.74490  Biso   1.000  H
  H69      1.0000 0.24720  0.42760  0.29540  Biso   1.000  H
  H70      1.0000 0.75280  0.92760  0.70460  Biso   1.000  H
  C81      1.0000 0.61080  0.56110  0.36380  Biso   1.000  C
  C82      1.0000 0.38920  0.06110  0.63620  Biso   1.000  C
  H71      1.0000 0.56500  0.50360  0.35040  Biso   1.000  H
  H72      1.0000 0.43500  0.00360  0.64960  Biso   1.000  H
  O19      1.0000 0.76490  0.54830  0.69040  Biso   1.000  O
  O20      1.0000 0.23510  0.04830  0.30960  Biso   1.000  O
  H73      1.0000 0.70050  0.57920  0.66710  Biso   1.000  H
  H74      1.0000 0.29950  0.07920  0.33290  Biso   1.000  H
  C83      1.0000 0.85610  0.60950  0.70280  Biso   1.000  C
  C84      1.0000 0.14390  0.10950  0.29720  Biso   1.000  C
  H75      1.0000 0.83090  0.65280  0.64150  Biso   1.000  H
  H76      1.0000 0.16910  0.15280  0.35850  Biso   1.000  H
  H77      1.0000 0.92540  0.57190  0.70830  Biso   1.000  H
  H78      1.0000 0.07460  0.07190  0.29170  Biso   1.000  H
  H79      1.0000 0.87740  0.64770  0.76750  Biso   1.000  H
  H80      1.0000 0.12260  0.14770  0.23250  Biso   1.000  H
