data_image0
_cell_length_a       7.651
_cell_length_b       25.119
_cell_length_c       11.05
_cell_angle_alpha    90
_cell_angle_beta     108.8
_cell_angle_gamma    90

_symmetry_space_group_name_H-M    "P 1"
_symmetry_int_tables_number       1

loop_
  _symmetry_equiv_pos_as_xyz
  'x, y, z'

loop_
  _atom_site_label
  _atom_site_occupancy
  _atom_site_fract_x
  _atom_site_fract_y
  _atom_site_fract_z
  _atom_site_thermal_displace_type
  _atom_site_B_iso_or_equiv
  _atom_site_type_symbol
  Cu1      1.0000 0.24370  0.15970  0.10020  Biso   1.000  Cu
  Cu2      1.0000 0.25630  0.65970  0.39980  Biso   1.000  Cu
  Cu3      1.0000 0.75630  0.84030  0.89980  Biso   1.000  Cu
  Cu4      1.0000 0.74370  0.34030  0.60020  Biso   1.000  Cu
  Cu5      1.0000 0.75650  0.09910  0.64100  Biso   1.000  Cu
  Cu6      1.0000 0.74350  0.59910  0.85900  Biso   1.000  Cu
  Cu7      1.0000 0.24350  0.90090  0.35900  Biso   1.000  Cu
  Cu8      1.0000 0.25650  0.40090  0.14100  Biso   1.000  Cu
  O1       1.0000 0.21540  0.19290  0.25460  Biso   1.000  O
  O2       1.0000 0.28460  0.69290  0.24540  Biso   1.000  O
  O3       1.0000 0.78460  0.80710  0.74540  Biso   1.000  O
  O4       1.0000 0.71540  0.30710  0.75460  Biso   1.000  O
  O5       1.0000 0.50830  0.14500  0.17340  Biso   1.000  O
  O6       1.0000 0.99170  0.64500  0.32660  Biso   1.000  O
  O7       1.0000 0.49170  0.85500  0.82660  Biso   1.000  O
  O8       1.0000 0.00830  0.35500  0.67340  Biso   1.000  O
  O9       1.0000 0.49200  0.11290  0.56550  Biso   1.000  O
  O10      1.0000 0.00800  0.61290  0.93450  Biso   1.000  O
  O11      1.0000 0.50800  0.88710  0.43450  Biso   1.000  O
  O12      1.0000 0.99200  0.38710  0.06550  Biso   1.000  O
  O13      1.0000 0.77600  0.04810  0.50930  Biso   1.000  O
  O14      1.0000 0.72400  0.54810  0.99070  Biso   1.000  O
  O15      1.0000 0.22400  0.95190  0.49070  Biso   1.000  O
  O16      1.0000 0.27600  0.45190  0.00930  Biso   1.000  O
  N1       1.0000 0.97230  0.16810  0.99820  Biso   1.000  N
  N2       1.0000 0.52770  0.66810  0.50180  Biso   1.000  N
  N3       1.0000 0.02770  0.83190  0.00180  Biso   1.000  N
  N4       1.0000 0.47230  0.33190  0.49820  Biso   1.000  N
  C1       1.0000 0.83810  0.19560  0.02500  Biso   1.000  C
  C2       1.0000 0.66190  0.69560  0.47500  Biso   1.000  C
  C3       1.0000 0.16190  0.80440  0.97500  Biso   1.000  C
  C4       1.0000 0.33810  0.30440  0.52500  Biso   1.000  C
  C5       1.0000 0.66240  0.19830  0.93670  Biso   1.000  C
  C6       1.0000 0.83760  0.69830  0.56330  Biso   1.000  C
  C7       1.0000 0.33760  0.80170  0.06330  Biso   1.000  C
  C8       1.0000 0.16240  0.30170  0.43670  Biso   1.000  C
  C9       1.0000 0.62950  0.17340  0.82160  Biso   1.000  C
  C10      1.0000 0.87050  0.67340  0.67840  Biso   1.000  C
  C11      1.0000 0.37050  0.82660  0.17840  Biso   1.000  C
  C12      1.0000 0.12950  0.32660  0.32160  Biso   1.000  C
  N5       1.0000 0.76290  0.14550  0.79370  Biso   1.000  N
  N6       1.0000 0.73710  0.64550  0.70630  Biso   1.000  N
  N7       1.0000 0.23710  0.85450  0.20630  Biso   1.000  N
  N8       1.0000 0.26290  0.35450  0.29370  Biso   1.000  N
  C13      1.0000 0.92610  0.14490  0.88470  Biso   1.000  C
  C14      1.0000 0.57390  0.64490  0.61530  Biso   1.000  C
  C15      1.0000 0.07390  0.85510  0.11530  Biso   1.000  C
  C16      1.0000 0.42610  0.35510  0.38470  Biso   1.000  C
  C17      1.0000 0.07420  0.11470  0.85550  Biso   1.000  C
  C18      1.0000 0.42580  0.61470  0.64450  Biso   1.000  C
  C19      1.0000 0.92580  0.88530  0.14450  Biso   1.000  C
  C20      1.0000 0.57420  0.38530  0.35550  Biso   1.000  C
  N9       1.0000 0.23890  0.11510  0.94420  Biso   1.000  N
  N10      1.0000 0.26110  0.61510  0.55580  Biso   1.000  N
  N11      1.0000 0.76110  0.88490  0.05580  Biso   1.000  N
  N12      1.0000 0.73890  0.38490  0.44420  Biso   1.000  N
  C21      1.0000 0.37120  0.08640  0.91970  Biso   1.000  C
  C22      1.0000 0.12880  0.58640  0.58030  Biso   1.000  C
  C23      1.0000 0.62880  0.91360  0.08030  Biso   1.000  C
  C24      1.0000 0.87120  0.41360  0.41970  Biso   1.000  C
  C25      1.0000 0.33430  0.05840  0.80650  Biso   1.000  C
  C26      1.0000 0.16570  0.55840  0.69350  Biso   1.000  C
  C27      1.0000 0.66570  0.94160  0.19350  Biso   1.000  C
  C28      1.0000 0.83430  0.44160  0.30650  Biso   1.000  C
  C29      1.0000 0.15870  0.06050  0.72000  Biso   1.000  C
  C30      1.0000 0.34130  0.56050  0.78000  Biso   1.000  C
  C31      1.0000 0.84130  0.93950  0.28000  Biso   1.000  C
  C32      1.0000 0.65870  0.43950  0.22000  Biso   1.000  C
  N13      1.0000 0.02570  0.08900  0.74450  Biso   1.000  N
  N14      1.0000 0.47430  0.58900  0.75550  Biso   1.000  N
  N15      1.0000 0.97430  0.91100  0.25550  Biso   1.000  N
  N16      1.0000 0.52570  0.41100  0.24450  Biso   1.000  N
  S1       1.0000 0.30520  0.03660  0.27260  Biso   1.000  S
  S2       1.0000 0.19480  0.53660  0.22740  Biso   1.000  S
  S3       1.0000 0.69480  0.96340  0.72740  Biso   1.000  S
  S4       1.0000 0.80520  0.46340  0.77260  Biso   1.000  S
  O17      1.0000 0.17910  0.06980  0.17280  Biso   1.000  O
  O18      1.0000 0.32090  0.56980  0.32720  Biso   1.000  O
  O19      1.0000 0.82090  0.93020  0.82720  Biso   1.000  O
  O20      1.0000 0.67910  0.43020  0.67280  Biso   1.000  O
  O21      1.0000 0.28070  0.98000  0.23980  Biso   1.000  O
  O22      1.0000 0.21930  0.48000  0.26020  Biso   1.000  O
  O23      1.0000 0.71930  0.02000  0.76020  Biso   1.000  O
  O24      1.0000 0.78070  0.52000  0.73980  Biso   1.000  O
  O25      1.0000 0.49860  0.05260  0.29050  Biso   1.000  O
  O26      1.0000 0.00140  0.55260  0.20950  Biso   1.000  O
  O27      1.0000 0.50140  0.94740  0.70950  Biso   1.000  O
  O28      1.0000 0.99860  0.44740  0.79050  Biso   1.000  O
  O29      1.0000 0.26910  0.04500  0.39670  Biso   1.000  O
  O30      1.0000 0.23090  0.54500  0.10330  Biso   1.000  O
  O31      1.0000 0.73090  0.95500  0.60330  Biso   1.000  O
  O32      1.0000 0.76910  0.45500  0.89670  Biso   1.000  O
  S5       1.0000 0.21580  0.28570  0.96450  Biso   1.000  S
  S6       1.0000 0.28420  0.78570  0.53550  Biso   1.000  S
  S7       1.0000 0.78420  0.71430  0.03550  Biso   1.000  S
  S8       1.0000 0.71580  0.21430  0.46450  Biso   1.000  S
  O33      1.0000 0.30880  0.23820  0.03020  Biso   1.000  O
  O34      1.0000 0.19120  0.73820  0.46980  Biso   1.000  O
  O35      1.0000 0.69120  0.76180  0.96980  Biso   1.000  O
  O36      1.0000 0.80880  0.26180  0.53020  Biso   1.000  O
  O37      1.0000 0.32430  0.33340  0.02170  Biso   1.000  O
  O38      1.0000 0.17570  0.83340  0.47830  Biso   1.000  O
  O39      1.0000 0.67570  0.66660  0.97830  Biso   1.000  O
  O40      1.0000 0.82430  0.16660  0.52170  Biso   1.000  O
  O41      1.0000 0.02700  0.29120  0.97060  Biso   1.000  O
  O42      1.0000 0.47300  0.79120  0.52940  Biso   1.000  O
  O43      1.0000 0.97300  0.70880  0.02940  Biso   1.000  O
  O44      1.0000 0.52700  0.20880  0.47060  Biso   1.000  O
  O45      1.0000 0.20810  0.28310  0.82930  Biso   1.000  O
  O46      1.0000 0.29190  0.78310  0.67070  Biso   1.000  O
  O47      1.0000 0.79190  0.71690  0.17070  Biso   1.000  O
  O48      1.0000 0.70810  0.21690  0.32930  Biso   1.000  O
  H1       1.0000 0.33200  0.19500  0.32000  Biso   1.000  H
  H2       1.0000 0.16800  0.69500  0.18000  Biso   1.000  H
  H3       1.0000 0.66800  0.80500  0.68000  Biso   1.000  H
  H4       1.0000 0.83200  0.30500  0.82000  Biso   1.000  H
  H5       1.0000 0.14300  0.17100  0.29000  Biso   1.000  H
  H6       1.0000 0.35700  0.67100  0.21000  Biso   1.000  H
  H7       1.0000 0.85700  0.82900  0.71000  Biso   1.000  H
  H8       1.0000 0.64300  0.32900  0.79000  Biso   1.000  H
  H9       1.0000 0.51500  0.11500  0.22700  Biso   1.000  H
  H10      1.0000 0.98500  0.61500  0.27300  Biso   1.000  H
  H11      1.0000 0.48500  0.88500  0.77300  Biso   1.000  H
  H12      1.0000 0.01500  0.38500  0.72700  Biso   1.000  H
  H13      1.0000 0.57000  0.17200  0.23200  Biso   1.000  H
  H14      1.0000 0.93000  0.67200  0.26800  Biso   1.000  H
  H15      1.0000 0.43000  0.82800  0.76800  Biso   1.000  H
  H16      1.0000 0.07000  0.32800  0.73200  Biso   1.000  H
  H17      1.0000 0.47800  0.14600  0.52200  Biso   1.000  H
  H18      1.0000 0.02200  0.64600  0.97800  Biso   1.000  H
  H19      1.0000 0.52200  0.85400  0.47800  Biso   1.000  H
  H20      1.0000 0.97800  0.35400  0.02200  Biso   1.000  H
  H21      1.0000 0.41100  0.09000  0.50300  Biso   1.000  H
  H22      1.0000 0.08900  0.59000  0.99700  Biso   1.000  H
  H23      1.0000 0.58900  0.91000  0.49700  Biso   1.000  H
  H24      1.0000 0.91100  0.41000  0.00300  Biso   1.000  H
  H25      1.0000 0.67200  0.05000  0.43200  Biso   1.000  H
  H26      1.0000 0.82800  0.55000  0.06800  Biso   1.000  H
  H27      1.0000 0.32800  0.95000  0.56800  Biso   1.000  H
  H28      1.0000 0.17200  0.45000  0.93200  Biso   1.000  H
  H29      1.0000 0.76400  0.01200  0.53500  Biso   1.000  H
  H30      1.0000 0.73600  0.51200  0.96500  Biso   1.000  H
  H31      1.0000 0.23600  0.98800  0.46500  Biso   1.000  H
  H32      1.0000 0.26400  0.48800  0.03500  Biso   1.000  H
  H33      1.0000 0.86500  0.21300  0.10600  Biso   1.000  H
  H34      1.0000 0.63500  0.71300  0.39400  Biso   1.000  H
  H35      1.0000 0.13500  0.78700  0.89400  Biso   1.000  H
  H36      1.0000 0.36500  0.28700  0.60600  Biso   1.000  H
  H37      1.0000 0.56600  0.21700  0.95600  Biso   1.000  H
  H38      1.0000 0.93400  0.71700  0.54400  Biso   1.000  H
  H39      1.0000 0.43400  0.78300  0.04400  Biso   1.000  H
  H40      1.0000 0.06600  0.28300  0.45600  Biso   1.000  H
  H41      1.0000 0.50900  0.17600  0.75900  Biso   1.000  H
  H42      1.0000 0.99100  0.67600  0.74100  Biso   1.000  H
  H43      1.0000 0.49100  0.82400  0.24100  Biso   1.000  H
  H44      1.0000 0.00900  0.32400  0.25900  Biso   1.000  H
  H45      1.0000 0.49300  0.08500  0.98100  Biso   1.000  H
  H46      1.0000 0.00700  0.58500  0.51900  Biso   1.000  H
  H47      1.0000 0.50700  0.91500  0.01900  Biso   1.000  H
  H48      1.0000 0.99300  0.41500  0.48100  Biso   1.000  H
  H49      1.0000 0.42900  0.03800  0.78900  Biso   1.000  H
  H50      1.0000 0.07100  0.53800  0.71100  Biso   1.000  H
  H51      1.0000 0.57100  0.96200  0.21100  Biso   1.000  H
  H52      1.0000 0.92900  0.46200  0.28900  Biso   1.000  H
  H53      1.0000 0.13100  0.04100  0.64100  Biso   1.000  H
  H54      1.0000 0.36900  0.54100  0.85900  Biso   1.000  H
  H55      1.0000 0.86900  0.95900  0.35900  Biso   1.000  H
  H56      1.0000 0.63100  0.45900  0.14100  Biso   1.000  H
  O49      1.0000 0.70580  0.30600  0.18450  Biso   1.000  O
  O50      1.0000 0.79420  0.80600  0.31550  Biso   1.000  O
  O51      1.0000 0.29420  0.69400  0.81550  Biso   1.000  O
  O52      1.0000 0.20580  0.19400  0.68450  Biso   1.000  O
  H57      1.0000 0.58500  0.31300  0.12800  Biso   1.000  H
  H58      1.0000 0.91500  0.81300  0.37200  Biso   1.000  H
  H59      1.0000 0.41500  0.68700  0.87200  Biso   1.000  H
  H60      1.0000 0.08500  0.18700  0.62800  Biso   1.000  H
  H61      1.0000 0.67500  0.27700  0.22900  Biso   1.000  H
  H62      1.0000 0.82500  0.77700  0.27100  Biso   1.000  H
  H63      1.0000 0.32500  0.72300  0.77100  Biso   1.000  H
  H64      1.0000 0.17500  0.22300  0.72900  Biso   1.000  H
  O53      1.0000 0.20670  0.94950  0.97560  Biso   1.000  O
  O54      1.0000 0.29330  0.44950  0.52440  Biso   1.000  O
  O55      1.0000 0.79330  0.05050  0.02440  Biso   1.000  O
  O56      1.0000 0.70670  0.55050  0.47560  Biso   1.000  O
  H65      1.0000 0.08500  0.93800  0.92600  Biso   1.000  H
  H66      1.0000 0.41500  0.43800  0.57400  Biso   1.000  H
  H67      1.0000 0.91500  0.06200  0.07400  Biso   1.000  H
  H68      1.0000 0.58500  0.56200  0.42600  Biso   1.000  H
  H69      1.0000 0.18000  0.98700  0.95500  Biso   1.000  H
  H70      1.0000 0.32000  0.48700  0.54500  Biso   1.000  H
  H71      1.0000 0.82000  0.01300  0.04500  Biso   1.000  H
  H72      1.0000 0.68000  0.51300  0.45500  Biso   1.000  H
  O57      1.0000 0.00440  0.13340  0.34410  Biso   1.000  O
  O58      1.0000 0.49560  0.63340  0.15590  Biso   1.000  O
  O59      1.0000 0.99560  0.86660  0.65590  Biso   1.000  O
  O60      1.0000 0.50440  0.36660  0.84410  Biso   1.000  O
  H73      1.0000 0.05400  0.09800  0.36000  Biso   1.000  H
  H74      1.0000 0.44600  0.59800  0.14000  Biso   1.000  H
  H75      1.0000 0.94600  0.90200  0.64000  Biso   1.000  H
  H76      1.0000 0.55400  0.40200  0.86000  Biso   1.000  H
  H77      1.0000 0.08100  0.15000  0.42100  Biso   1.000  H
  H78      1.0000 0.41900  0.65000  0.07900  Biso   1.000  H
  H79      1.0000 0.91900  0.85000  0.57900  Biso   1.000  H
  H80      1.0000 0.58100  0.35000  0.92100  Biso   1.000  H
