data_image0
_cell_length_a       6.5942
_cell_length_b       8.1284
_cell_length_c       9.1655
_cell_angle_alpha    105.882
_cell_angle_beta     101.05
_cell_angle_gamma    107.999

_symmetry_space_group_name_H-M    "P 1"
_symmetry_int_tables_number       1

loop_
  _symmetry_equiv_pos_as_xyz
  'x, y, z'

loop_
  _atom_site_label
  _atom_site_occupancy
  _atom_site_fract_x
  _atom_site_fract_y
  _atom_site_fract_z
  _atom_site_thermal_displace_type
  _atom_site_B_iso_or_equiv
  _atom_site_type_symbol
  N1       1.0000 0.10180  0.50560  0.38590  Biso   1.000  N
  N2       1.0000 0.89820  0.49440  0.61410  Biso   1.000  N
  H1       1.0000 0.00030  0.41760  0.30410  Biso   1.000  H
  H2       1.0000 0.99970  0.58240  0.69590  Biso   1.000  H
  H3       1.0000 0.07600  0.60020  0.43420  Biso   1.000  H
  H4       1.0000 0.92400  0.39980  0.56580  Biso   1.000  H
  Cu1      1.0000 0.12335  0.12526  0.14204  Biso   1.000  Cu
  Cu2      1.0000 0.87665  0.87474  0.85796  Biso   1.000  Cu
  O1       1.0000 0.88920  0.99240  0.22010  Biso   1.000  O
  O2       1.0000 0.11080  0.00760  0.77990  Biso   1.000  O
  O3       1.0000 0.32030  0.21290  0.02060  Biso   1.000  O
  O4       1.0000 0.67970  0.78710  0.97940  Biso   1.000  O
  O5       1.0000 0.93950  0.25880  0.07900  Biso   1.000  O
  O6       1.0000 0.06050  0.74120  0.92100  Biso   1.000  O
  O7       1.0000 0.26520  0.95000  0.16090  Biso   1.000  O
  O8       1.0000 0.73480  0.05000  0.83910  Biso   1.000  O
  N3       1.0000 0.34530  0.35100  0.36660  Biso   1.000  N
  N4       1.0000 0.65470  0.64900  0.63340  Biso   1.000  N
  C1       1.0000 0.71760  0.85260  0.12600  Biso   1.000  C
  C2       1.0000 0.28240  0.14740  0.87400  Biso   1.000  C
  C3       1.0000 0.54960  0.75620  0.19770  Biso   1.000  C
  C4       1.0000 0.45040  0.24380  0.80230  Biso   1.000  C
  H5       1.0000 0.55260  0.84600  0.29380  Biso   1.000  H
  H6       1.0000 0.44740  0.15400  0.70620  Biso   1.000  H
  H7       1.0000 0.59260  0.66310  0.22720  Biso   1.000  H
  H8       1.0000 0.40740  0.33690  0.77280  Biso   1.000  H
  C5       1.0000 0.31190  0.66400  0.08350  Biso   1.000  C
  C6       1.0000 0.68810  0.33600  0.91650  Biso   1.000  C
  H9       1.0000 0.31380  0.58600  0.98290  Biso   1.000  H
  H10      1.0000 0.68620  0.41400  0.01710  Biso   1.000  H
  H11      1.0000 0.21850  0.58430  0.12650  Biso   1.000  H
  H12      1.0000 0.78150  0.41570  0.87350  Biso   1.000  H
  C7       1.0000 0.79240  0.20430  0.94760  Biso   1.000  C
  C8       1.0000 0.20760  0.79570  0.05240  Biso   1.000  C
  C9       1.0000 0.45150  0.64260  0.57020  Biso   1.000  C
  C10      1.0000 0.54850  0.35740  0.42980  Biso   1.000  C
  H13      1.0000 0.41220  0.74030  0.61690  Biso   1.000  H
  H14      1.0000 0.58780  0.25970  0.38310  Biso   1.000  H
  C11      1.0000 0.29590  0.49530  0.43720  Biso   1.000  C
  C12      1.0000 0.70410  0.50470  0.56280  Biso   1.000  C
  O9       1.0000 0.07280  0.84270  0.45300  Biso   1.000  O
  O10      1.0000 0.92720  0.15730  0.54700  Biso   1.000  O
