data_image0
_cell_length_a       7.3107
_cell_length_b       8.1323
_cell_length_c       8.1761
_cell_angle_alpha    116.386
_cell_angle_beta     93.283
_cell_angle_gamma    101.235

_symmetry_space_group_name_H-M    "P 1"
_symmetry_int_tables_number       1

loop_
  _symmetry_equiv_pos_as_xyz
  'x, y, z'

loop_
  _atom_site_label
  _atom_site_occupancy
  _atom_site_fract_x
  _atom_site_fract_y
  _atom_site_fract_z
  _atom_site_thermal_displace_type
  _atom_site_B_iso_or_equiv
  _atom_site_type_symbol
  Cu1      1.0000 0.13073  0.63671  0.13335  Biso   1.000  Cu
  Cu2      1.0000 0.86927  0.36329  0.86665  Biso   1.000  Cu
  O1       1.0000 0.96790  0.58670  0.29860  Biso   1.000  O
  O2       1.0000 0.03210  0.41330  0.70140  Biso   1.000  O
  O3       1.0000 0.75130  0.35110  0.07190  Biso   1.000  O
  O4       1.0000 0.24870  0.64890  0.92810  Biso   1.000  O
  O5       1.0000 0.24850  0.43360  0.11730  Biso   1.000  O
  O6       1.0000 0.75150  0.56640  0.88270  Biso   1.000  O
  O7       1.0000 0.03040  0.20320  0.88680  Biso   1.000  O
  O8       1.0000 0.96960  0.79680  0.11320  Biso   1.000  O
  N1       1.0000 0.35640  0.86830  0.35520  Biso   1.000  N
  N2       1.0000 0.64360  0.13170  0.64480  Biso   1.000  N
  C1       1.0000 0.81910  0.45630  0.23910  Biso   1.000  C
  C2       1.0000 0.18090  0.54370  0.76090  Biso   1.000  C
  C3       1.0000 0.71580  0.42360  0.38080  Biso   1.000  C
  C4       1.0000 0.28420  0.57640  0.61920  Biso   1.000  C
  H1       1.0000 0.58230  0.38220  0.33610  Biso   1.000  H
  H2       1.0000 0.41770  0.61780  0.66390  Biso   1.000  H
  H3       1.0000 0.74240  0.53950  0.49480  Biso   1.000  H
  H4       1.0000 0.25760  0.46050  0.50520  Biso   1.000  H
  H5       1.0000 0.75700  0.32840  0.40160  Biso   1.000  H
  H6       1.0000 0.24300  0.67160  0.59840  Biso   1.000  H
  C5       1.0000 0.17950  0.26280  0.00250  Biso   1.000  C
  C6       1.0000 0.82050  0.73720  0.99750  Biso   1.000  C
  C7       1.0000 0.27810  0.11690  0.00400  Biso   1.000  C
  C8       1.0000 0.72190  0.88310  0.99600  Biso   1.000  C
  H7       1.0000 0.41130  0.16000  0.00950  Biso   1.000  H
  H8       1.0000 0.58870  0.84000  0.99050  Biso   1.000  H
  H9       1.0000 0.22900  0.99930  0.89340  Biso   1.000  H
  H10      1.0000 0.77100  0.00070  0.10660  Biso   1.000  H
  H11      1.0000 0.25660  0.09860  0.11020  Biso   1.000  H
  H12      1.0000 0.74340  0.90140  0.88980  Biso   1.000  H
  C9       1.0000 0.52540  0.83500  0.37640  Biso   1.000  C
  C10      1.0000 0.47460  0.16500  0.62360  Biso   1.000  C
  H13      1.0000 0.54760  0.72130  0.29150  Biso   1.000  H
  H14      1.0000 0.45240  0.27870  0.70850  Biso   1.000  H
  C11      1.0000 0.32970  0.03500  0.47840  Biso   1.000  C
  C12      1.0000 0.67030  0.96500  0.52160  Biso   1.000  C
  N3       1.0000 0.16710  0.07880  0.45470  Biso   1.000  N
  N4       1.0000 0.83290  0.92120  0.54530  Biso   1.000  N
  H15      1.0000 0.08100  0.00070  0.36150  Biso   1.000  H
  H16      1.0000 0.91900  0.99930  0.63850  Biso   1.000  H
  H17      1.0000 0.14840  0.18520  0.53270  Biso   1.000  H
  H18      1.0000 0.85160  0.81480  0.46730  Biso   1.000  H
