data_image0
_cell_length_a       9.405
_cell_length_b       6.8579
_cell_length_c       16.2248
_cell_angle_alpha    90
_cell_angle_beta     90
_cell_angle_gamma    90

_symmetry_space_group_name_H-M    "P 1"
_symmetry_int_tables_number       1

loop_
  _symmetry_equiv_pos_as_xyz
  'x, y, z'

loop_
  _atom_site_label
  _atom_site_occupancy
  _atom_site_fract_x
  _atom_site_fract_y
  _atom_site_fract_z
  _atom_site_thermal_displace_type
  _atom_site_B_iso_or_equiv
  _atom_site_type_symbol
  Cu1      1.0000 0.14239  0.25000  0.69873  Biso   1.000  Cu
  Cu2      1.0000 0.35761  0.75000  0.19873  Biso   1.000  Cu
  Cu3      1.0000 0.85761  0.75000  0.30127  Biso   1.000  Cu
  Cu4      1.0000 0.64239  0.25000  0.80127  Biso   1.000  Cu
  O1       1.0000 0.09390  0.25000  0.81587  Biso   1.000  O
  O2       1.0000 0.40610  0.75000  0.31587  Biso   1.000  O
  O3       1.0000 0.90610  0.75000  0.18413  Biso   1.000  O
  O4       1.0000 0.59390  0.25000  0.68413  Biso   1.000  O
  O5       1.0000 0.86960  0.25000  0.77487  Biso   1.000  O
  O6       1.0000 0.63040  0.75000  0.27487  Biso   1.000  O
  O7       1.0000 0.13040  0.75000  0.22513  Biso   1.000  O
  O8       1.0000 0.36960  0.25000  0.72513  Biso   1.000  O
  O9       1.0000 0.67550  0.25000  0.91909  Biso   1.000  O
  O10      1.0000 0.82450  0.75000  0.41909  Biso   1.000  O
  O11      1.0000 0.32450  0.75000  0.08091  Biso   1.000  O
  O12      1.0000 0.17550  0.25000  0.58091  Biso   1.000  O
  N1       1.0000 0.12240  0.95250  0.69746  Biso   1.000  N
  N2       1.0000 0.37760  0.04750  0.19746  Biso   1.000  N
  N3       1.0000 0.87760  0.45250  0.30254  Biso   1.000  N
  N4       1.0000 0.62240  0.54750  0.80254  Biso   1.000  N
  N5       1.0000 0.87760  0.04750  0.30254  Biso   1.000  N
  N6       1.0000 0.62240  0.95250  0.80254  Biso   1.000  N
  N7       1.0000 0.12240  0.54750  0.69746  Biso   1.000  N
  N8       1.0000 0.37760  0.45250  0.19746  Biso   1.000  N
  C1       1.0000 0.04880  0.85330  0.64155  Biso   1.000  C
  C2       1.0000 0.45120  0.14670  0.14155  Biso   1.000  C
  C3       1.0000 0.95120  0.35330  0.35845  Biso   1.000  C
  C4       1.0000 0.54880  0.64670  0.85845  Biso   1.000  C
  C5       1.0000 0.95120  0.14670  0.35845  Biso   1.000  C
  C6       1.0000 0.54880  0.85330  0.85845  Biso   1.000  C
  C7       1.0000 0.04880  0.64670  0.64155  Biso   1.000  C
  C8       1.0000 0.45120  0.35330  0.14155  Biso   1.000  C
  C9       1.0000 0.19450  0.84930  0.75498  Biso   1.000  C
  C10      1.0000 0.30550  0.15070  0.25498  Biso   1.000  C
  C11      1.0000 0.80550  0.34930  0.24502  Biso   1.000  C
  C12      1.0000 0.69450  0.65070  0.74502  Biso   1.000  C
  C13      1.0000 0.80550  0.15070  0.24502  Biso   1.000  C
  C14      1.0000 0.69450  0.84930  0.74502  Biso   1.000  C
  C15      1.0000 0.19450  0.65070  0.75498  Biso   1.000  C
  C16      1.0000 0.30550  0.34930  0.25498  Biso   1.000  C
  C17      1.0000 0.96040  0.25000  0.82940  Biso   1.000  C
  C18      1.0000 0.53960  0.75000  0.32940  Biso   1.000  C
  C19      1.0000 0.03960  0.75000  0.17060  Biso   1.000  C
  C20      1.0000 0.46040  0.25000  0.67060  Biso   1.000  C
  C21      1.0000 0.79190  0.25000  0.95780  Biso   1.000  C
  C22      1.0000 0.70810  0.75000  0.45780  Biso   1.000  C
  C23      1.0000 0.20810  0.75000  0.04220  Biso   1.000  C
  C24      1.0000 0.29190  0.25000  0.54220  Biso   1.000  C
  N9       1.0000 0.96250  0.93720  0.58660  Biso   1.000  N
  N10      1.0000 0.53750  0.06280  0.08660  Biso   1.000  N
  N11      1.0000 0.03750  0.43720  0.41340  Biso   1.000  N
  N12      1.0000 0.46250  0.56280  0.91340  Biso   1.000  N
  N13      1.0000 0.03750  0.06280  0.41340  Biso   1.000  N
  N14      1.0000 0.46250  0.93720  0.91340  Biso   1.000  N
  N15      1.0000 0.96250  0.56280  0.58660  Biso   1.000  N
  N16      1.0000 0.53750  0.43720  0.08660  Biso   1.000  N
  H1       1.0000 0.95240  0.06180  0.58620  Biso   1.000  H
  H2       1.0000 0.54760  0.93820  0.08620  Biso   1.000  H
  H3       1.0000 0.04760  0.56180  0.41380  Biso   1.000  H
  H4       1.0000 0.45240  0.43820  0.91380  Biso   1.000  H
  H5       1.0000 0.04760  0.93820  0.41380  Biso   1.000  H
  H6       1.0000 0.45240  0.06180  0.91380  Biso   1.000  H
  H7       1.0000 0.95240  0.43820  0.58620  Biso   1.000  H
  H8       1.0000 0.54760  0.56180  0.08620  Biso   1.000  H
  H9       1.0000 0.91710  0.86650  0.55160  Biso   1.000  H
  H10      1.0000 0.58290  0.13350  0.05160  Biso   1.000  H
  H11      1.0000 0.08290  0.36650  0.44840  Biso   1.000  H
  H12      1.0000 0.41710  0.63350  0.94840  Biso   1.000  H
  H13      1.0000 0.08290  0.13350  0.44840  Biso   1.000  H
  H14      1.0000 0.41710  0.86650  0.94840  Biso   1.000  H
  H15      1.0000 0.91710  0.63350  0.55160  Biso   1.000  H
  H16      1.0000 0.58290  0.36650  0.05160  Biso   1.000  H
  C25      1.0000 0.92450  0.16140  0.91680  Biso   1.000  C
  C26      1.0000 0.57550  0.83860  0.41680  Biso   1.000  C
  C27      1.0000 0.07550  0.66140  0.08320  Biso   1.000  C
  C28      1.0000 0.42450  0.33860  0.58320  Biso   1.000  C
  C29      1.0000 0.07550  0.83860  0.08320  Biso   1.000  C
  C30      1.0000 0.42450  0.16140  0.58320  Biso   1.000  C
  C31      1.0000 0.92450  0.33860  0.91680  Biso   1.000  C
  C32      1.0000 0.57550  0.66140  0.41680  Biso   1.000  C
  O13      1.0000 0.80160  0.25000  0.55620  Biso   1.000  O
  O14      1.0000 0.69840  0.75000  0.05620  Biso   1.000  O
  O15      1.0000 0.19840  0.75000  0.44380  Biso   1.000  O
  O16      1.0000 0.30160  0.25000  0.94380  Biso   1.000  O
  O17      1.0000 0.91700  0.85200  0.90100  Biso   1.000  O
  O18      1.0000 0.58300  0.14800  0.40100  Biso   1.000  O
  O19      1.0000 0.08300  0.35200  0.09900  Biso   1.000  O
  O20      1.0000 0.41700  0.64800  0.59900  Biso   1.000  O
  O21      1.0000 0.08300  0.14800  0.09900  Biso   1.000  O
  O22      1.0000 0.41700  0.85200  0.59900  Biso   1.000  O
  O23      1.0000 0.91700  0.64800  0.90100  Biso   1.000  O
  O24      1.0000 0.58300  0.35200  0.40100  Biso   1.000  O
  O25      1.0000 0.79900  0.30080  0.03070  Biso   1.000  O
  O26      1.0000 0.70100  0.69920  0.53070  Biso   1.000  O
  O27      1.0000 0.20100  0.80080  0.96930  Biso   1.000  O
  O28      1.0000 0.29900  0.19920  0.46930  Biso   1.000  O
  O29      1.0000 0.20100  0.69920  0.96930  Biso   1.000  O
  O30      1.0000 0.29900  0.30080  0.46930  Biso   1.000  O
  O31      1.0000 0.79900  0.19920  0.03070  Biso   1.000  O
  O32      1.0000 0.70100  0.80080  0.53070  Biso   1.000  O
  H17      1.0000 0.25000  0.91700  0.78800  Biso   1.000  H
  H18      1.0000 0.25000  0.08300  0.28800  Biso   1.000  H
  H19      1.0000 0.75000  0.41700  0.21200  Biso   1.000  H
  H20      1.0000 0.75000  0.58300  0.71200  Biso   1.000  H
  H21      1.0000 0.75000  0.08300  0.21200  Biso   1.000  H
  H22      1.0000 0.75000  0.91700  0.71200  Biso   1.000  H
  H23      1.0000 0.25000  0.58300  0.78800  Biso   1.000  H
  H24      1.0000 0.25000  0.41700  0.28800  Biso   1.000  H
