data_image0
_cell_length_a       4.7807
_cell_length_b       6.8558
_cell_length_c       12.8809
_cell_angle_alpha    90
_cell_angle_beta     90.438
_cell_angle_gamma    90

_symmetry_space_group_name_H-M    "P 1"
_symmetry_int_tables_number       1

loop_
  _symmetry_equiv_pos_as_xyz
  'x, y, z'

loop_
  _atom_site_label
  _atom_site_occupancy
  _atom_site_fract_x
  _atom_site_fract_y
  _atom_site_fract_z
  _atom_site_thermal_displace_type
  _atom_site_B_iso_or_equiv
  _atom_site_type_symbol
  Cu1      1.0000 0.37368  0.75000  0.27795  Biso   1.000  Cu
  Cu2      1.0000 0.62632  0.25000  0.72205  Biso   1.000  Cu
  N1       1.0000 0.33850  0.45360  0.27640  Biso   1.000  N
  N2       1.0000 0.66150  0.95360  0.72360  Biso   1.000  N
  N3       1.0000 0.66150  0.54640  0.72360  Biso   1.000  N
  N4       1.0000 0.33850  0.04640  0.27640  Biso   1.000  N
  C1       1.0000 0.49160  0.34880  0.34560  Biso   1.000  C
  C2       1.0000 0.50840  0.84880  0.65440  Biso   1.000  C
  C3       1.0000 0.50840  0.65120  0.65440  Biso   1.000  C
  C4       1.0000 0.49160  0.15120  0.34560  Biso   1.000  C
  H1       1.0000 0.60000  0.41450  0.39460  Biso   1.000  H
  H2       1.0000 0.40000  0.91450  0.60540  Biso   1.000  H
  H3       1.0000 0.40000  0.58550  0.60540  Biso   1.000  H
  H4       1.0000 0.60000  0.08550  0.39460  Biso   1.000  H
  C5       1.0000 0.17720  0.35230  0.21050  Biso   1.000  C
  C6       1.0000 0.82280  0.85230  0.78950  Biso   1.000  C
  C7       1.0000 0.82280  0.64770  0.78950  Biso   1.000  C
  C8       1.0000 0.17720  0.14770  0.21050  Biso   1.000  C
  N5       1.0000 0.99430  0.42530  0.14530  Biso   1.000  N
  N6       1.0000 0.00570  0.92530  0.85470  Biso   1.000  N
  N7       1.0000 0.00570  0.57470  0.85470  Biso   1.000  N
  N8       1.0000 0.99430  0.07470  0.14530  Biso   1.000  N
  H5       1.0000 0.96940  0.54940  0.14220  Biso   1.000  H
  H6       1.0000 0.03060  0.04940  0.85780  Biso   1.000  H
  H7       1.0000 0.03060  0.45060  0.85780  Biso   1.000  H
  H8       1.0000 0.96940  0.95060  0.14220  Biso   1.000  H
  H9       1.0000 0.89890  0.34920  0.10540  Biso   1.000  H
  H10      1.0000 0.10110  0.84920  0.89460  Biso   1.000  H
  H11      1.0000 0.10110  0.65080  0.89460  Biso   1.000  H
  H12      1.0000 0.89890  0.15080  0.10540  Biso   1.000  H
  O1       1.0000 0.23090  0.75000  0.42150  Biso   1.000  O
  O2       1.0000 0.76910  0.25000  0.57850  Biso   1.000  O
  C9       1.0000 0.96700  0.75000  0.41650  Biso   1.000  C
  C10      1.0000 0.03300  0.25000  0.58350  Biso   1.000  C
  H13      1.0000 0.87030  0.75000  0.47890  Biso   1.000  H
  H14      1.0000 0.12970  0.25000  0.52110  Biso   1.000  H
  O3       1.0000 0.82900  0.75000  0.33690  Biso   1.000  O
  O4       1.0000 0.17100  0.25000  0.66310  Biso   1.000  O
  O5       1.0000 0.58040  0.75000  0.14780  Biso   1.000  O
  O6       1.0000 0.41960  0.25000  0.85220  Biso   1.000  O
  C11      1.0000 0.45800  0.75000  0.05870  Biso   1.000  C
  C12      1.0000 0.54200  0.25000  0.94130  Biso   1.000  C
  H15      1.0000 0.57540  0.75000  0.00160  Biso   1.000  H
  H16      1.0000 0.42460  0.25000  0.99840  Biso   1.000  H
  O7       1.0000 0.21800  0.75000  0.03960  Biso   1.000  O
  O8       1.0000 0.78200  0.25000  0.96040  Biso   1.000  O
  C13      1.0000 0.50600  0.75000  0.06040  Biso   1.000  C
  C14      1.0000 0.49400  0.25000  0.93960  Biso   1.000  C
  H17      1.0000 0.69120  0.75000  0.08270  Biso   1.000  H
  H18      1.0000 0.30880  0.25000  0.91730  Biso   1.000  H
  O9       1.0000 0.31700  0.75000  0.12590  Biso   1.000  O
  O10      1.0000 0.68300  0.25000  0.87410  Biso   1.000  O
  O11      1.0000 0.45300  0.75000  0.96690  Biso   1.000  O
  O12      1.0000 0.54700  0.25000  0.03310  Biso   1.000  O
