data_image0
_cell_length_a       7.7508
_cell_length_b       8.5142
_cell_length_c       8.8762
_cell_angle_alpha    86.988
_cell_angle_beta     72.53
_cell_angle_gamma    66.033

_symmetry_space_group_name_H-M    "P 1"
_symmetry_int_tables_number       1

loop_
  _symmetry_equiv_pos_as_xyz
  'x, y, z'

loop_
  _atom_site_label
  _atom_site_occupancy
  _atom_site_fract_x
  _atom_site_fract_y
  _atom_site_fract_z
  _atom_site_thermal_displace_type
  _atom_site_B_iso_or_equiv
  _atom_site_type_symbol
  Cu1      1.0000 0.62995  0.99522  0.36295  Biso   1.000  Cu
  Cu2      1.0000 0.37005  0.00478  0.63705  Biso   1.000  Cu
  O1       1.0000 0.64110  0.18510  0.46960  Biso   1.000  O
  O2       1.0000 0.35890  0.81490  0.53040  Biso   1.000  O
  O3       1.0000 0.57470  0.80770  0.29710  Biso   1.000  O
  O4       1.0000 0.42530  0.19230  0.70290  Biso   1.000  O
  O5       1.0000 0.82570  0.83050  0.45610  Biso   1.000  O
  O6       1.0000 0.17430  0.16950  0.54390  Biso   1.000  O
  O7       1.0000 0.39220  0.15750  0.31160  Biso   1.000  O
  O8       1.0000 0.60780  0.84250  0.68840  Biso   1.000  O
  N1       1.0000 0.85060  0.00080  0.13610  Biso   1.000  N
  N2       1.0000 0.14940  0.99920  0.86390  Biso   1.000  N
  N3       1.0000 0.63390  0.07200  0.98580  Biso   1.000  N
  N4       1.0000 0.36610  0.92800  0.01420  Biso   1.000  N
  H1       1.0000 0.54100  0.07180  0.06840  Biso   1.000  H
  H2       1.0000 0.45900  0.92820  0.93160  Biso   1.000  H
  H3       1.0000 0.61070  0.09500  0.89650  Biso   1.000  H
  H4       1.0000 0.38930  0.90500  0.10350  Biso   1.000  H
  C1       1.0000 0.78210  0.79040  0.59540  Biso   1.000  C
  C2       1.0000 0.21790  0.20960  0.40460  Biso   1.000  C
  C3       1.0000 0.94950  0.67330  0.65480  Biso   1.000  C
  C4       1.0000 0.05050  0.32670  0.34520  Biso   1.000  C
  H5       1.0000 0.02370  0.73750  0.66690  Biso   1.000  H
  H6       1.0000 0.97630  0.26250  0.33310  Biso   1.000  H
  H7       1.0000 0.03790  0.57940  0.57430  Biso   1.000  H
  H8       1.0000 0.96210  0.42060  0.42570  Biso   1.000  H
  C5       1.0000 0.89120  0.59680  0.80990  Biso   1.000  C
  C6       1.0000 0.10880  0.40320  0.19010  Biso   1.000  C
  H9       1.0000 0.82120  0.68680  0.89430  Biso   1.000  H
  H10      1.0000 0.17880  0.31320  0.10570  Biso   1.000  H
  H11      1.0000 0.00830  0.51350  0.83030  Biso   1.000  H
  H12      1.0000 0.99170  0.48650  0.16970  Biso   1.000  H
  H13      1.0000 0.80720  0.54170  0.80330  Biso   1.000  H
  H14      1.0000 0.19280  0.45830  0.19670  Biso   1.000  H
  C7       1.0000 0.54520  0.24480  0.61020  Biso   1.000  C
  C8       1.0000 0.45480  0.75520  0.38980  Biso   1.000  C
  C9       1.0000 0.58110  0.38790  0.67170  Biso   1.000  C
  C10      1.0000 0.41890  0.61210  0.32830  Biso   1.000  C
  H15      1.0000 0.70310  0.33620  0.69980  Biso   1.000  H
  H16      1.0000 0.29690  0.66380  0.30020  Biso   1.000  H
  H17      1.0000 0.60150  0.46040  0.58610  Biso   1.000  H
  H18      1.0000 0.39850  0.53960  0.41390  Biso   1.000  H
  C11      1.0000 0.42220  0.49920  0.81030  Biso   1.000  C
  C12      1.0000 0.57780  0.50080  0.18970  Biso   1.000  C
  H19      1.0000 0.30290  0.55920  0.78190  Biso   1.000  H
  H20      1.0000 0.69710  0.44080  0.21810  Biso   1.000  H
  H21      1.0000 0.46230  0.58130  0.84300  Biso   1.000  H
  H22      1.0000 0.53770  0.41870  0.15700  Biso   1.000  H
  H23      1.0000 0.39830  0.42930  0.89580  Biso   1.000  H
  H24      1.0000 0.60170  0.57070  0.10420  Biso   1.000  H
  C13      1.0000 0.81440  0.03670  0.99640  Biso   1.000  C
  C14      1.0000 0.18560  0.96330  0.00360  Biso   1.000  C
  C15      1.0000 0.03410  0.96450  0.13750  Biso   1.000  C
  C16      1.0000 0.96590  0.03550  0.86250  Biso   1.000  C
  H25      1.0000 0.06270  0.93870  0.23270  Biso   1.000  H
  H26      1.0000 0.93730  0.06130  0.76730  Biso   1.000  H
