data_image0
_cell_length_a       7.4307
_cell_length_b       10.8485
_cell_length_c       13.5487
_cell_angle_alpha    74.685
_cell_angle_beta     85.084
_cell_angle_gamma    88.818

_symmetry_space_group_name_H-M    "P 1"
_symmetry_int_tables_number       1

loop_
  _symmetry_equiv_pos_as_xyz
  'x, y, z'

loop_
  _atom_site_label
  _atom_site_occupancy
  _atom_site_fract_x
  _atom_site_fract_y
  _atom_site_fract_z
  _atom_site_thermal_displace_type
  _atom_site_B_iso_or_equiv
  _atom_site_type_symbol
  Cu1      1.0000 0.84830  0.38580  0.61369  Biso   1.000  Cu
  Cu2      1.0000 0.15170  0.61420  0.38631  Biso   1.000  Cu
  Ag1      1.0000 0.41093  0.35394  0.08504  Biso   1.000  Ag
  Ag2      1.0000 0.58907  0.64606  0.91496  Biso   1.000  Ag
  Ag3      1.0000 0.57850  0.10229  0.04659  Biso   1.000  Ag
  Ag4      1.0000 0.42150  0.89771  0.95341  Biso   1.000  Ag
  O1       1.0000 0.58630  0.34710  0.72010  Biso   1.000  O
  O2       1.0000 0.41370  0.65290  0.27990  Biso   1.000  O
  H1       1.0000 0.55100  0.41500  0.73000  Biso   1.000  H
  H2       1.0000 0.44900  0.58500  0.27000  Biso   1.000  H
  H3       1.0000 0.51100  0.31900  0.69100  Biso   1.000  H
  H4       1.0000 0.48900  0.68100  0.30900  Biso   1.000  H
  O3       1.0000 0.73990  0.22710  0.92510  Biso   1.000  O
  O4       1.0000 0.26010  0.77290  0.07490  Biso   1.000  O
  H5       1.0000 0.75900  0.28900  0.94800  Biso   1.000  H
  H6       1.0000 0.24100  0.71100  0.05200  Biso   1.000  H
  H7       1.0000 0.69000  0.25300  0.87100  Biso   1.000  H
  H8       1.0000 0.31000  0.74700  0.12900  Biso   1.000  H
  O5       1.0000 0.42340  0.99450  0.18030  Biso   1.000  O
  O6       1.0000 0.57660  0.00550  0.81970  Biso   1.000  O
  H9       1.0000 0.48100  0.93100  0.20800  Biso   1.000  H
  H10      1.0000 0.51900  0.06900  0.79200  Biso   1.000  H
  H11      1.0000 0.40500  0.04000  0.22000  Biso   1.000  H
  H12      1.0000 0.59500  0.96000  0.78000  Biso   1.000  H
  O7       1.0000 0.34250  0.19420  0.66760  Biso   1.000  O
  O8       1.0000 0.65750  0.80580  0.33240  Biso   1.000  O
  H13      1.0000 0.23700  0.18700  0.69200  Biso   1.000  H
  H14      1.0000 0.76300  0.81300  0.30800  Biso   1.000  H
  H15      1.0000 0.34500  0.20600  0.60500  Biso   1.000  H
  H16      1.0000 0.65500  0.79400  0.39500  Biso   1.000  H
  O9       1.0000 0.18070  0.13270  0.94940  Biso   1.000  O
  O10      1.0000 0.81930  0.86730  0.05060  Biso   1.000  O
  H17      1.0000 0.11400  0.11200  0.00300  Biso   1.000  H
  H18      1.0000 0.88600  0.88800  0.99700  Biso   1.000  H
  H19      1.0000 0.21800  0.20500  0.94200  Biso   1.000  H
  H20      1.0000 0.78200  0.79500  0.05800  Biso   1.000  H
  O11      1.0000 0.03210  0.95430  0.87400  Biso   1.000  O
  O12      1.0000 0.96790  0.04570  0.12600  Biso   1.000  O
  H21      1.0000 0.07800  0.01600  0.88600  Biso   1.000  H
  H22      1.0000 0.92200  0.98400  0.11400  Biso   1.000  H
  H23      1.0000 0.03300  0.96600  0.81160  Biso   1.000  H
  H24      1.0000 0.96700  0.03400  0.18840  Biso   1.000  H
  O13      1.0000 0.78310  0.55300  0.52880  Biso   1.000  O
  O14      1.0000 0.21690  0.44700  0.47120  Biso   1.000  O
  O15      1.0000 0.76630  0.75780  0.52950  Biso   1.000  O
  O16      1.0000 0.23370  0.24220  0.47050  Biso   1.000  O
  O17      1.0000 0.26020  0.37530  0.94600  Biso   1.000  O
  O18      1.0000 0.73980  0.62470  0.05400  Biso   1.000  O
  O19      1.0000 0.24890  0.56850  0.97150  Biso   1.000  O
  O20      1.0000 0.75110  0.43150  0.02850  Biso   1.000  O
  O21      1.0000 0.94830  0.21950  0.68350  Biso   1.000  O
  O22      1.0000 0.05170  0.78050  0.31650  Biso   1.000  O
  O23      1.0000 0.96200  0.01630  0.67520  Biso   1.000  O
  O24      1.0000 0.03800  0.98370  0.32480  Biso   1.000  O
  O25      1.0000 0.49660  0.22650  0.23230  Biso   1.000  O
  O26      1.0000 0.50340  0.77350  0.76770  Biso   1.000  O
  O27      1.0000 0.49990  0.42120  0.25450  Biso   1.000  O
  O28      1.0000 0.50010  0.57880  0.74550  Biso   1.000  O
  N1       1.0000 0.95090  0.48890  0.69720  Biso   1.000  N
  N2       1.0000 0.04910  0.51110  0.30280  Biso   1.000  N
  N3       1.0000 0.76630  0.28950  0.51970  Biso   1.000  N
  N4       1.0000 0.23370  0.71050  0.48030  Biso   1.000  N
  C1       1.0000 0.80800  0.64640  0.56750  Biso   1.000  C
  C2       1.0000 0.19200  0.35360  0.43250  Biso   1.000  C
  C3       1.0000 0.90160  0.61290  0.66590  Biso   1.000  C
  C4       1.0000 0.09840  0.38710  0.33410  Biso   1.000  C
  C5       1.0000 0.93960  0.70040  0.71880  Biso   1.000  C
  C6       1.0000 0.06040  0.29960  0.28120  Biso   1.000  C
  H25      1.0000 0.90090  0.78650  0.69650  Biso   1.000  H
  H26      1.0000 0.09910  0.21350  0.30350  Biso   1.000  H
  C7       1.0000 0.03540  0.66050  0.80520  Biso   1.000  C
  C8       1.0000 0.96460  0.33950  0.19480  Biso   1.000  C
  H27      1.0000 0.06120  0.71890  0.84350  Biso   1.000  H
  H28      1.0000 0.93880  0.28110  0.15650  Biso   1.000  H
  C9       1.0000 0.09300  0.53460  0.83540  Biso   1.000  C
  C10      1.0000 0.90700  0.46540  0.16460  Biso   1.000  C
  C11      1.0000 0.04610  0.45150  0.77930  Biso   1.000  C
  C12      1.0000 0.95390  0.54850  0.22070  Biso   1.000  C
  H29      1.0000 0.08310  0.36470  0.80010  Biso   1.000  H
  H30      1.0000 0.91690  0.63530  0.19990  Biso   1.000  H
  C13      1.0000 0.20710  0.48980  0.92520  Biso   1.000  C
  C14      1.0000 0.79290  0.51020  0.07480  Biso   1.000  C
  C15      1.0000 0.91550  0.12820  0.64230  Biso   1.000  C
  C16      1.0000 0.08450  0.87180  0.35770  Biso   1.000  C
  C17      1.0000 0.80920  0.16480  0.54930  Biso   1.000  C
  C18      1.0000 0.19080  0.83520  0.45070  Biso   1.000  C
  C19      1.0000 0.76120  0.07760  0.49820  Biso   1.000  C
  C20      1.0000 0.23880  0.92240  0.50180  Biso   1.000  C
  H31      1.0000 0.78980  0.98950  0.52190  Biso   1.000  H
  H32      1.0000 0.21020  0.01050  0.47810  Biso   1.000  H
  C21      1.0000 0.66980  0.12320  0.41110  Biso   1.000  C
  C22      1.0000 0.33020  0.87680  0.58890  Biso   1.000  C
  H33      1.0000 0.63780  0.06630  0.37290  Biso   1.000  H
  H34      1.0000 0.36220  0.93370  0.62710  Biso   1.000  H
  C23      1.0000 0.62430  0.25170  0.37910  Biso   1.000  C
  C24      1.0000 0.37570  0.74830  0.62090  Biso   1.000  C
  C25      1.0000 0.67370  0.33240  0.43680  Biso   1.000  C
  C26      1.0000 0.32630  0.66760  0.56320  Biso   1.000  C
  H35      1.0000 0.64090  0.42010  0.41690  Biso   1.000  H
  H36      1.0000 0.35910  0.57990  0.58310  Biso   1.000  H
  C27      1.0000 0.53260  0.30470  0.28250  Biso   1.000  C
  C28      1.0000 0.46740  0.69530  0.71750  Biso   1.000  C
