data_image0
_cell_length_a       9.0061
_cell_length_b       9.4989
_cell_length_c       11.274
_cell_angle_alpha    86.62
_cell_angle_beta     70
_cell_angle_gamma    76.69

_symmetry_space_group_name_H-M    "P 1"
_symmetry_int_tables_number       1

loop_
  _symmetry_equiv_pos_as_xyz
  'x, y, z'

loop_
  _atom_site_label
  _atom_site_occupancy
  _atom_site_fract_x
  _atom_site_fract_y
  _atom_site_fract_z
  _atom_site_thermal_displace_type
  _atom_site_B_iso_or_equiv
  _atom_site_type_symbol
  Cu1      1.0000 0.07536  0.21613  0.52609  Biso   1.000  Cu
  Cu2      1.0000 0.92464  0.78387  0.47391  Biso   1.000  Cu
  S1       1.0000 0.98811  0.80794  0.93629  Biso   1.000  S
  S2       1.0000 0.01189  0.19206  0.06371  Biso   1.000  S
  S3       1.0000 0.46168  0.25680  0.48652  Biso   1.000  S
  S4       1.0000 0.53832  0.74320  0.51348  Biso   1.000  S
  O1       1.0000 0.19240  0.11140  0.63250  Biso   1.000  O
  O2       1.0000 0.80760  0.88860  0.36750  Biso   1.000  O
  O3       1.0000 0.99650  0.99800  0.74170  Biso   1.000  O
  O4       1.0000 0.00350  0.00200  0.25830  Biso   1.000  O
  O5       1.0000 0.75730  0.21430  0.51170  Biso   1.000  O
  O6       1.0000 0.24270  0.78570  0.48830  Biso   1.000  O
  O7       1.0000 0.96260  0.32360  0.41845  Biso   1.000  O
  O8       1.0000 0.03740  0.67640  0.58155  Biso   1.000  O
  O9       1.0000 0.94500  0.35740  0.66740  Biso   1.000  O
  O10      1.0000 0.05500  0.64260  0.33260  Biso   1.000  O
  H1       1.0000 0.87770  0.42950  0.65350  Biso   1.000  H
  H2       1.0000 0.12230  0.57050  0.34650  Biso   1.000  H
  H3       1.0000 0.91600  0.32760  0.74260  Biso   1.000  H
  H4       1.0000 0.08400  0.67240  0.25740  Biso   1.000  H
  O11      1.0000 0.17010  0.05270  0.40220  Biso   1.000  O
  O12      1.0000 0.82990  0.94730  0.59780  Biso   1.000  O
  H5       1.0000 0.19110  0.97190  0.43640  Biso   1.000  H
  H6       1.0000 0.80890  0.02810  0.56360  Biso   1.000  H
  H7       1.0000 0.11690  0.04450  0.35460  Biso   1.000  H
  H8       1.0000 0.88310  0.95550  0.64540  Biso   1.000  H
  N1       1.0000 0.16770  0.70990  0.06120  Biso   1.000  N
  N2       1.0000 0.83230  0.29010  0.93880  Biso   1.000  N
  N3       1.0000 0.03070  0.70600  0.05310  Biso   1.000  N
  N4       1.0000 0.96930  0.29400  0.94690  Biso   1.000  N
  N5       1.0000 0.31440  0.41820  0.35790  Biso   1.000  N
  N6       1.0000 0.68560  0.58180  0.64210  Biso   1.000  N
  N7       1.0000 0.29600  0.32090  0.44350  Biso   1.000  N
  N8       1.0000 0.70400  0.67910  0.55650  Biso   1.000  N
  C1       1.0000 0.13260  0.02720  0.71750  Biso   1.000  C
  C2       1.0000 0.86740  0.97280  0.28250  Biso   1.000  C
  C3       1.0000 0.23170  0.95590  0.79580  Biso   1.000  C
  C4       1.0000 0.76830  0.04410  0.20420  Biso   1.000  C
  C5       1.0000 0.38280  0.97820  0.78120  Biso   1.000  C
  C6       1.0000 0.61720  0.02180  0.21880  Biso   1.000  C
  H9       1.0000 0.42790  0.03960  0.71890  Biso   1.000  H
  H10      1.0000 0.57210  0.96040  0.28110  Biso   1.000  H
  C7       1.0000 0.46960  0.90990  0.85870  Biso   1.000  C
  C8       1.0000 0.53040  0.09010  0.14130  Biso   1.000  C
  H11      1.0000 0.57230  0.92510  0.84610  Biso   1.000  H
  H12      1.0000 0.42770  0.07490  0.15390  Biso   1.000  H
  C9       1.0000 0.40450  0.82040  0.95340  Biso   1.000  C
  C10      1.0000 0.59550  0.17960  0.04660  Biso   1.000  C
  H13      1.0000 0.46150  0.77690  0.00580  Biso   1.000  H
  H14      1.0000 0.53850  0.22310  0.99420  Biso   1.000  H
  C11      1.0000 0.25230  0.79620  0.96950  Biso   1.000  C
  C12      1.0000 0.74770  0.20380  0.03050  Biso   1.000  C
  C13      1.0000 0.16840  0.86210  0.89110  Biso   1.000  C
  C14      1.0000 0.83160  0.13790  0.10890  Biso   1.000  C
  C15      1.0000 0.82290  0.30090  0.43530  Biso   1.000  C
  C16      1.0000 0.17710  0.69910  0.56470  Biso   1.000  C
  C17      1.0000 0.72590  0.38650  0.36020  Biso   1.000  C
  C18      1.0000 0.27410  0.61350  0.63980  Biso   1.000  C
  C19      1.0000 0.77960  0.48480  0.26970  Biso   1.000  C
  C20      1.0000 0.22040  0.51520  0.73030  Biso   1.000  C
  H15      1.0000 0.88370  0.49940  0.25160  Biso   1.000  H
  H16      1.0000 0.11630  0.50060  0.74840  Biso   1.000  H
  C21      1.0000 0.67990  0.56340  0.20400  Biso   1.000  C
  C22      1.0000 0.32010  0.43660  0.79600  Biso   1.000  C
  H17      1.0000 0.72010  0.62790  0.14270  Biso   1.000  H
  H18      1.0000 0.27990  0.37210  0.85730  Biso   1.000  H
  C23      1.0000 0.52500  0.54670  0.22890  Biso   1.000  C
  C24      1.0000 0.47500  0.45330  0.77110  Biso   1.000  C
  H19      1.0000 0.45960  0.59990  0.18610  Biso   1.000  H
  H20      1.0000 0.54040  0.40010  0.81390  Biso   1.000  H
  C25      1.0000 0.46770  0.44750  0.32040  Biso   1.000  C
  C26      1.0000 0.53230  0.55250  0.67960  Biso   1.000  C
  C27      1.0000 0.56740  0.36740  0.38420  Biso   1.000  C
  C28      1.0000 0.43260  0.63260  0.61580  Biso   1.000  C
