data_image0
_cell_length_a       10.1668
_cell_length_b       12.6901
_cell_length_c       17.7561
_cell_angle_alpha    90
_cell_angle_beta     98.282
_cell_angle_gamma    90

_symmetry_space_group_name_H-M    "P 1"
_symmetry_int_tables_number       1

loop_
  _symmetry_equiv_pos_as_xyz
  'x, y, z'

loop_
  _atom_site_label
  _atom_site_occupancy
  _atom_site_fract_x
  _atom_site_fract_y
  _atom_site_fract_z
  _atom_site_thermal_displace_type
  _atom_site_B_iso_or_equiv
  _atom_site_type_symbol
  Cu1      1.0000 0.45011  0.12736  0.14939  Biso   1.000  Cu
  Cu2      1.0000 0.04989  0.62736  0.35061  Biso   1.000  Cu
  Cu3      1.0000 0.54989  0.87264  0.85061  Biso   1.000  Cu
  Cu4      1.0000 0.95011  0.37264  0.64939  Biso   1.000  Cu
  N1       1.0000 0.84880  0.09560  0.85350  Biso   1.000  N
  N2       1.0000 0.65120  0.59560  0.64650  Biso   1.000  N
  N3       1.0000 0.15120  0.90440  0.14650  Biso   1.000  N
  N4       1.0000 0.34880  0.40440  0.35350  Biso   1.000  N
  N5       1.0000 0.57300  0.08230  0.07900  Biso   1.000  N
  N6       1.0000 0.92700  0.58230  0.42100  Biso   1.000  N
  N7       1.0000 0.42700  0.91770  0.92100  Biso   1.000  N
  N8       1.0000 0.07300  0.41770  0.57900  Biso   1.000  N
  N9       1.0000 0.66600  0.00950  0.11010  Biso   1.000  N
  N10      1.0000 0.83400  0.50950  0.38990  Biso   1.000  N
  N11      1.0000 0.33400  0.99050  0.88990  Biso   1.000  N
  N12      1.0000 0.16600  0.49050  0.61010  Biso   1.000  N
  N13      1.0000 0.90790  0.75580  0.29790  Biso   1.000  N
  N14      1.0000 0.59210  0.25580  0.20210  Biso   1.000  N
  N15      1.0000 0.09210  0.24420  0.70210  Biso   1.000  N
  N16      1.0000 0.40790  0.74420  0.79790  Biso   1.000  N
  N17      1.0000 0.95390  0.39820  0.93010  Biso   1.000  N
  N18      1.0000 0.54610  0.89820  0.56990  Biso   1.000  N
  N19      1.0000 0.04610  0.60180  0.06990  Biso   1.000  N
  N20      1.0000 0.45390  0.10180  0.43010  Biso   1.000  N
  N21      1.0000 0.18580  0.19380  0.15650  Biso   1.000  N
  N22      1.0000 0.31420  0.69380  0.34350  Biso   1.000  N
  N23      1.0000 0.81420  0.80620  0.84350  Biso   1.000  N
  N24      1.0000 0.68580  0.30620  0.65650  Biso   1.000  N
  N25      1.0000 0.28730  0.13530  0.19920  Biso   1.000  N
  N26      1.0000 0.21270  0.63530  0.30080  Biso   1.000  N
  N27      1.0000 0.71270  0.86470  0.80080  Biso   1.000  N
  N28      1.0000 0.78730  0.36470  0.69920  Biso   1.000  N
  N29      1.0000 0.93140  0.05520  0.37670  Biso   1.000  N
  N30      1.0000 0.56860  0.55520  0.12330  Biso   1.000  N
  N31      1.0000 0.06860  0.94480  0.62330  Biso   1.000  N
  N32      1.0000 0.43140  0.44480  0.87670  Biso   1.000  N
  O1       1.0000 0.54870  0.01790  0.21289  Biso   1.000  O
  O2       1.0000 0.95130  0.51790  0.28711  Biso   1.000  O
  O3       1.0000 0.45130  0.98210  0.78711  Biso   1.000  O
  O4       1.0000 0.04870  0.48210  0.71289  Biso   1.000  O
  O5       1.0000 0.34350  0.21430  0.07589  Biso   1.000  O
  O6       1.0000 0.15650  0.71430  0.42411  Biso   1.000  O
  O7       1.0000 0.65650  0.78570  0.92411  Biso   1.000  O
  O8       1.0000 0.84350  0.28570  0.57589  Biso   1.000  O
  C1       1.0000 0.80200  0.79030  0.32590  Biso   1.000  C
  C2       1.0000 0.69800  0.29030  0.17410  Biso   1.000  C
  C3       1.0000 0.19800  0.20970  0.67410  Biso   1.000  C
  C4       1.0000 0.30200  0.70970  0.82590  Biso   1.000  C
  H1       1.0000 0.78720  0.76480  0.37310  Biso   1.000  H
  H2       1.0000 0.71280  0.26480  0.12690  Biso   1.000  H
  H3       1.0000 0.21280  0.23520  0.62690  Biso   1.000  H
  H4       1.0000 0.28720  0.73520  0.87310  Biso   1.000  H
  C5       1.0000 0.71250  0.86150  0.28950  Biso   1.000  C
  C6       1.0000 0.78750  0.36150  0.21050  Biso   1.000  C
  C7       1.0000 0.28750  0.13850  0.71050  Biso   1.000  C
  C8       1.0000 0.21250  0.63850  0.78950  Biso   1.000  C
  H5       1.0000 0.63880  0.88190  0.31150  Biso   1.000  H
  H6       1.0000 0.86120  0.38190  0.18850  Biso   1.000  H
  H7       1.0000 0.36120  0.11810  0.68850  Biso   1.000  H
  H8       1.0000 0.13880  0.61810  0.81150  Biso   1.000  H
  C9       1.0000 0.73290  0.90190  0.22070  Biso   1.000  C
  C10      1.0000 0.76710  0.40190  0.27930  Biso   1.000  C
  C11      1.0000 0.26710  0.09810  0.77930  Biso   1.000  C
  C12      1.0000 0.23290  0.59810  0.72070  Biso   1.000  C
  C13      1.0000 0.84110  0.86580  0.19100  Biso   1.000  C
  C14      1.0000 0.65890  0.36580  0.30900  Biso   1.000  C
  C15      1.0000 0.15890  0.13420  0.80900  Biso   1.000  C
  C16      1.0000 0.34110  0.63420  0.69100  Biso   1.000  C
  H9       1.0000 0.85800  0.88970  0.14380  Biso   1.000  H
  H10      1.0000 0.64200  0.38970  0.35620  Biso   1.000  H
  H11      1.0000 0.14200  0.11030  0.85620  Biso   1.000  H
  H12      1.0000 0.35800  0.61030  0.64380  Biso   1.000  H
  C17      1.0000 0.92460  0.79420  0.23090  Biso   1.000  C
  C18      1.0000 0.57540  0.29420  0.26910  Biso   1.000  C
  C19      1.0000 0.07540  0.20580  0.76910  Biso   1.000  C
  C20      1.0000 0.42460  0.70580  0.73090  Biso   1.000  C
  H13      1.0000 0.99780  0.77130  0.20940  Biso   1.000  H
  H14      1.0000 0.50220  0.27130  0.29060  Biso   1.000  H
  H15      1.0000 0.00220  0.22870  0.79060  Biso   1.000  H
  H16      1.0000 0.49780  0.72870  0.70940  Biso   1.000  H
  C21      1.0000 0.63980  0.98260  0.17890  Biso   1.000  C
  C22      1.0000 0.86020  0.48260  0.32110  Biso   1.000  C
  C23      1.0000 0.36020  0.01740  0.82110  Biso   1.000  C
  C24      1.0000 0.13980  0.51740  0.67890  Biso   1.000  C
  C25      1.0000 0.57740  0.12010  0.01400  Biso   1.000  C
  C26      1.0000 0.92260  0.62010  0.48600  Biso   1.000  C
  C27      1.0000 0.42260  0.87990  0.98600  Biso   1.000  C
  C28      1.0000 0.07740  0.37990  0.51400  Biso   1.000  C
  H17      1.0000 0.50770  0.16530  0.99650  Biso   1.000  H
  H18      1.0000 0.99230  0.66530  0.50350  Biso   1.000  H
  H19      1.0000 0.49230  0.83470  0.00350  Biso   1.000  H
  H20      1.0000 0.00770  0.33470  0.49650  Biso   1.000  H
  C29      1.0000 0.65020  0.15990  0.89340  Biso   1.000  C
  C30      1.0000 0.84980  0.65990  0.60660  Biso   1.000  C
  C31      1.0000 0.34980  0.84010  0.10660  Biso   1.000  C
  C32      1.0000 0.15020  0.34010  0.39340  Biso   1.000  C
  H21      1.0000 0.57480  0.20180  0.88270  Biso   1.000  H
  H22      1.0000 0.92520  0.70180  0.61730  Biso   1.000  H
  H23      1.0000 0.42520  0.79820  0.11730  Biso   1.000  H
  H24      1.0000 0.07480  0.29820  0.38270  Biso   1.000  H
  C33      1.0000 0.73920  0.15200  0.84170  Biso   1.000  C
  C34      1.0000 0.76080  0.65200  0.65830  Biso   1.000  C
  C35      1.0000 0.26080  0.84800  0.15830  Biso   1.000  C
  C36      1.0000 0.23920  0.34800  0.34170  Biso   1.000  C
  H25      1.0000 0.72060  0.18860  0.79600  Biso   1.000  H
  H26      1.0000 0.77940  0.68860  0.70400  Biso   1.000  H
  H27      1.0000 0.27940  0.81140  0.20400  Biso   1.000  H
  H28      1.0000 0.22060  0.31140  0.29600  Biso   1.000  H
  C37      1.0000 0.87110  0.04120  0.91750  Biso   1.000  C
  C38      1.0000 0.62890  0.54120  0.58250  Biso   1.000  C
  C39      1.0000 0.12890  0.95880  0.08250  Biso   1.000  C
  C40      1.0000 0.37110  0.45880  0.41750  Biso   1.000  C
  H29      1.0000 0.94770  0.00030  0.92610  Biso   1.000  H
  H30      1.0000 0.55230  0.50030  0.57390  Biso   1.000  H
  H31      1.0000 0.05230  0.99970  0.07390  Biso   1.000  H
  H32      1.0000 0.44770  0.49970  0.42610  Biso   1.000  H
  C41      1.0000 0.78690  0.04130  0.97300  Biso   1.000  C
  C42      1.0000 0.71310  0.54130  0.52700  Biso   1.000  C
  C43      1.0000 0.21310  0.95870  0.02700  Biso   1.000  C
  C44      1.0000 0.28690  0.45870  0.47300  Biso   1.000  C
  H33      1.0000 0.80540  0.00000  0.01650  Biso   1.000  H
  H34      1.0000 0.69460  0.50000  0.48350  Biso   1.000  H
  H35      1.0000 0.19460  0.00000  0.98350  Biso   1.000  H
  H36      1.0000 0.30540  0.50000  0.51650  Biso   1.000  H
  C45      1.0000 0.67440  0.10480  0.96120  Biso   1.000  C
  C46      1.0000 0.82560  0.60480  0.53880  Biso   1.000  C
  C47      1.0000 0.32560  0.89520  0.03880  Biso   1.000  C
  C48      1.0000 0.17440  0.39520  0.46120  Biso   1.000  C
  C49      1.0000 0.91560  0.34970  0.98980  Biso   1.000  C
  C50      1.0000 0.58440  0.84970  0.51020  Biso   1.000  C
  C51      1.0000 0.08440  0.65030  0.01020  Biso   1.000  C
  C52      1.0000 0.41560  0.15030  0.48980  Biso   1.000  C
  H37      1.0000 0.82600  0.35260  0.99500  Biso   1.000  H
  H38      1.0000 0.67400  0.85260  0.50500  Biso   1.000  H
  H39      1.0000 0.17400  0.64740  0.00500  Biso   1.000  H
  H40      1.0000 0.32600  0.14740  0.49500  Biso   1.000  H
  C53      1.0000 0.99900  0.29580  0.04410  Biso   1.000  C
  C54      1.0000 0.50100  0.79580  0.45590  Biso   1.000  C
  C55      1.0000 0.00100  0.70420  0.95590  Biso   1.000  C
  C56      1.0000 0.49900  0.20420  0.54410  Biso   1.000  C
  H41      1.0000 0.96590  0.26380  0.08460  Biso   1.000  H
  H42      1.0000 0.53410  0.76380  0.41540  Biso   1.000  H
  H43      1.0000 0.03410  0.73620  0.91540  Biso   1.000  H
  H44      1.0000 0.46590  0.23620  0.58460  Biso   1.000  H
  C57      1.0000 0.13270  0.28940  0.03800  Biso   1.000  C
  C58      1.0000 0.36730  0.78940  0.46200  Biso   1.000  C
  C59      1.0000 0.86730  0.71060  0.96200  Biso   1.000  C
  C60      1.0000 0.63270  0.21060  0.53800  Biso   1.000  C
  C61      1.0000 0.17360  0.33830  0.97740  Biso   1.000  C
  C62      1.0000 0.32640  0.83830  0.52260  Biso   1.000  C
  C63      1.0000 0.82640  0.66170  0.02260  Biso   1.000  C
  C64      1.0000 0.67360  0.16170  0.47740  Biso   1.000  C
  H45      1.0000 0.26260  0.33610  0.97080  Biso   1.000  H
  H46      1.0000 0.23740  0.83610  0.52920  Biso   1.000  H
  H47      1.0000 0.73740  0.66390  0.02920  Biso   1.000  H
  H48      1.0000 0.76260  0.16390  0.47080  Biso   1.000  H
  C65      1.0000 0.08360  0.39080  0.92610  Biso   1.000  C
  C66      1.0000 0.41640  0.89080  0.57390  Biso   1.000  C
  C67      1.0000 0.91640  0.60920  0.07390  Biso   1.000  C
  C68      1.0000 0.58360  0.10920  0.42610  Biso   1.000  C
  H49      1.0000 0.11510  0.42360  0.88540  Biso   1.000  H
  H50      1.0000 0.38490  0.92360  0.61460  Biso   1.000  H
  H51      1.0000 0.88490  0.57640  0.11460  Biso   1.000  H
  H52      1.0000 0.61510  0.07640  0.38540  Biso   1.000  H
  C69      1.0000 0.23060  0.22860  0.09520  Biso   1.000  C
  C70      1.0000 0.26940  0.72860  0.40480  Biso   1.000  C
  C71      1.0000 0.76940  0.77140  0.90480  Biso   1.000  C
  C72      1.0000 0.73060  0.27140  0.59520  Biso   1.000  C
  C73      1.0000 0.26390  0.08600  0.25760  Biso   1.000  C
  C74      1.0000 0.23610  0.58600  0.24240  Biso   1.000  C
  C75      1.0000 0.73610  0.91400  0.74240  Biso   1.000  C
  C76      1.0000 0.76390  0.41400  0.75760  Biso   1.000  C
  H53      1.0000 0.33610  0.04800  0.28190  Biso   1.000  H
  H54      1.0000 0.16390  0.54800  0.21810  Biso   1.000  H
  H55      1.0000 0.66390  0.95200  0.71810  Biso   1.000  H
  H56      1.0000 0.83610  0.45200  0.78190  Biso   1.000  H
  C77      1.0000 0.14370  0.07750  0.29420  Biso   1.000  C
  C78      1.0000 0.35630  0.57750  0.20580  Biso   1.000  C
  C79      1.0000 0.85630  0.92250  0.70580  Biso   1.000  C
  C80      1.0000 0.64370  0.42250  0.79420  Biso   1.000  C
  C81      1.0000 0.02040  0.12440  0.26840  Biso   1.000  C
  C82      1.0000 0.47960  0.62440  0.23160  Biso   1.000  C
  C83      1.0000 0.97960  0.87560  0.73160  Biso   1.000  C
  C84      1.0000 0.52040  0.37560  0.76840  Biso   1.000  C
  H57      1.0000 0.00630  0.16330  0.22350  Biso   1.000  H
  H58      1.0000 0.49370  0.66330  0.27650  Biso   1.000  H
  H59      1.0000 0.99370  0.83670  0.77650  Biso   1.000  H
  H60      1.0000 0.50630  0.33670  0.72350  Biso   1.000  H
  C85      1.0000 0.91970  0.10980  0.31330  Biso   1.000  C
  C86      1.0000 0.58030  0.60980  0.18670  Biso   1.000  C
  C87      1.0000 0.08030  0.89020  0.68670  Biso   1.000  C
  C88      1.0000 0.41970  0.39020  0.81330  Biso   1.000  C
  H61      1.0000 0.83800  0.14130  0.29700  Biso   1.000  H
  H62      1.0000 0.66200  0.64130  0.20300  Biso   1.000  H
  H63      1.0000 0.16200  0.85870  0.70300  Biso   1.000  H
  H64      1.0000 0.33800  0.35870  0.79700  Biso   1.000  H
  C89      1.0000 0.04720  0.01000  0.39810  Biso   1.000  C
  C90      1.0000 0.45280  0.51000  0.10190  Biso   1.000  C
  C91      1.0000 0.95280  0.99000  0.60190  Biso   1.000  C
  C92      1.0000 0.54720  0.49000  0.89810  Biso   1.000  C
  H65      1.0000 0.05720  0.96970  0.44230  Biso   1.000  H
  H66      1.0000 0.44280  0.46970  0.05770  Biso   1.000  H
  H67      1.0000 0.94280  0.03030  0.55770  Biso   1.000  H
  H68      1.0000 0.55720  0.53030  0.94230  Biso   1.000  H
  C93      1.0000 0.15370  0.01850  0.35960  Biso   1.000  C
  C94      1.0000 0.34630  0.51850  0.14040  Biso   1.000  C
  C95      1.0000 0.84630  0.98150  0.64040  Biso   1.000  C
  C96      1.0000 0.65370  0.48150  0.85960  Biso   1.000  C
  H69      1.0000 0.23290  0.98440  0.37770  Biso   1.000  H
  H70      1.0000 0.26710  0.48440  0.12230  Biso   1.000  H
  H71      1.0000 0.76710  0.01560  0.62230  Biso   1.000  H
  H72      1.0000 0.73290  0.51560  0.87770  Biso   1.000  H
