data_image0
_cell_length_a       9.682
_cell_length_b       12.025
_cell_length_c       19.733
_cell_angle_alpha    90
_cell_angle_beta     90
_cell_angle_gamma    90

_symmetry_space_group_name_H-M    "P 1"
_symmetry_int_tables_number       1

loop_
  _symmetry_equiv_pos_as_xyz
  'x, y, z'

loop_
  _atom_site_label
  _atom_site_occupancy
  _atom_site_fract_x
  _atom_site_fract_y
  _atom_site_fract_z
  _atom_site_thermal_displace_type
  _atom_site_B_iso_or_equiv
  _atom_site_type_symbol
  Cu1      1.0000 0.45521  0.78106  0.36699  Biso   1.000  Cu
  Cu2      1.0000 0.04479  0.21894  0.86699  Biso   1.000  Cu
  Cu3      1.0000 0.95521  0.71894  0.63301  Biso   1.000  Cu
  Cu4      1.0000 0.54479  0.28106  0.13301  Biso   1.000  Cu
  O1       1.0000 0.31050  0.73220  0.30680  Biso   1.000  O
  O2       1.0000 0.18950  0.26780  0.80680  Biso   1.000  O
  O3       1.0000 0.81050  0.76780  0.69320  Biso   1.000  O
  O4       1.0000 0.68950  0.23220  0.19320  Biso   1.000  O
  O5       1.0000 0.34730  0.91440  0.37940  Biso   1.000  O
  O6       1.0000 0.15270  0.08560  0.87940  Biso   1.000  O
  O7       1.0000 0.84730  0.58560  0.62060  Biso   1.000  O
  O8       1.0000 0.65270  0.41440  0.12060  Biso   1.000  O
  O9       1.0000 0.50880  0.10810  0.57130  Biso   1.000  O
  O10      1.0000 0.99120  0.89190  0.07130  Biso   1.000  O
  O11      1.0000 0.00880  0.39190  0.42870  Biso   1.000  O
  O12      1.0000 0.49120  0.60810  0.92870  Biso   1.000  O
  O13      1.0000 0.42180  0.37640  0.22160  Biso   1.000  O
  O14      1.0000 0.07820  0.62360  0.72160  Biso   1.000  O
  O15      1.0000 0.92180  0.12360  0.77840  Biso   1.000  O
  O16      1.0000 0.57820  0.87640  0.27840  Biso   1.000  O
  N1       1.0000 0.56100  0.80310  0.45080  Biso   1.000  N
  N2       1.0000 0.93900  0.19690  0.95080  Biso   1.000  N
  N3       1.0000 0.06100  0.69690  0.54920  Biso   1.000  N
  N4       1.0000 0.43900  0.30310  0.04920  Biso   1.000  N
  N5       1.0000 0.56650  0.64760  0.35400  Biso   1.000  N
  N6       1.0000 0.93350  0.35240  0.85400  Biso   1.000  N
  N7       1.0000 0.06650  0.85240  0.64600  Biso   1.000  N
  N8       1.0000 0.43350  0.14760  0.14600  Biso   1.000  N
  N9       1.0000 0.35410  0.14420  0.48730  Biso   1.000  N
  N10      1.0000 0.14590  0.85580  0.98730  Biso   1.000  N
  N11      1.0000 0.85410  0.35580  0.51270  Biso   1.000  N
  N12      1.0000 0.64590  0.64420  0.01270  Biso   1.000  N
  N13      1.0000 0.20330  0.60630  0.24020  Biso   1.000  N
  N14      1.0000 0.29670  0.39370  0.74020  Biso   1.000  N
  N15      1.0000 0.70330  0.89370  0.75980  Biso   1.000  N
  N16      1.0000 0.79670  0.10630  0.25980  Biso   1.000  N
  C1       1.0000 0.22600  0.49560  0.21230  Biso   1.000  C
  C2       1.0000 0.27400  0.50440  0.71230  Biso   1.000  C
  C3       1.0000 0.72600  0.00440  0.78770  Biso   1.000  C
  C4       1.0000 0.77400  0.99560  0.28770  Biso   1.000  C
  C5       1.0000 0.30050  0.09380  0.42490  Biso   1.000  C
  C6       1.0000 0.19950  0.90620  0.92490  Biso   1.000  C
  C7       1.0000 0.80050  0.40620  0.57510  Biso   1.000  C
  C8       1.0000 0.69950  0.59380  0.07510  Biso   1.000  C
  C9       1.0000 0.31300  0.63900  0.27810  Biso   1.000  C
  C10      1.0000 0.18700  0.36100  0.77810  Biso   1.000  C
  C11      1.0000 0.81300  0.86100  0.72190  Biso   1.000  C
  C12      1.0000 0.68700  0.13900  0.22190  Biso   1.000  C
  C13      1.0000 0.37390  0.98340  0.42420  Biso   1.000  C
  C14      1.0000 0.12610  0.01660  0.92420  Biso   1.000  C
  C15      1.0000 0.87390  0.51660  0.57580  Biso   1.000  C
  C16      1.0000 0.62610  0.48340  0.07580  Biso   1.000  C
  C17      1.0000 0.46130  0.97570  0.47970  Biso   1.000  C
  C18      1.0000 0.03870  0.02430  0.97970  Biso   1.000  C
  C19      1.0000 0.96130  0.52430  0.52030  Biso   1.000  C
  C20      1.0000 0.53870  0.47570  0.02030  Biso   1.000  C
  C21      1.0000 0.41690  0.55740  0.27690  Biso   1.000  C
  C22      1.0000 0.08310  0.44260  0.77690  Biso   1.000  C
  C23      1.0000 0.91690  0.94260  0.72310  Biso   1.000  C
  C24      1.0000 0.58310  0.05740  0.22310  Biso   1.000  C
  C25      1.0000 0.36970  0.46710  0.23590  Biso   1.000  C
  C26      1.0000 0.13030  0.53290  0.73590  Biso   1.000  C
  C27      1.0000 0.86970  0.03290  0.76410  Biso   1.000  C
  C28      1.0000 0.63030  0.96710  0.26410  Biso   1.000  C
  C29      1.0000 0.44900  0.08000  0.51910  Biso   1.000  C
  C30      1.0000 0.05100  0.92000  0.01910  Biso   1.000  C
  C31      1.0000 0.94900  0.42000  0.48090  Biso   1.000  C
  C32      1.0000 0.55100  0.58000  0.98090  Biso   1.000  C
  C33      1.0000 0.55150  0.88360  0.49430  Biso   1.000  C
  C34      1.0000 0.94850  0.11640  0.99430  Biso   1.000  C
  C35      1.0000 0.05150  0.61640  0.50570  Biso   1.000  C
  C36      1.0000 0.44850  0.38360  0.00570  Biso   1.000  C
  C37      1.0000 0.54610  0.56410  0.31340  Biso   1.000  C
  C38      1.0000 0.95390  0.43590  0.81340  Biso   1.000  C
  C39      1.0000 0.04610  0.93590  0.68660  Biso   1.000  C
  C40      1.0000 0.45390  0.06410  0.18660  Biso   1.000  C
  C41      1.0000 0.69160  0.65880  0.39470  Biso   1.000  C
  C42      1.0000 0.80840  0.34120  0.89470  Biso   1.000  C
  C43      1.0000 0.19160  0.84120  0.60530  Biso   1.000  C
  C44      1.0000 0.30840  0.15880  0.10530  Biso   1.000  C
  C45      1.0000 0.65520  0.70830  0.46240  Biso   1.000  C
  C46      1.0000 0.84480  0.29170  0.96240  Biso   1.000  C
  C47      1.0000 0.15520  0.79170  0.53760  Biso   1.000  C
  C48      1.0000 0.34480  0.20830  0.03760  Biso   1.000  C
  C49      1.0000 0.14520  0.07860  0.42840  Biso   1.000  C
  C50      1.0000 0.35480  0.92140  0.92840  Biso   1.000  C
  C51      1.0000 0.64520  0.42140  0.57160  Biso   1.000  C
  C52      1.0000 0.85480  0.57860  0.07160  Biso   1.000  C
  C53      1.0000 0.22200  0.49970  0.13610  Biso   1.000  C
  C54      1.0000 0.27800  0.50030  0.63610  Biso   1.000  C
  C55      1.0000 0.72200  0.00030  0.86390  Biso   1.000  C
  C56      1.0000 0.77800  0.99970  0.36390  Biso   1.000  C
  C57      1.0000 0.34200  0.16150  0.36330  Biso   1.000  C
  C58      1.0000 0.15800  0.83850  0.86330  Biso   1.000  C
  C59      1.0000 0.84200  0.33850  0.63670  Biso   1.000  C
  C60      1.0000 0.65800  0.66150  0.13670  Biso   1.000  C
  C61      1.0000 0.12300  0.41390  0.23900  Biso   1.000  C
  C62      1.0000 0.37700  0.58610  0.73900  Biso   1.000  C
  C63      1.0000 0.62300  0.08610  0.76100  Biso   1.000  C
  C64      1.0000 0.87700  0.91390  0.26100  Biso   1.000  C
  C65      1.0000 0.32200  0.25520  0.50850  Biso   1.000  C
  C66      1.0000 0.17800  0.74480  0.00850  Biso   1.000  C
  C67      1.0000 0.82200  0.24480  0.49150  Biso   1.000  C
  C68      1.0000 0.67800  0.75520  0.99150  Biso   1.000  C
  C69      1.0000 0.07990  0.67110  0.23410  Biso   1.000  C
  C70      1.0000 0.42010  0.32890  0.73410  Biso   1.000  C
  C71      1.0000 0.57990  0.82890  0.76590  Biso   1.000  C
  C72      1.0000 0.92010  0.17110  0.26590  Biso   1.000  C
  C73      1.0000 0.65200  0.47260  0.30310  Biso   1.000  C
  C74      1.0000 0.84800  0.52740  0.80310  Biso   1.000  C
  C75      1.0000 0.15200  0.02740  0.69690  Biso   1.000  C
  C76      1.0000 0.34800  0.97260  0.19690  Biso   1.000  C
  C77      1.0000 0.63300  0.88460  0.55970  Biso   1.000  C
  C78      1.0000 0.86700  0.11540  0.05970  Biso   1.000  C
  C79      1.0000 0.13300  0.61540  0.44030  Biso   1.000  C
  C80      1.0000 0.36700  0.38460  0.94030  Biso   1.000  C
  C81      1.0000 0.77100  0.94080  0.54770  Biso   1.000  C
  C82      1.0000 0.72900  0.05920  0.04770  Biso   1.000  C
  C83      1.0000 0.27100  0.55920  0.45230  Biso   1.000  C
  C84      1.0000 0.22900  0.44080  0.95230  Biso   1.000  C
  C85      1.0000 0.62700  0.38400  0.34860  Biso   1.000  C
  C86      1.0000 0.87300  0.61600  0.84860  Biso   1.000  C
  C87      1.0000 0.12700  0.11600  0.65140  Biso   1.000  C
  C88      1.0000 0.37300  0.88400  0.15140  Biso   1.000  C
  H1       1.0000 0.12380  0.03610  0.46760  Biso   1.000  H
  H2       1.0000 0.37620  0.96390  0.96760  Biso   1.000  H
  H3       1.0000 0.62380  0.46390  0.53240  Biso   1.000  H
  H4       1.0000 0.87620  0.53610  0.03240  Biso   1.000  H
  H5       1.0000 0.28930  0.55180  0.12140  Biso   1.000  H
  H6       1.0000 0.21070  0.44820  0.62140  Biso   1.000  H
  H7       1.0000 0.78930  0.94820  0.87860  Biso   1.000  H
  H8       1.0000 0.71070  0.05180  0.37860  Biso   1.000  H
  H9       1.0000 0.11430  0.04010  0.38920  Biso   1.000  H
  H10      1.0000 0.38570  0.95990  0.88920  Biso   1.000  H
  H11      1.0000 0.61430  0.45990  0.61080  Biso   1.000  H
  H12      1.0000 0.88570  0.54010  0.11080  Biso   1.000  H
  H13      1.0000 0.13320  0.52280  0.12110  Biso   1.000  H
  H14      1.0000 0.36680  0.47720  0.62110  Biso   1.000  H
  H15      1.0000 0.63320  0.97720  0.87890  Biso   1.000  H
  H16      1.0000 0.86680  0.02280  0.37890  Biso   1.000  H
  H17      1.0000 0.10060  0.14880  0.43100  Biso   1.000  H
  H18      1.0000 0.39940  0.85120  0.93100  Biso   1.000  H
  H19      1.0000 0.60060  0.35120  0.56900  Biso   1.000  H
  H20      1.0000 0.89940  0.64880  0.06900  Biso   1.000  H
  H21      1.0000 0.24250  0.42860  0.11770  Biso   1.000  H
  H22      1.0000 0.25750  0.57140  0.61770  Biso   1.000  H
  H23      1.0000 0.74250  0.07140  0.88230  Biso   1.000  H
  H24      1.0000 0.75750  0.92860  0.38230  Biso   1.000  H
  H25      1.0000 0.43930  0.16970  0.36300  Biso   1.000  H
  H26      1.0000 0.06070  0.83030  0.86300  Biso   1.000  H
  H27      1.0000 0.93930  0.33030  0.63700  Biso   1.000  H
  H28      1.0000 0.56070  0.66970  0.13700  Biso   1.000  H
  H29      1.0000 0.12880  0.41330  0.28700  Biso   1.000  H
  H30      1.0000 0.37120  0.58670  0.78700  Biso   1.000  H
  H31      1.0000 0.62880  0.08670  0.71300  Biso   1.000  H
  H32      1.0000 0.87120  0.91330  0.21300  Biso   1.000  H
  H33      1.0000 0.29950  0.23270  0.36510  Biso   1.000  H
  H34      1.0000 0.20050  0.76730  0.86510  Biso   1.000  H
  H35      1.0000 0.79950  0.26730  0.63490  Biso   1.000  H
  H36      1.0000 0.70050  0.73270  0.13490  Biso   1.000  H
  H37      1.0000 0.14240  0.34150  0.22210  Biso   1.000  H
  H38      1.0000 0.35760  0.65850  0.72210  Biso   1.000  H
  H39      1.0000 0.64240  0.15850  0.77790  Biso   1.000  H
  H40      1.0000 0.85760  0.84150  0.27790  Biso   1.000  H
  H41      1.0000 0.31320  0.12410  0.32320  Biso   1.000  H
  H42      1.0000 0.18680  0.87590  0.82320  Biso   1.000  H
  H43      1.0000 0.81320  0.37590  0.67680  Biso   1.000  H
  H44      1.0000 0.68680  0.62410  0.17680  Biso   1.000  H
  H45      1.0000 0.03310  0.43570  0.22550  Biso   1.000  H
  H46      1.0000 0.46690  0.56430  0.72550  Biso   1.000  H
  H47      1.0000 0.53310  0.06430  0.77450  Biso   1.000  H
  H48      1.0000 0.96690  0.93570  0.27450  Biso   1.000  H
  H49      1.0000 0.36490  0.27090  0.55060  Biso   1.000  H
  H50      1.0000 0.13510  0.72910  0.05060  Biso   1.000  H
  H51      1.0000 0.86490  0.22910  0.44940  Biso   1.000  H
  H52      1.0000 0.63510  0.77090  0.94940  Biso   1.000  H
  H53      1.0000 0.09110  0.74040  0.25660  Biso   1.000  H
  H54      1.0000 0.40890  0.25960  0.75660  Biso   1.000  H
  H55      1.0000 0.59110  0.75960  0.74340  Biso   1.000  H
  H56      1.0000 0.90890  0.24040  0.24340  Biso   1.000  H
  H57      1.0000 0.22450  0.26350  0.51300  Biso   1.000  H
  H58      1.0000 0.27550  0.73650  0.01300  Biso   1.000  H
  H59      1.0000 0.72450  0.23650  0.48700  Biso   1.000  H
  H60      1.0000 0.77550  0.76350  0.98700  Biso   1.000  H
  H61      1.0000 0.00540  0.63140  0.25410  Biso   1.000  H
  H62      1.0000 0.49460  0.36860  0.75410  Biso   1.000  H
  H63      1.0000 0.50540  0.86860  0.74590  Biso   1.000  H
  H64      1.0000 0.99460  0.13140  0.24590  Biso   1.000  H
  H65      1.0000 0.35480  0.30540  0.47500  Biso   1.000  H
  H66      1.0000 0.14520  0.69460  0.97500  Biso   1.000  H
  H67      1.0000 0.85480  0.19460  0.52500  Biso   1.000  H
  H68      1.0000 0.64520  0.80540  0.02500  Biso   1.000  H
  H69      1.0000 0.06070  0.68370  0.18750  Biso   1.000  H
  H70      1.0000 0.43930  0.31630  0.68750  Biso   1.000  H
  H71      1.0000 0.56070  0.81630  0.81250  Biso   1.000  H
  H72      1.0000 0.93930  0.18370  0.31250  Biso   1.000  H
  H73      1.0000 0.58330  0.92510  0.59330  Biso   1.000  H
  H74      1.0000 0.91670  0.07490  0.09330  Biso   1.000  H
  H75      1.0000 0.08330  0.57490  0.40670  Biso   1.000  H
  H76      1.0000 0.41670  0.42510  0.90670  Biso   1.000  H
  H77      1.0000 0.64280  0.44450  0.25830  Biso   1.000  H
  H78      1.0000 0.85720  0.55550  0.75830  Biso   1.000  H
  H79      1.0000 0.14280  0.05550  0.74170  Biso   1.000  H
  H80      1.0000 0.35720  0.94450  0.24170  Biso   1.000  H
  H81      1.0000 0.74240  0.50140  0.30920  Biso   1.000  H
  H82      1.0000 0.75760  0.49860  0.80920  Biso   1.000  H
  H83      1.0000 0.24240  0.99860  0.69080  Biso   1.000  H
  H84      1.0000 0.25760  0.00140  0.19080  Biso   1.000  H
  H85      1.0000 0.64710  0.81060  0.57500  Biso   1.000  H
  H86      1.0000 0.85290  0.18940  0.07500  Biso   1.000  H
  H87      1.0000 0.14710  0.68940  0.42500  Biso   1.000  H
  H88      1.0000 0.35290  0.31060  0.92500  Biso   1.000  H
  H89      1.0000 0.82300  0.94220  0.58840  Biso   1.000  H
  H90      1.0000 0.67700  0.05780  0.08840  Biso   1.000  H
  H91      1.0000 0.32300  0.55780  0.41160  Biso   1.000  H
  H92      1.0000 0.17700  0.44220  0.91160  Biso   1.000  H
  H93      1.0000 0.69320  0.32660  0.34110  Biso   1.000  H
  H94      1.0000 0.80680  0.67340  0.84110  Biso   1.000  H
  H95      1.0000 0.19320  0.17340  0.65890  Biso   1.000  H
  H96      1.0000 0.30680  0.82660  0.15890  Biso   1.000  H
  H97      1.0000 0.75570  0.01470  0.53240  Biso   1.000  H
  H98      1.0000 0.74430  0.98530  0.03240  Biso   1.000  H
  H99      1.0000 0.25570  0.48530  0.46760  Biso   1.000  H
  H100     1.0000 0.24430  0.51470  0.96760  Biso   1.000  H
  H101     1.0000 0.53670  0.35420  0.34260  Biso   1.000  H
  H102     1.0000 0.96330  0.64580  0.84260  Biso   1.000  H
  H103     1.0000 0.03670  0.14580  0.65740  Biso   1.000  H
  H104     1.0000 0.46330  0.85420  0.15740  Biso   1.000  H
  H105     1.0000 0.81950  0.90020  0.51410  Biso   1.000  H
  H106     1.0000 0.68050  0.09980  0.01410  Biso   1.000  H
  H107     1.0000 0.31950  0.59980  0.48590  Biso   1.000  H
  H108     1.0000 0.18050  0.40020  0.98590  Biso   1.000  H
  H109     1.0000 0.63630  0.41110  0.39350  Biso   1.000  H
  H110     1.0000 0.86370  0.58890  0.89350  Biso   1.000  H
  H111     1.0000 0.13630  0.08890  0.60650  Biso   1.000  H
  H112     1.0000 0.36370  0.91110  0.10650  Biso   1.000  H
  H113     1.0000 0.73580  0.73310  0.48520  Biso   1.000  H
  H114     1.0000 0.76420  0.26690  0.98520  Biso   1.000  H
  H115     1.0000 0.23580  0.76690  0.51480  Biso   1.000  H
  H116     1.0000 0.26420  0.23310  0.01480  Biso   1.000  H
  H117     1.0000 0.61030  0.65320  0.48890  Biso   1.000  H
  H118     1.0000 0.88970  0.34680  0.98890  Biso   1.000  H
  H119     1.0000 0.11030  0.84680  0.51110  Biso   1.000  H
  H120     1.0000 0.38970  0.15320  0.01110  Biso   1.000  H
  H121     1.0000 0.73430  0.58820  0.39990  Biso   1.000  H
  H122     1.0000 0.76570  0.41180  0.89990  Biso   1.000  H
  H123     1.0000 0.23430  0.91180  0.60010  Biso   1.000  H
  H124     1.0000 0.26570  0.08820  0.10010  Biso   1.000  H
  H125     1.0000 0.75330  0.70800  0.37230  Biso   1.000  H
  H126     1.0000 0.74670  0.29200  0.87230  Biso   1.000  H
  H127     1.0000 0.25330  0.79200  0.62770  Biso   1.000  H
  H128     1.0000 0.24670  0.20800  0.12770  Biso   1.000  H
