data_image0
_cell_length_a       11.164
_cell_length_b       12.34
_cell_length_c       17.069
_cell_angle_alpha    90
_cell_angle_beta     99.76
_cell_angle_gamma    90

_symmetry_space_group_name_H-M    "P 1"
_symmetry_int_tables_number       1

loop_
  _symmetry_equiv_pos_as_xyz
  'x, y, z'

loop_
  _atom_site_label
  _atom_site_occupancy
  _atom_site_fract_x
  _atom_site_fract_y
  _atom_site_fract_z
  _atom_site_thermal_displace_type
  _atom_site_B_iso_or_equiv
  _atom_site_type_symbol
  Cu1      1.0000 0.34964  0.23317  0.67999  Biso   1.000  Cu
  Cu2      1.0000 0.65036  0.73317  0.82001  Biso   1.000  Cu
  Cu3      1.0000 0.65036  0.76683  0.32001  Biso   1.000  Cu
  Cu4      1.0000 0.34964  0.26683  0.17999  Biso   1.000  Cu
  O1       1.0000 0.50130  0.19410  0.64650  Biso   1.000  O
  O2       1.0000 0.49870  0.69410  0.85350  Biso   1.000  O
  O3       1.0000 0.49870  0.80590  0.35350  Biso   1.000  O
  O4       1.0000 0.50130  0.30590  0.14650  Biso   1.000  O
  O5       1.0000 0.35890  0.37010  0.62540  Biso   1.000  O
  O6       1.0000 0.64110  0.87010  0.87460  Biso   1.000  O
  O7       1.0000 0.64110  0.62990  0.37460  Biso   1.000  O
  O8       1.0000 0.35890  0.12990  0.12540  Biso   1.000  O
  O9       1.0000 0.57040  0.81740  0.68650  Biso   1.000  O
  O10      1.0000 0.42960  0.31740  0.81350  Biso   1.000  O
  O11      1.0000 0.42960  0.18260  0.31350  Biso   1.000  O
  O12      1.0000 0.57040  0.68260  0.18650  Biso   1.000  O
  O13      1.0000 0.99310  0.56370  0.62420  Biso   1.000  O
  O14      1.0000 0.00690  0.06370  0.87580  Biso   1.000  O
  O15      1.0000 0.00690  0.43630  0.37580  Biso   1.000  O
  O16      1.0000 0.99310  0.93630  0.12420  Biso   1.000  O
  N1       1.0000 0.33390  0.09070  0.72800  Biso   1.000  N
  N2       1.0000 0.66610  0.59070  0.77200  Biso   1.000  N
  N3       1.0000 0.66610  0.90930  0.27200  Biso   1.000  N
  N4       1.0000 0.33390  0.40930  0.22800  Biso   1.000  N
  N5       1.0000 0.18200  0.25810  0.69740  Biso   1.000  N
  N6       1.0000 0.81800  0.75810  0.80260  Biso   1.000  N
  N7       1.0000 0.81800  0.74190  0.30260  Biso   1.000  N
  N8       1.0000 0.18200  0.24190  0.19740  Biso   1.000  N
  N9       1.0000 0.66000  0.95280  0.62540  Biso   1.000  N
  N10      1.0000 0.34000  0.45280  0.87460  Biso   1.000  N
  N11      1.0000 0.34000  0.04720  0.37460  Biso   1.000  N
  N12      1.0000 0.66000  0.54720  0.12540  Biso   1.000  N
  N13      1.0000 0.17010  0.59590  0.57810  Biso   1.000  N
  N14      1.0000 0.82990  0.09590  0.92190  Biso   1.000  N
  N15      1.0000 0.82990  0.40410  0.42190  Biso   1.000  N
  N16      1.0000 0.17010  0.90410  0.07810  Biso   1.000  N
  C1       1.0000 0.28530  0.54300  0.57270  Biso   1.000  C
  C2       1.0000 0.71470  0.04300  0.92730  Biso   1.000  C
  C3       1.0000 0.71470  0.45700  0.42730  Biso   1.000  C
  C4       1.0000 0.28530  0.95700  0.07270  Biso   1.000  C
  C5       1.0000 0.65340  0.07050  0.61480  Biso   1.000  C
  C6       1.0000 0.34660  0.57050  0.88520  Biso   1.000  C
  C7       1.0000 0.34660  0.92950  0.38520  Biso   1.000  C
  C8       1.0000 0.65340  0.42950  0.11480  Biso   1.000  C
  C9       1.0000 0.27250  0.43780  0.61690  Biso   1.000  C
  C10      1.0000 0.72750  0.93780  0.88310  Biso   1.000  C
  C11      1.0000 0.72750  0.56220  0.38310  Biso   1.000  C
  C12      1.0000 0.27250  0.06220  0.11690  Biso   1.000  C
  C13      1.0000 0.53900  0.09710  0.64920  Biso   1.000  C
  C14      1.0000 0.46100  0.59710  0.85080  Biso   1.000  C
  C15      1.0000 0.46100  0.90290  0.35080  Biso   1.000  C
  C16      1.0000 0.53900  0.40290  0.14920  Biso   1.000  C
  C17      1.0000 0.49530  0.00420  0.68020  Biso   1.000  C
  C18      1.0000 0.50470  0.50420  0.81980  Biso   1.000  C
  C19      1.0000 0.50470  0.99580  0.31980  Biso   1.000  C
  C20      1.0000 0.49530  0.49580  0.18020  Biso   1.000  C
  C21      1.0000 0.16090  0.43350  0.64170  Biso   1.000  C
  C22      1.0000 0.83910  0.93350  0.85830  Biso   1.000  C
  C23      1.0000 0.83910  0.56650  0.35830  Biso   1.000  C
  C24      1.0000 0.16090  0.06650  0.14170  Biso   1.000  C
  C25      1.0000 0.57460  0.91400  0.66700  Biso   1.000  C
  C26      1.0000 0.42540  0.41400  0.83300  Biso   1.000  C
  C27      1.0000 0.42540  0.08600  0.33300  Biso   1.000  C
  C28      1.0000 0.57460  0.58600  0.16700  Biso   1.000  C
  C29      1.0000 0.09560  0.53460  0.61590  Biso   1.000  C
  C30      1.0000 0.90440  0.03460  0.88410  Biso   1.000  C
  C31      1.0000 0.90440  0.46540  0.38410  Biso   1.000  C
  C32      1.0000 0.09560  0.96540  0.11590  Biso   1.000  C
  C33      1.0000 0.11520  0.34420  0.68040  Biso   1.000  C
  C34      1.0000 0.88480  0.84420  0.81960  Biso   1.000  C
  C35      1.0000 0.88480  0.65580  0.31960  Biso   1.000  C
  C36      1.0000 0.11520  0.15580  0.18040  Biso   1.000  C
  C37      1.0000 0.39450  0.00200  0.72250  Biso   1.000  C
  C38      1.0000 0.60550  0.50200  0.77750  Biso   1.000  C
  C39      1.0000 0.60550  0.99800  0.27750  Biso   1.000  C
  C40      1.0000 0.39450  0.49800  0.22250  Biso   1.000  C
  C41      1.0000 0.23940  0.09890  0.77760  Biso   1.000  C
  C42      1.0000 0.76060  0.59890  0.72240  Biso   1.000  C
  C43      1.0000 0.76060  0.90110  0.22240  Biso   1.000  C
  C44      1.0000 0.23940  0.40110  0.27760  Biso   1.000  C
  C45      1.0000 0.13430  0.16290  0.73350  Biso   1.000  C
  C46      1.0000 0.86570  0.66290  0.76650  Biso   1.000  C
  C47      1.0000 0.86570  0.83710  0.26650  Biso   1.000  C
  C48      1.0000 0.13430  0.33710  0.23350  Biso   1.000  C
  C49      1.0000 0.76150  0.12720  0.66500  Biso   1.000  C
  C50      1.0000 0.23850  0.62720  0.83500  Biso   1.000  C
  C51      1.0000 0.23850  0.87280  0.33500  Biso   1.000  C
  C52      1.0000 0.76150  0.37280  0.16500  Biso   1.000  C
  C53      1.0000 0.39420  0.60830  0.61230  Biso   1.000  C
  C54      1.0000 0.60580  0.10830  0.88770  Biso   1.000  C
  C55      1.0000 0.60580  0.39170  0.38770  Biso   1.000  C
  C56      1.0000 0.39420  0.89170  0.11230  Biso   1.000  C
  C57      1.0000 0.29590  0.51660  0.48610  Biso   1.000  C
  C58      1.0000 0.70410  0.01660  0.01390  Biso   1.000  C
  C59      1.0000 0.70410  0.48340  0.51390  Biso   1.000  C
  C60      1.0000 0.29590  0.98340  0.98610  Biso   1.000  C
  C61      1.0000 0.63880  0.10480  0.52860  Biso   1.000  C
  C62      1.0000 0.36120  0.60480  0.97140  Biso   1.000  C
  C63      1.0000 0.36120  0.89520  0.47140  Biso   1.000  C
  C64      1.0000 0.63880  0.39520  0.02860  Biso   1.000  C
  C65      1.0000 0.12380  0.69410  0.53380  Biso   1.000  C
  C66      1.0000 0.87620  0.19410  0.96620  Biso   1.000  C
  C67      1.0000 0.87620  0.30590  0.46620  Biso   1.000  C
  C68      1.0000 0.12380  0.80590  0.03380  Biso   1.000  C
  C69      1.0000 0.75650  0.88590  0.60430  Biso   1.000  C
  C70      1.0000 0.24350  0.38590  0.89570  Biso   1.000  C
  C71      1.0000 0.24350  0.11410  0.39570  Biso   1.000  C
  C72      1.0000 0.75650  0.61410  0.10430  Biso   1.000  C
  C73      1.0000 0.72290  0.82640  0.52710  Biso   1.000  C
  C74      1.0000 0.27710  0.32640  0.97290  Biso   1.000  C
  C75      1.0000 0.27710  0.17360  0.47290  Biso   1.000  C
  C76      1.0000 0.72290  0.67360  0.02710  Biso   1.000  C
  C77      1.0000 0.11920  0.78630  0.58510  Biso   1.000  C
  C78      1.0000 0.88080  0.28630  0.91490  Biso   1.000  C
  C79      1.0000 0.88080  0.21370  0.41490  Biso   1.000  C
  C80      1.0000 0.11920  0.71370  0.08510  Biso   1.000  C
  C81      1.0000 0.36500  0.89790  0.76090  Biso   1.000  C
  C82      1.0000 0.63500  0.39790  0.73910  Biso   1.000  C
  C83      1.0000 0.63500  0.10210  0.23910  Biso   1.000  C
  C84      1.0000 0.36500  0.60210  0.26090  Biso   1.000  C
  C85      1.0000 0.98940  0.35220  0.70090  Biso   1.000  C
  C86      1.0000 0.01060  0.85220  0.79910  Biso   1.000  C
  C87      1.0000 0.01060  0.64780  0.29910  Biso   1.000  C
  C88      1.0000 0.98940  0.14780  0.20090  Biso   1.000  C
  H1       1.0000 0.27100  0.13600  0.82500  Biso   1.000  H
  H2       1.0000 0.72900  0.63600  0.67500  Biso   1.000  H
  H3       1.0000 0.72900  0.86400  0.17500  Biso   1.000  H
  H4       1.0000 0.27100  0.36400  0.32500  Biso   1.000  H
  H5       1.0000 0.09000  0.11900  0.69300  Biso   1.000  H
  H6       1.0000 0.91000  0.61900  0.80700  Biso   1.000  H
  H7       1.0000 0.91000  0.88100  0.30700  Biso   1.000  H
  H8       1.0000 0.09000  0.38100  0.19300  Biso   1.000  H
  H9       1.0000 0.21400  0.02800  0.79000  Biso   1.000  H
  H10      1.0000 0.78600  0.52800  0.71000  Biso   1.000  H
  H11      1.0000 0.78600  0.97200  0.21000  Biso   1.000  H
  H12      1.0000 0.21400  0.47200  0.29000  Biso   1.000  H
  H13      1.0000 0.08200  0.18500  0.76900  Biso   1.000  H
  H14      1.0000 0.91800  0.68500  0.73100  Biso   1.000  H
  H15      1.0000 0.91800  0.81500  0.23100  Biso   1.000  H
  H16      1.0000 0.08200  0.31500  0.26900  Biso   1.000  H
  H17      1.0000 0.75500  0.20300  0.65700  Biso   1.000  H
  H18      1.0000 0.24500  0.70300  0.84300  Biso   1.000  H
  H19      1.0000 0.24500  0.79700  0.34300  Biso   1.000  H
  H20      1.0000 0.75500  0.29700  0.15700  Biso   1.000  H
  H21      1.0000 0.46700  0.57100  0.60700  Biso   1.000  H
  H22      1.0000 0.53300  0.07100  0.89300  Biso   1.000  H
  H23      1.0000 0.53300  0.42900  0.39300  Biso   1.000  H
  H24      1.0000 0.46700  0.92900  0.10700  Biso   1.000  H
  H25      1.0000 0.76100  0.11100  0.71900  Biso   1.000  H
  H26      1.0000 0.23900  0.61100  0.78100  Biso   1.000  H
  H27      1.0000 0.23900  0.88900  0.28100  Biso   1.000  H
  H28      1.0000 0.76100  0.38900  0.21900  Biso   1.000  H
  H29      1.0000 0.39400  0.67700  0.58800  Biso   1.000  H
  H30      1.0000 0.60600  0.17700  0.91200  Biso   1.000  H
  H31      1.0000 0.60600  0.32300  0.41200  Biso   1.000  H
  H32      1.0000 0.39400  0.82300  0.08800  Biso   1.000  H
  H33      1.0000 0.83500  0.10200  0.65000  Biso   1.000  H
  H34      1.0000 0.16500  0.60200  0.85000  Biso   1.000  H
  H35      1.0000 0.16500  0.89800  0.35000  Biso   1.000  H
  H36      1.0000 0.83500  0.39800  0.15000  Biso   1.000  H
  H37      1.0000 0.39000  0.61700  0.66700  Biso   1.000  H
  H38      1.0000 0.61000  0.11700  0.83300  Biso   1.000  H
  H39      1.0000 0.61000  0.38300  0.33300  Biso   1.000  H
  H40      1.0000 0.39000  0.88300  0.16700  Biso   1.000  H
  H41      1.0000 0.63500  0.18200  0.52500  Biso   1.000  H
  H42      1.0000 0.36500  0.68200  0.97500  Biso   1.000  H
  H43      1.0000 0.36500  0.81800  0.47500  Biso   1.000  H
  H44      1.0000 0.63500  0.31800  0.02500  Biso   1.000  H
  H45      1.0000 0.37200  0.48300  0.48400  Biso   1.000  H
  H46      1.0000 0.62800  0.98300  0.01600  Biso   1.000  H
  H47      1.0000 0.62800  0.51700  0.51600  Biso   1.000  H
  H48      1.0000 0.37200  0.01700  0.98400  Biso   1.000  H
  H49      1.0000 0.70600  0.07900  0.50600  Biso   1.000  H
  H50      1.0000 0.29400  0.57900  0.99400  Biso   1.000  H
  H51      1.0000 0.29400  0.92100  0.49400  Biso   1.000  H
  H52      1.0000 0.70600  0.42100  0.00600  Biso   1.000  H
  H53      1.0000 0.23200  0.46900  0.46500  Biso   1.000  H
  H54      1.0000 0.76800  0.96900  0.03500  Biso   1.000  H
  H55      1.0000 0.76800  0.53100  0.53500  Biso   1.000  H
  H56      1.0000 0.23200  0.03100  0.96500  Biso   1.000  H
  H57      1.0000 0.56600  0.07500  0.50000  Biso   1.000  H
  H58      1.0000 0.43400  0.57500  0.00000  Biso   1.000  H
  H59      1.0000 0.43400  0.92500  0.50000  Biso   1.000  H
  H60      1.0000 0.56600  0.42500  0.00000  Biso   1.000  H
  H61      1.0000 0.29000  0.58100  0.45600  Biso   1.000  H
  H62      1.0000 0.71000  0.08100  0.04400  Biso   1.000  H
  H63      1.0000 0.71000  0.41900  0.54400  Biso   1.000  H
  H64      1.0000 0.29000  0.91900  0.95600  Biso   1.000  H
  H65      1.0000 0.77900  0.83400  0.64580  Biso   1.000  H
  H66      1.0000 0.22100  0.33400  0.85420  Biso   1.000  H
  H67      1.0000 0.22100  0.16600  0.35420  Biso   1.000  H
  H68      1.0000 0.77900  0.66600  0.14580  Biso   1.000  H
  H69      1.0000 0.04400  0.68000  0.50700  Biso   1.000  H
  H70      1.0000 0.95600  0.18000  0.99300  Biso   1.000  H
  H71      1.0000 0.95600  0.32000  0.49300  Biso   1.000  H
  H72      1.0000 0.04400  0.82000  0.00700  Biso   1.000  H
  H73      1.0000 0.82400  0.93100  0.60100  Biso   1.000  H
  H74      1.0000 0.17600  0.43100  0.89900  Biso   1.000  H
  H75      1.0000 0.17600  0.06900  0.39900  Biso   1.000  H
  H76      1.0000 0.82400  0.56900  0.10100  Biso   1.000  H
  H77      1.0000 0.17500  0.71000  0.49600  Biso   1.000  H
  H78      1.0000 0.82500  0.21000  0.00400  Biso   1.000  H
  H79      1.0000 0.82500  0.29000  0.50400  Biso   1.000  H
  H80      1.0000 0.17500  0.79000  0.99600  Biso   1.000  H
  H81      1.0000 0.78900  0.78400  0.51600  Biso   1.000  H
  H82      1.0000 0.21100  0.28400  0.98400  Biso   1.000  H
  H83      1.0000 0.21100  0.21600  0.48400  Biso   1.000  H
  H84      1.0000 0.78900  0.71600  0.01600  Biso   1.000  H
  H85      1.0000 0.08900  0.84900  0.55500  Biso   1.000  H
  H86      1.0000 0.91100  0.34900  0.94500  Biso   1.000  H
  H87      1.0000 0.91100  0.15100  0.44500  Biso   1.000  H
  H88      1.0000 0.08900  0.65100  0.05500  Biso   1.000  H
  H89      1.0000 0.65500  0.78100  0.53000  Biso   1.000  H
  H90      1.0000 0.34500  0.28100  0.97000  Biso   1.000  H
  H91      1.0000 0.34500  0.21900  0.47000  Biso   1.000  H
  H92      1.0000 0.65500  0.71900  0.03000  Biso   1.000  H
  H93      1.0000 0.06800  0.77000  0.62300  Biso   1.000  H
  H94      1.0000 0.93200  0.27000  0.87700  Biso   1.000  H
  H95      1.0000 0.93200  0.23000  0.37700  Biso   1.000  H
  H96      1.0000 0.06800  0.73000  0.12300  Biso   1.000  H
  H97      1.0000 0.70100  0.87800  0.48600  Biso   1.000  H
  H98      1.0000 0.29900  0.37800  0.01400  Biso   1.000  H
  H99      1.0000 0.29900  0.12200  0.51400  Biso   1.000  H
  H100     1.0000 0.70100  0.62200  0.98600  Biso   1.000  H
  H101     1.0000 0.19900  0.80000  0.61200  Biso   1.000  H
  H102     1.0000 0.80100  0.30000  0.88800  Biso   1.000  H
  H103     1.0000 0.80100  0.20000  0.38800  Biso   1.000  H
  H104     1.0000 0.19900  0.70000  0.11200  Biso   1.000  H
  H105     1.0000 0.41900  0.84300  0.75000  Biso   1.000  H
  H106     1.0000 0.58100  0.34300  0.75000  Biso   1.000  H
  H107     1.0000 0.58100  0.15700  0.25000  Biso   1.000  H
  H108     1.0000 0.41900  0.65700  0.25000  Biso   1.000  H
  H109     1.0000 0.95500  0.42000  0.68400  Biso   1.000  H
  H110     1.0000 0.04500  0.92000  0.81600  Biso   1.000  H
  H111     1.0000 0.04500  0.58000  0.31600  Biso   1.000  H
  H112     1.0000 0.95500  0.08000  0.18400  Biso   1.000  H
  H113     1.0000 0.37300  0.90800  0.81700  Biso   1.000  H
  H114     1.0000 0.62700  0.40800  0.68300  Biso   1.000  H
  H115     1.0000 0.62700  0.09200  0.18300  Biso   1.000  H
  H116     1.0000 0.37300  0.59200  0.31700  Biso   1.000  H
  H117     1.0000 0.94000  0.29600  0.67500  Biso   1.000  H
  H118     1.0000 0.06000  0.79600  0.82500  Biso   1.000  H
  H119     1.0000 0.06000  0.70400  0.32500  Biso   1.000  H
  H120     1.0000 0.94000  0.20400  0.17500  Biso   1.000  H
  H121     1.0000 0.99400  0.34500  0.75700  Biso   1.000  H
  H122     1.0000 0.00600  0.84500  0.74300  Biso   1.000  H
  H123     1.0000 0.00600  0.65500  0.24300  Biso   1.000  H
  H124     1.0000 0.99400  0.15500  0.25700  Biso   1.000  H
  H125     1.0000 0.28400  0.87700  0.74000  Biso   1.000  H
  H126     1.0000 0.71600  0.37700  0.76000  Biso   1.000  H
  H127     1.0000 0.71600  0.12300  0.26000  Biso   1.000  H
  H128     1.0000 0.28400  0.62300  0.24000  Biso   1.000  H
