data_image0
_cell_length_a       11.4981
_cell_length_b       11.7035
_cell_length_c       13.2243
_cell_angle_alpha    64.013
_cell_angle_beta     89.207
_cell_angle_gamma    83.681

_symmetry_space_group_name_H-M    "P 1"
_symmetry_int_tables_number       1

loop_
  _symmetry_equiv_pos_as_xyz
  'x, y, z'

loop_
  _atom_site_label
  _atom_site_occupancy
  _atom_site_fract_x
  _atom_site_fract_y
  _atom_site_fract_z
  _atom_site_thermal_displace_type
  _atom_site_B_iso_or_equiv
  _atom_site_type_symbol
  P1       1.0000 0.00000  0.00000  0.50000  Biso   1.000  P
  Mo1      1.0000 0.86989  0.98582  0.26431  Biso   1.000  Mo
  Mo2      1.0000 0.13011  0.01418  0.73569  Biso   1.000  Mo
  Mo3      1.0000 0.01877  0.72911  0.76388  Biso   1.000  Mo
  Mo4      1.0000 0.98123  0.27089  0.23612  Biso   1.000  Mo
  Mo5      1.0000 0.72562  0.17541  0.38645  Biso   1.000  Mo
  Mo6      1.0000 0.27438  0.82459  0.61355  Biso   1.000  Mo
  O1       1.0000 0.05450  0.71240  0.45030  Biso   1.000  O
  O2       1.0000 0.94550  0.28760  0.54970  Biso   1.000  O
  Mo7      1.0000 0.15564  0.83602  0.36224  Biso   1.000  Mo
  Mo8      1.0000 0.84436  0.16398  0.63776  Biso   1.000  Mo
  O3       1.0000 0.92800  0.07440  0.40010  Biso   1.000  O
  O4       1.0000 0.07200  0.92560  0.59990  Biso   1.000  O
  Mo9      1.0000 0.91255  0.71322  0.52155  Biso   1.000  Mo
  Mo10     1.0000 0.08745  0.28678  0.47845  Biso   1.000  Mo
  O5       1.0000 0.86340  0.78570  0.75200  Biso   1.000  O
  O6       1.0000 0.13660  0.21430  0.24800  Biso   1.000  O
  Mo11     1.0000 0.73998  0.88659  0.63715  Biso   1.000  Mo
  Mo12     1.0000 0.26002  0.11341  0.36285  Biso   1.000  Mo
  O7       1.0000 0.77290  0.77710  0.57560  Biso   1.000  O
  O8       1.0000 0.22710  0.22290  0.42440  Biso   1.000  O
  O9       1.0000 0.68070  0.01850  0.50360  Biso   1.000  O
  O10      1.0000 0.31930  0.98150  0.49640  Biso   1.000  O
  O11      1.0000 0.23010  0.98220  0.31530  Biso   1.000  O
  O12      1.0000 0.76990  0.01780  0.68470  Biso   1.000  O
  O13      1.0000 0.03030  0.59560  0.88600  Biso   1.000  O
  O14      1.0000 0.96970  0.40440  0.11400  Biso   1.000  O
  O15      1.0000 0.81750  0.98640  0.14760  Biso   1.000  O
  O16      1.0000 0.18250  0.01360  0.85240  Biso   1.000  O
  O17      1.0000 0.62220  0.83890  0.70810  Biso   1.000  O
  O18      1.0000 0.37780  0.16110  0.29190  Biso   1.000  O
  O19      1.0000 0.24900  0.77210  0.50360  Biso   1.000  O
  O20      1.0000 0.75100  0.22790  0.49640  Biso   1.000  O
  O21      1.0000 0.93790  0.15330  0.19390  Biso   1.000  O
  O22      1.0000 0.06210  0.84670  0.80610  Biso   1.000  O
  O23      1.0000 0.74970  0.07470  0.30210  Biso   1.000  O
  O24      1.0000 0.25030  0.92530  0.69790  Biso   1.000  O
  O25      1.0000 0.84540  0.83210  0.37100  Biso   1.000  O
  O26      1.0000 0.15460  0.16790  0.62900  Biso   1.000  O
  O27      1.0000 0.59490  0.25480  0.33360  Biso   1.000  O
  O28      1.0000 0.40510  0.74520  0.66640  Biso   1.000  O
  O29      1.0000 0.82620  0.28260  0.29040  Biso   1.000  O
  O30      1.0000 0.17380  0.71740  0.70960  Biso   1.000  O
  O31      1.0000 0.03230  0.92420  0.26060  Biso   1.000  O
  O32      1.0000 0.96770  0.07580  0.73940  Biso   1.000  O
  O33      1.0000 0.23140  0.75650  0.30110  Biso   1.000  O
  O34      1.0000 0.76860  0.24350  0.69890  Biso   1.000  O
  O35      1.0000 0.98740  0.92140  0.42920  Biso   1.000  O
  O36      1.0000 0.01260  0.07860  0.57080  Biso   1.000  O
  O37      1.0000 0.12380  0.95580  0.47990  Biso   1.000  O
  O38      1.0000 0.87620  0.04420  0.52010  Biso   1.000  O
  O39      1.0000 0.05430  0.12050  0.41660  Biso   1.000  O
  O40      1.0000 0.94570  0.87950  0.58340  Biso   1.000  O
  O41      1.0000 0.86540  0.56540  0.53200  Biso   1.000  O
  O42      1.0000 0.13460  0.43460  0.46800  Biso   1.000  O
  O43      1.0000 0.98330  0.65100  0.66500  Biso   1.000  O
  O44      1.0000 0.01670  0.34900  0.33500  Biso   1.000  O
  Cu1      1.0000 0.50000  0.50000  0.50000  Biso   1.000  Cu
  O45      1.0000 0.54660  0.50060  0.64080  Biso   1.000  O
  O46      1.0000 0.45340  0.49940  0.35920  Biso   1.000  O
  C1       1.0000 0.50280  0.28880  0.70700  Biso   1.000  C
  C2       1.0000 0.49720  0.71120  0.29300  Biso   1.000  C
  N1       1.0000 0.12260  0.09480  0.02500  Biso   1.000  N
  N2       1.0000 0.87740  0.90520  0.97500  Biso   1.000  N
  O47      1.0000 0.69780  0.47960  0.44310  Biso   1.000  O
  O48      1.0000 0.30220  0.52040  0.55690  Biso   1.000  O
  C3       1.0000 0.45890  0.22920  0.57090  Biso   1.000  C
  C4       1.0000 0.54110  0.77080  0.42910  Biso   1.000  C
  H1       1.0000 0.44740  0.24810  0.49550  Biso   1.000  H
  H2       1.0000 0.55260  0.75190  0.50450  Biso   1.000  H
  N3       1.0000 0.46100  0.07810  0.75860  Biso   1.000  N
  N4       1.0000 0.53900  0.92190  0.24140  Biso   1.000  N
  Cu2      1.0000 0.00000  0.00000  0.00000  Biso   1.000  Cu
  O49      1.0000 0.91020  0.16900  0.93320  Biso   1.000  O
  O50      1.0000 0.08980  0.83100  0.06680  Biso   1.000  O
  N5       1.0000 0.48690  0.31940  0.59740  Biso   1.000  N
  N6       1.0000 0.51310  0.68060  0.40260  Biso   1.000  N
  N7       1.0000 0.91910  0.37610  0.89180  Biso   1.000  N
  N8       1.0000 0.08090  0.62390  0.10820  Biso   1.000  N
  N9       1.0000 0.55470  0.38380  0.82910  Biso   1.000  N
  N10      1.0000 0.44530  0.61620  0.17090  Biso   1.000  N
  C5       1.0000 0.53540  0.39970  0.72640  Biso   1.000  C
  C6       1.0000 0.46460  0.60030  0.27360  Biso   1.000  C
  C7       1.0000 0.71560  0.44530  0.91020  Biso   1.000  C
  C8       1.0000 0.28440  0.55470  0.08980  Biso   1.000  C
  H3       1.0000 0.73710  0.51230  0.92820  Biso   1.000  H
  H4       1.0000 0.26290  0.48770  0.07180  Biso   1.000  H
  H5       1.0000 0.71520  0.36820  0.98030  Biso   1.000  H
  H6       1.0000 0.28480  0.63180  0.01970  Biso   1.000  H
  N11      1.0000 0.27870  0.25980  0.01820  Biso   1.000  N
  N12      1.0000 0.72130  0.74020  0.98180  Biso   1.000  N
  C9       1.0000 0.17030  0.29940  0.97640  Biso   1.000  C
  C10      1.0000 0.82970  0.70060  0.02360  Biso   1.000  C
  H7       1.0000 0.14710  0.38710  0.94370  Biso   1.000  H
  H8       1.0000 0.85290  0.61290  0.05630  Biso   1.000  H
  C11      1.0000 0.80360  0.42220  0.83890  Biso   1.000  C
  C12      1.0000 0.19640  0.57780  0.16110  Biso   1.000  C
  H9       1.0000 0.77860  0.36020  0.81610  Biso   1.000  H
  H10      1.0000 0.22140  0.63980  0.18390  Biso   1.000  H
  H11      1.0000 0.80780  0.50130  0.77140  Biso   1.000  H
  H12      1.0000 0.19220  0.49870  0.22860  Biso   1.000  H
  C13      1.0000 0.48760  0.16860  0.78780  Biso   1.000  C
  C14      1.0000 0.51240  0.83140  0.21220  Biso   1.000  C
  H13      1.0000 0.49590  0.14980  0.86350  Biso   1.000  H
  H14      1.0000 0.50410  0.85020  0.13650  Biso   1.000  H
  C15      1.0000 0.96580  0.25670  0.93240  Biso   1.000  C
  C16      1.0000 0.03420  0.74330  0.06760  Biso   1.000  C
  C17      1.0000 0.59370  0.48390  0.85640  Biso   1.000  C
  C18      1.0000 0.40630  0.51610  0.14360  Biso   1.000  C
  H15      1.0000 0.53960  0.49890  0.90740  Biso   1.000  H
  H16      1.0000 0.46040  0.50110  0.09260  Biso   1.000  H
  H17      1.0000 0.59260  0.56320  0.78810  Biso   1.000  H
  H18      1.0000 0.40740  0.43680  0.21190  Biso   1.000  H
  C19      1.0000 0.08840  0.22080  0.97740  Biso   1.000  C
  C20      1.0000 0.91160  0.77920  0.02260  Biso   1.000  C
  C21      1.0000 0.30690  0.13650  0.06440  Biso   1.000  C
  C22      1.0000 0.69310  0.86350  0.93560  Biso   1.000  C
  H19      1.0000 0.38180  0.10420  0.09660  Biso   1.000  H
  H20      1.0000 0.61820  0.89580  0.90340  Biso   1.000  H
  C23      1.0000 0.23100  0.05050  0.06810  Biso   1.000  C
  C24      1.0000 0.76900  0.94950  0.93190  Biso   1.000  C
  H21      1.0000 0.25600  0.96320  0.10020  Biso   1.000  H
  H22      1.0000 0.74400  0.03680  0.89980  Biso   1.000  H
  C25      1.0000 0.44630  0.10870  0.65170  Biso   1.000  C
  C26      1.0000 0.55370  0.89130  0.34830  Biso   1.000  C
  H23      1.0000 0.42690  0.04730  0.63000  Biso   1.000  H
  H24      1.0000 0.57310  0.95270  0.37000  Biso   1.000  H
  O51      1.0000 0.60610  0.14270  0.02750  Biso   1.000  O
  O52      1.0000 0.39390  0.85730  0.97250  Biso   1.000  O
