data_image0
_cell_length_a       6.8222
_cell_length_b       6.8222
_cell_length_c       16.5615
_cell_angle_alpha    90
_cell_angle_beta     90
_cell_angle_gamma    90

_symmetry_space_group_name_H-M    "P 1"
_symmetry_int_tables_number       1

loop_
  _symmetry_equiv_pos_as_xyz
  'x, y, z'

loop_
  _atom_site_label
  _atom_site_occupancy
  _atom_site_fract_x
  _atom_site_fract_y
  _atom_site_fract_z
  _atom_site_thermal_displace_type
  _atom_site_B_iso_or_equiv
  _atom_site_type_symbol
  Cu1      1.0000 0.50000  0.00000  0.00000  Biso   1.000  Cu
  Cu2      1.0000 0.00000  0.50000  0.50000  Biso   1.000  Cu
  Cu3      1.0000 0.50000  0.50000  0.75000  Biso   1.000  Cu
  Cu4      1.0000 0.50000  0.50000  0.25000  Biso   1.000  Cu
  S1       1.0000 0.50000  0.76400  0.90391  Biso   1.000  S
  S2       1.0000 0.50000  0.23600  0.90391  Biso   1.000  S
  S3       1.0000 0.50000  0.23600  0.09609  Biso   1.000  S
  S4       1.0000 0.50000  0.76400  0.09609  Biso   1.000  S
  S5       1.0000 0.23600  0.50000  0.59609  Biso   1.000  S
  S6       1.0000 0.76400  0.50000  0.59609  Biso   1.000  S
  S7       1.0000 0.76400  0.50000  0.40391  Biso   1.000  S
  S8       1.0000 0.23600  0.50000  0.40391  Biso   1.000  S
  C1       1.0000 0.50000  0.89540  0.81470  Biso   1.000  C
  C2       1.0000 0.50000  0.10460  0.81470  Biso   1.000  C
  C3       1.0000 0.50000  0.10460  0.18530  Biso   1.000  C
  C4       1.0000 0.50000  0.89540  0.18530  Biso   1.000  C
  C5       1.0000 0.10460  0.50000  0.68530  Biso   1.000  C
  C6       1.0000 0.89540  0.50000  0.68530  Biso   1.000  C
  C7       1.0000 0.89540  0.50000  0.31470  Biso   1.000  C
  C8       1.0000 0.10460  0.50000  0.31470  Biso   1.000  C
  N1       1.0000 0.50000  0.79660  0.74510  Biso   1.000  N
  N2       1.0000 0.50000  0.20340  0.74510  Biso   1.000  N
  N3       1.0000 0.50000  0.20340  0.25490  Biso   1.000  N
  N4       1.0000 0.50000  0.79660  0.25490  Biso   1.000  N
  N5       1.0000 0.20340  0.50000  0.75490  Biso   1.000  N
  N6       1.0000 0.79660  0.50000  0.75490  Biso   1.000  N
  N7       1.0000 0.79660  0.50000  0.24510  Biso   1.000  N
  N8       1.0000 0.20340  0.50000  0.24510  Biso   1.000  N
  C9       1.0000 0.50000  0.89920  0.67480  Biso   1.000  C
  C10      1.0000 0.50000  0.10080  0.67480  Biso   1.000  C
  C11      1.0000 0.50000  0.10080  0.32520  Biso   1.000  C
  C12      1.0000 0.50000  0.89920  0.32520  Biso   1.000  C
  C13      1.0000 0.10080  0.50000  0.82520  Biso   1.000  C
  C14      1.0000 0.89920  0.50000  0.82520  Biso   1.000  C
  C15      1.0000 0.89920  0.50000  0.17480  Biso   1.000  C
  C16      1.0000 0.10080  0.50000  0.17480  Biso   1.000  C
  H1       1.0000 0.50000  0.83060  0.62490  Biso   1.000  H
  H2       1.0000 0.50000  0.16940  0.62490  Biso   1.000  H
  H3       1.0000 0.50000  0.16940  0.37510  Biso   1.000  H
  H4       1.0000 0.50000  0.83060  0.37510  Biso   1.000  H
  H5       1.0000 0.16940  0.50000  0.87510  Biso   1.000  H
  H6       1.0000 0.83060  0.50000  0.87510  Biso   1.000  H
  H7       1.0000 0.83060  0.50000  0.12490  Biso   1.000  H
  H8       1.0000 0.16940  0.50000  0.12490  Biso   1.000  H
