data_image0
_cell_length_a       11.9584
_cell_length_b       12.3382
_cell_length_c       13.2513
_cell_angle_alpha    84.083
_cell_angle_beta     65.274
_cell_angle_gamma    69.814

_symmetry_space_group_name_H-M    "P 1"
_symmetry_int_tables_number       1

loop_
  _symmetry_equiv_pos_as_xyz
  'x, y, z'

loop_
  _atom_site_label
  _atom_site_occupancy
  _atom_site_fract_x
  _atom_site_fract_y
  _atom_site_fract_z
  _atom_site_thermal_displace_type
  _atom_site_B_iso_or_equiv
  _atom_site_type_symbol
  Cu1      1.0000 0.88992  0.25275  0.36965  Biso   1.000  Cu
  Cu2      1.0000 0.11008  0.74725  0.63035  Biso   1.000  Cu
  Fe1      1.0000 0.33738  0.96100  0.32089  Biso   1.000  Fe
  Fe2      1.0000 0.66262  0.03900  0.67911  Biso   1.000  Fe
  B1       1.0000 0.58960  0.02240  0.21510  Biso   1.000  B
  B2       1.0000 0.41040  0.97760  0.78490  Biso   1.000  B
  H1       1.0000 0.66970  0.04230  0.18190  Biso   1.000  H
  H2       1.0000 0.33030  0.95770  0.81810  Biso   1.000  H
  C1       1.0000 0.52030  0.14060  0.39730  Biso   1.000  C
  C2       1.0000 0.47970  0.85940  0.60270  Biso   1.000  C
  H3       1.0000 0.59040  0.16730  0.37570  Biso   1.000  H
  H4       1.0000 0.40960  0.83270  0.62430  Biso   1.000  H
  C3       1.0000 0.41600  0.16370  0.49880  Biso   1.000  C
  C4       1.0000 0.58400  0.83630  0.50120  Biso   1.000  C
  H5       1.0000 0.40060  0.20900  0.55820  Biso   1.000  H
  H6       1.0000 0.59940  0.79100  0.44180  Biso   1.000  H
  C5       1.0000 0.33880  0.10530  0.49380  Biso   1.000  C
  C6       1.0000 0.66120  0.89470  0.50620  Biso   1.000  C
  H7       1.0000 0.26090  0.10410  0.55150  Biso   1.000  H
  H8       1.0000 0.73910  0.89590  0.44850  Biso   1.000  H
  C7       1.0000 0.73180  0.80360  0.18750  Biso   1.000  C
  C8       1.0000 0.26820  0.19640  0.81250  Biso   1.000  C
  H9       1.0000 0.81470  0.80980  0.15660  Biso   1.000  H
  H10      1.0000 0.18530  0.19020  0.84340  Biso   1.000  H
  C9       1.0000 0.70630  0.70350  0.20800  Biso   1.000  C
  C10      1.0000 0.29370  0.29650  0.79200  Biso   1.000  C
  H11      1.0000 0.76600  0.62880  0.19340  Biso   1.000  H
  H12      1.0000 0.23400  0.37120  0.80660  Biso   1.000  H
  C11      1.0000 0.57070  0.73700  0.25590  Biso   1.000  C
  C12      1.0000 0.42930  0.26300  0.74410  Biso   1.000  C
  H13      1.0000 0.52330  0.68640  0.28020  Biso   1.000  H
  H14      1.0000 0.47670  0.31360  0.71980  Biso   1.000  H
  C13      1.0000 0.51670  0.13320  0.05980  Biso   1.000  C
  C14      1.0000 0.48330  0.86680  0.94020  Biso   1.000  C
  H15      1.0000 0.58740  0.15790  0.01860  Biso   1.000  H
  H16      1.0000 0.41260  0.84210  0.98140  Biso   1.000  H
  C15      1.0000 0.40830  0.15620  0.03890  Biso   1.000  C
  C16      1.0000 0.59170  0.84380  0.96110  Biso   1.000  C
  H17      1.0000 0.39070  0.19880  0.98200  Biso   1.000  H
  H18      1.0000 0.60930  0.80120  0.01800  Biso   1.000  H
  C17      1.0000 0.33110  0.10270  0.11990  Biso   1.000  C
  C18      1.0000 0.66890  0.89730  0.88010  Biso   1.000  C
  H19      1.0000 0.25040  0.10300  0.12670  Biso   1.000  H
  H20      1.0000 0.74960  0.89700  0.87330  Biso   1.000  H
  C19      1.0000 0.16380  0.06980  0.37460  Biso   1.000  C
  C20      1.0000 0.83620  0.93020  0.62540  Biso   1.000  C
  C21      1.0000 0.29130  0.86900  0.24510  Biso   1.000  C
  C22      1.0000 0.70870  0.13100  0.75490  Biso   1.000  C
  C23      1.0000 0.72390  0.12390  0.54970  Biso   1.000  C
  C24      1.0000 0.27610  0.87610  0.45030  Biso   1.000  C
  C25      1.0000 0.76690  0.37980  0.59100  Biso   1.000  C
  C26      1.0000 0.23310  0.62020  0.40900  Biso   1.000  C
  H21      1.0000 0.74260  0.31560  0.62050  Biso   1.000  H
  H22      1.0000 0.25740  0.68440  0.37950  Biso   1.000  H
  C27      1.0000 0.73390  0.46980  0.66200  Biso   1.000  C
  C28      1.0000 0.26610  0.53020  0.33800  Biso   1.000  C
  H23      1.0000 0.68870  0.46500  0.73800  Biso   1.000  H
  H24      1.0000 0.31130  0.53500  0.26200  Biso   1.000  H
  C29      1.0000 0.76620  0.56630  0.62310  Biso   1.000  C
  C30      1.0000 0.23380  0.43370  0.37690  Biso   1.000  C
  C31      1.0000 0.72730  0.66490  0.69900  Biso   1.000  C
  C32      1.0000 0.27270  0.33510  0.30100  Biso   1.000  C
  H25      1.0000 0.64310  0.71750  0.70690  Biso   1.000  H
  H26      1.0000 0.35690  0.28250  0.29310  Biso   1.000  H
  H27      1.0000 0.79040  0.70410  0.66900  Biso   1.000  H
  H28      1.0000 0.20960  0.29590  0.33100  Biso   1.000  H
  H29      1.0000 0.72330  0.63720  0.77050  Biso   1.000  H
  H30      1.0000 0.27670  0.36280  0.22950  Biso   1.000  H
  C33      1.0000 0.83510  0.56610  0.50980  Biso   1.000  C
  C34      1.0000 0.16490  0.43390  0.49020  Biso   1.000  C
  H31      1.0000 0.86040  0.62960  0.47940  Biso   1.000  H
  H32      1.0000 0.13960  0.37040  0.52060  Biso   1.000  H
  C35      1.0000 0.86720  0.47420  0.44060  Biso   1.000  C
  C36      1.0000 0.13280  0.52580  0.55940  Biso   1.000  C
  C37      1.0000 0.94510  0.46500  0.31830  Biso   1.000  C
  C38      1.0000 0.05490  0.53500  0.68170  Biso   1.000  C
  C39      1.0000 0.99490  0.55080  0.26050  Biso   1.000  C
  C40      1.0000 0.00510  0.44920  0.73950  Biso   1.000  C
  H33      1.0000 0.97800  0.61860  0.29750  Biso   1.000  H
  H34      1.0000 0.02200  0.38140  0.70250  Biso   1.000  H
  C41      1.0000 0.06970  0.53310  0.14780  Biso   1.000  C
  C42      1.0000 0.93030  0.46690  0.85220  Biso   1.000  C
  C43      1.0000 0.12630  0.62490  0.08400  Biso   1.000  C
  C44      1.0000 0.87370  0.37510  0.91600  Biso   1.000  C
  H35      1.0000 0.17350  0.60110  0.00650  Biso   1.000  H
  H36      1.0000 0.82650  0.39890  0.99350  Biso   1.000  H
  H37      1.0000 0.18440  0.63480  0.11210  Biso   1.000  H
  H38      1.0000 0.81560  0.36520  0.88790  Biso   1.000  H
  H39      1.0000 0.05680  0.69680  0.09290  Biso   1.000  H
  H40      1.0000 0.94320  0.30320  0.90710  Biso   1.000  H
  C45      1.0000 0.09090  0.43250  0.09710  Biso   1.000  C
  C46      1.0000 0.90910  0.56750  0.90290  Biso   1.000  C
  H41      1.0000 0.14160  0.41820  0.02110  Biso   1.000  H
  H42      1.0000 0.85840  0.58180  0.97890  Biso   1.000  H
  C47      1.0000 0.03710  0.35260  0.15870  Biso   1.000  C
  C48      1.0000 0.96290  0.64740  0.84130  Biso   1.000  C
  H43      1.0000 0.05130  0.28530  0.12270  Biso   1.000  H
  H44      1.0000 0.94870  0.71470  0.87730  Biso   1.000  H
  C49      1.0000 0.88290  0.16230  0.18820  Biso   1.000  C
  C50      1.0000 0.11710  0.83770  0.81180  Biso   1.000  C
  C51      1.0000 0.94440  0.07800  0.09070  Biso   1.000  C
  C52      1.0000 0.05560  0.92200  0.90930  Biso   1.000  C
  C53      1.0000 0.05200  0.98100  0.07840  Biso   1.000  C
  C54      1.0000 0.94800  0.01900  0.92160  Biso   1.000  C
  H45      1.0000 0.08720  0.96790  0.13100  Biso   1.000  H
  H46      1.0000 0.91280  0.03210  0.86900  Biso   1.000  H
  C55      1.0000 0.89290  0.09600  0.01080  Biso   1.000  C
  C56      1.0000 0.10710  0.90400  0.98920  Biso   1.000  C
  H47      1.0000 0.82060  0.16090  0.01810  Biso   1.000  H
  H48      1.0000 0.17940  0.83910  0.98190  Biso   1.000  H
  N1       1.0000 0.50540  0.07400  0.33490  Biso   1.000  N
  N2       1.0000 0.49460  0.92600  0.66510  Biso   1.000  N
  N3       1.0000 0.39160  0.05060  0.39420  Biso   1.000  N
  N4       1.0000 0.60840  0.94940  0.60580  Biso   1.000  N
  N5       1.0000 0.61970  0.89260  0.21830  Biso   1.000  N
  N6       1.0000 0.38030  0.10740  0.78170  Biso   1.000  N
  N7       1.0000 0.51890  0.85040  0.26200  Biso   1.000  N
  N8       1.0000 0.48110  0.14960  0.73800  Biso   1.000  N
  N9       1.0000 0.50470  0.06970  0.14880  Biso   1.000  N
  N10      1.0000 0.49530  0.93030  0.85120  Biso   1.000  N
  N11      1.0000 0.38850  0.05030  0.18740  Biso   1.000  N
  N12      1.0000 0.61150  0.94970  0.81260  Biso   1.000  N
  N13      1.0000 0.06260  0.14020  0.40310  Biso   1.000  N
  N14      1.0000 0.93740  0.85980  0.59690  Biso   1.000  N
  N15      1.0000 0.26900  0.81130  0.19910  Biso   1.000  N
  N16      1.0000 0.73100  0.18870  0.80090  Biso   1.000  N
  N17      1.0000 0.76740  0.17550  0.47550  Biso   1.000  N
  N18      1.0000 0.23260  0.82450  0.52450  Biso   1.000  N
  N19      1.0000 0.83260  0.38050  0.48080  Biso   1.000  N
  N20      1.0000 0.16740  0.61950  0.51920  Biso   1.000  N
  N21      1.0000 0.96520  0.36750  0.26840  Biso   1.000  N
  N22      1.0000 0.03480  0.63250  0.73160  Biso   1.000  N
  O1       1.0000 0.94850  0.14640  0.24650  Biso   1.000  O
  O2       1.0000 0.05150  0.85360  0.75350  Biso   1.000  O
  O3       1.0000 0.78000  0.24120  0.20550  Biso   1.000  O
  O4       1.0000 0.22000  0.75880  0.79450  Biso   1.000  O
  O5       1.0000 0.98660  0.80710  0.34830  Biso   1.000  O
  O6       1.0000 0.01340  0.19290  0.65170  Biso   1.000  O
  H49      1.0000 0.98820  0.79260  0.41190  Biso   1.000  H
  H50      1.0000 0.01180  0.20740  0.58810  Biso   1.000  H
  H51      1.0000 0.04430  0.83820  0.31200  Biso   1.000  H
  H52      1.0000 0.95570  0.16180  0.68800  Biso   1.000  H
  O7       1.0000 0.62120  0.45760  0.26670  Biso   1.000  O
  O8       1.0000 0.37880  0.54240  0.73330  Biso   1.000  O
  H53      1.0000 0.69140  0.40290  0.25910  Biso   1.000  H
  H54      1.0000 0.30860  0.59710  0.74090  Biso   1.000  H
  H55      1.0000 0.63660  0.52080  0.26050  Biso   1.000  H
  H56      1.0000 0.36340  0.47920  0.73950  Biso   1.000  H
  O9       1.0000 0.49850  0.57150  0.07470  Biso   1.000  O
  O10      1.0000 0.50150  0.42850  0.92530  Biso   1.000  O
  H57      1.0000 0.48800  0.64280  0.07940  Biso   1.000  H
  H58      1.0000 0.51200  0.35720  0.92060  Biso   1.000  H
  H59      1.0000 0.56400  0.54280  0.01430  Biso   1.000  H
  H60      1.0000 0.43600  0.45720  0.98570  Biso   1.000  H
  O11      1.0000 0.54510  0.46000  0.43250  Biso   1.000  O
  O12      1.0000 0.45490  0.54000  0.56750  Biso   1.000  O
  H61      1.0000 0.48600  0.44000  0.42810  Biso   1.000  H
  H62      1.0000 0.51400  0.56000  0.57190  Biso   1.000  H
  H63      1.0000 0.59310  0.40240  0.45330  Biso   1.000  H
  H64      1.0000 0.40690  0.59760  0.54670  Biso   1.000  H
  H65      1.0000 0.54270  0.36740  0.17450  Biso   1.000  H
  H66      1.0000 0.45730  0.63260  0.82550  Biso   1.000  H
  H67      1.0000 0.65350  0.39660  0.11900  Biso   1.000  H
  H68      1.0000 0.34650  0.60340  0.88100  Biso   1.000  H
  O13      1.0000 0.57800  0.41720  0.17230  Biso   1.000  O
  O14      1.0000 0.42200  0.58280  0.82770  Biso   1.000  O
