data_image0
_cell_length_a       13.247
_cell_length_b       6.769
_cell_length_c       7.302
_cell_angle_alpha    90
_cell_angle_beta     107.39
_cell_angle_gamma    90

_symmetry_space_group_name_H-M    "P 1"
_symmetry_int_tables_number       1

loop_
  _symmetry_equiv_pos_as_xyz
  'x, y, z'

loop_
  _atom_site_label
  _atom_site_occupancy
  _atom_site_fract_x
  _atom_site_fract_y
  _atom_site_fract_z
  _atom_site_thermal_displace_type
  _atom_site_B_iso_or_equiv
  _atom_site_type_symbol
  Cu1      1.0000 0.00000  0.00000  0.50000  Biso   1.000  Cu
  Cu2      1.0000 0.00000  0.50000  0.00000  Biso   1.000  Cu
  Cl1      1.0000 0.06912  0.21480  0.74810  Biso   1.000  Cl
  Cl2      1.0000 0.93088  0.71480  0.75190  Biso   1.000  Cl
  Cl3      1.0000 0.93088  0.78520  0.25190  Biso   1.000  Cl
  Cl4      1.0000 0.06912  0.28520  0.24810  Biso   1.000  Cl
  N1       1.0000 0.74630  0.37250  0.38920  Biso   1.000  N
  N2       1.0000 0.25370  0.87250  0.11080  Biso   1.000  N
  N3       1.0000 0.25370  0.62750  0.61080  Biso   1.000  N
  N4       1.0000 0.74630  0.12750  0.88920  Biso   1.000  N
  N5       1.0000 0.69620  0.19980  0.38220  Biso   1.000  N
  N6       1.0000 0.30380  0.69980  0.11780  Biso   1.000  N
  N7       1.0000 0.30380  0.80020  0.61780  Biso   1.000  N
  N8       1.0000 0.69620  0.30020  0.88220  Biso   1.000  N
  N9       1.0000 0.76660  0.06160  0.41150  Biso   1.000  N
  N10      1.0000 0.23340  0.56160  0.08850  Biso   1.000  N
  N11      1.0000 0.23340  0.93840  0.58850  Biso   1.000  N
  N12      1.0000 0.76660  0.43840  0.91150  Biso   1.000  N
  N13      1.0000 0.86340  0.14560  0.43840  Biso   1.000  N
  N14      1.0000 0.13660  0.64560  0.06160  Biso   1.000  N
  N15      1.0000 0.13660  0.85440  0.56160  Biso   1.000  N
  N16      1.0000 0.86340  0.35440  0.93840  Biso   1.000  N
  C1       1.0000 0.84740  0.33510  0.42230  Biso   1.000  C
  C2       1.0000 0.15260  0.83510  0.07770  Biso   1.000  C
  C3       1.0000 0.15260  0.66490  0.57770  Biso   1.000  C
  C4       1.0000 0.84740  0.16490  0.92230  Biso   1.000  C
  H1       1.0000 0.89210  0.42500  0.42700  Biso   1.000  H
  H2       1.0000 0.10790  0.92500  0.07300  Biso   1.000  H
  H3       1.0000 0.10790  0.57500  0.57300  Biso   1.000  H
  H4       1.0000 0.89210  0.07500  0.92700  Biso   1.000  H
  C5       1.0000 0.69240  0.56620  0.36250  Biso   1.000  C
  C6       1.0000 0.30760  0.06620  0.13750  Biso   1.000  C
  C7       1.0000 0.30760  0.43380  0.63750  Biso   1.000  C
  C8       1.0000 0.69240  0.93380  0.86250  Biso   1.000  C
  H5       1.0000 0.73820  0.67700  0.34400  Biso   1.000  H
  H6       1.0000 0.26180  0.17700  0.15600  Biso   1.000  H
  H7       1.0000 0.26180  0.32300  0.65600  Biso   1.000  H
  H8       1.0000 0.73820  0.82300  0.84400  Biso   1.000  H
  H9       1.0000 0.68500  0.58000  0.52000  Biso   1.000  H
  H10      1.0000 0.31500  0.08000  0.98000  Biso   1.000  H
  H11      1.0000 0.31500  0.42000  0.48000  Biso   1.000  H
  H12      1.0000 0.68500  0.92000  0.02000  Biso   1.000  H
  C9       1.0000 0.59380  0.57110  0.29300  Biso   1.000  C
  C10      1.0000 0.40620  0.07110  0.20700  Biso   1.000  C
  C11      1.0000 0.40620  0.42890  0.70700  Biso   1.000  C
  C12      1.0000 0.59380  0.92890  0.79300  Biso   1.000  C
  H13      1.0000 0.56820  0.70450  0.28380  Biso   1.000  H
  H14      1.0000 0.43180  0.20450  0.21620  Biso   1.000  H
  H15      1.0000 0.43180  0.29550  0.71620  Biso   1.000  H
  H16      1.0000 0.56820  0.79550  0.78380  Biso   1.000  H
  H17      1.0000 0.57740  0.51480  0.16670  Biso   1.000  H
  H18      1.0000 0.42260  0.01480  0.33330  Biso   1.000  H
  H19      1.0000 0.42260  0.48520  0.83330  Biso   1.000  H
  H20      1.0000 0.57740  0.98520  0.66670  Biso   1.000  H
  H21      1.0000 0.56060  0.49460  0.36950  Biso   1.000  H
  H22      1.0000 0.43940  0.99460  0.13050  Biso   1.000  H
  H23      1.0000 0.43940  0.50540  0.63050  Biso   1.000  H
  H24      1.0000 0.56060  0.00540  0.86950  Biso   1.000  H
