data_image0
_cell_length_a       11.3657
_cell_length_b       12.442
_cell_length_c       21.2427
_cell_angle_alpha    105.721
_cell_angle_beta     92.663
_cell_angle_gamma    116.232

_symmetry_space_group_name_H-M    "P 1"
_symmetry_int_tables_number       1

loop_
  _symmetry_equiv_pos_as_xyz
  'x, y, z'

loop_
  _atom_site_label
  _atom_site_occupancy
  _atom_site_fract_x
  _atom_site_fract_y
  _atom_site_fract_z
  _atom_site_thermal_displace_type
  _atom_site_B_iso_or_equiv
  _atom_site_type_symbol
  C1       1.0000 0.54010  0.46990  0.91250  Biso   1.000  C
  C2       1.0000 0.45990  0.53010  0.08750  Biso   1.000  C
  H1       1.0000 0.45010  0.40300  0.90400  Biso   1.000  H
  H2       1.0000 0.54990  0.59700  0.09600  Biso   1.000  H
  H3       1.0000 0.54130  0.55030  0.92920  Biso   1.000  H
  H4       1.0000 0.45870  0.44970  0.07080  Biso   1.000  H
  H5       1.0000 0.59490  0.46210  0.94500  Biso   1.000  H
  H6       1.0000 0.40510  0.53790  0.05500  Biso   1.000  H
  C3       1.0000 0.72210  0.55230  0.85490  Biso   1.000  C
  C4       1.0000 0.27790  0.44770  0.14510  Biso   1.000  C
  C5       1.0000 0.81500  0.61410  0.91120  Biso   1.000  C
  C6       1.0000 0.18500  0.38590  0.08880  Biso   1.000  C
  H7       1.0000 0.79410  0.59960  0.95090  Biso   1.000  H
  H8       1.0000 0.20590  0.40040  0.04910  Biso   1.000  H
  C7       1.0000 0.94370  0.70090  0.90870  Biso   1.000  C
  C8       1.0000 0.05630  0.29910  0.09130  Biso   1.000  C
  H9       1.0000 0.01030  0.74330  0.94680  Biso   1.000  H
  H10      1.0000 0.98970  0.25670  0.05320  Biso   1.000  H
  C9       1.0000 0.97250  0.72380  0.84980  Biso   1.000  C
  C10      1.0000 0.02750  0.27620  0.15020  Biso   1.000  C
  H11      1.0000 0.05790  0.78280  0.84850  Biso   1.000  H
  H12      1.0000 0.94210  0.21720  0.15150  Biso   1.000  H
  C11      1.0000 0.87320  0.65850  0.79170  Biso   1.000  C
  C12      1.0000 0.12680  0.34150  0.20830  Biso   1.000  C
  C13      1.0000 0.74570  0.56960  0.79360  Biso   1.000  C
  C14      1.0000 0.25430  0.43040  0.20640  Biso   1.000  C
  C15      1.0000 0.90940  0.69080  0.73240  Biso   1.000  C
  C16      1.0000 0.09060  0.30920  0.26760  Biso   1.000  C
  H13      1.0000 0.99590  0.75510  0.73770  Biso   1.000  H
  H14      1.0000 0.00410  0.24490  0.26230  Biso   1.000  H
  C17      1.0000 0.90040  0.70560  0.62510  Biso   1.000  C
  C18      1.0000 0.09960  0.29440  0.37490  Biso   1.000  C
  H15      1.0000 0.91480  0.79210  0.64120  Biso   1.000  H
  H16      1.0000 0.08520  0.20790  0.35880  Biso   1.000  H
  H17      1.0000 0.98780  0.71020  0.62540  Biso   1.000  H
  H18      1.0000 0.01220  0.28980  0.37460  Biso   1.000  H
  C19      1.0000 0.84020  0.65800  0.56510  Biso   1.000  C
  C20      1.0000 0.15980  0.34200  0.43490  Biso   1.000  C
  H19      1.0000 0.89680  0.62690  0.54300  Biso   1.000  H
  H20      1.0000 0.10320  0.37310  0.45700  Biso   1.000  H
  H21      1.0000 0.85850  0.73360  0.55330  Biso   1.000  H
  H22      1.0000 0.14150  0.26640  0.44670  Biso   1.000  H
  C21      1.0000 0.71770  0.57390  0.52690  Biso   1.000  C
  C22      1.0000 0.28230  0.42610  0.47310  Biso   1.000  C
  H23      1.0000 0.72810  0.54050  0.48180  Biso   1.000  H
  H24      1.0000 0.27190  0.45950  0.51820  Biso   1.000  H
  H25      1.0000 0.66550  0.61760  0.52510  Biso   1.000  H
  H26      1.0000 0.33450  0.38240  0.47490  Biso   1.000  H
  C23      1.0000 0.57520  0.36060  0.50890  Biso   1.000  C
  C24      1.0000 0.42480  0.63940  0.49110  Biso   1.000  C
  H27      1.0000 0.57880  0.35810  0.46490  Biso   1.000  H
  H28      1.0000 0.42120  0.64190  0.53510  Biso   1.000  H
  C25      1.0000 0.49140  0.24160  0.51850  Biso   1.000  C
  C26      1.0000 0.50860  0.75840  0.48150  Biso   1.000  C
  C27      1.0000 0.43900  0.13050  0.46240  Biso   1.000  C
  C28      1.0000 0.56100  0.86950  0.53760  Biso   1.000  C
  H29      1.0000 0.45630  0.13730  0.42090  Biso   1.000  H
  H30      1.0000 0.54370  0.86270  0.57910  Biso   1.000  H
  C29      1.0000 0.36470  0.01500  0.46770  Biso   1.000  C
  C30      1.0000 0.63530  0.98500  0.53230  Biso   1.000  C
  H31      1.0000 0.33180  0.94360  0.42990  Biso   1.000  H
  H32      1.0000 0.66820  0.05640  0.57010  Biso   1.000  H
  C31      1.0000 0.33640  0.00140  0.52950  Biso   1.000  C
  C32      1.0000 0.66360  0.99860  0.47050  Biso   1.000  C
  H33      1.0000 0.28360  0.92180  0.53300  Biso   1.000  H
  H34      1.0000 0.71640  0.07820  0.46700  Biso   1.000  H
  C33      1.0000 0.38880  0.10920  0.58550  Biso   1.000  C
  C34      1.0000 0.61120  0.89080  0.41450  Biso   1.000  C
  C35      1.0000 0.46490  0.23010  0.58130  Biso   1.000  C
  C36      1.0000 0.53510  0.76990  0.41870  Biso   1.000  C
  C37      1.0000 0.28960  0.98440  0.65470  Biso   1.000  C
  C38      1.0000 0.71040  0.01560  0.34530  Biso   1.000  C
  H35      1.0000 0.28430  0.99250  0.70060  Biso   1.000  H
  H36      1.0000 0.71570  0.00750  0.29940  Biso   1.000  H
  H37      1.0000 0.32710  0.92910  0.63800  Biso   1.000  H
  H38      1.0000 0.67290  0.07090  0.36200  Biso   1.000  H
  H39      1.0000 0.20160  0.94970  0.62920  Biso   1.000  H
  H40      1.0000 0.79840  0.05030  0.37080  Biso   1.000  H
  C39      1.0000 0.74680  0.28720  0.69680  Biso   1.000  C
  C40      1.0000 0.25320  0.71280  0.30320  Biso   1.000  C
  H41      1.0000 0.71450  0.30460  0.66020  Biso   1.000  H
  H42      1.0000 0.28550  0.69540  0.33980  Biso   1.000  H
  H43      1.0000 0.75390  0.21090  0.68030  Biso   1.000  H
  H44      1.0000 0.24610  0.78910  0.31970  Biso   1.000  H
  H45      1.0000 0.83310  0.35650  0.71960  Biso   1.000  H
  H46      1.0000 0.16690  0.64350  0.28040  Biso   1.000  H
  C41      1.0000 0.68990  0.24580  0.79750  Biso   1.000  C
  C42      1.0000 0.31010  0.75420  0.20250  Biso   1.000  C
  C43      1.0000 0.81140  0.25200  0.81630  Biso   1.000  C
  C44      1.0000 0.18860  0.74800  0.18370  Biso   1.000  C
  H47      1.0000 0.87840  0.27740  0.79180  Biso   1.000  H
  H48      1.0000 0.12160  0.72260  0.20820  Biso   1.000  H
  C45      1.0000 0.83310  0.21990  0.87220  Biso   1.000  C
  C46      1.0000 0.16690  0.78010  0.12780  Biso   1.000  C
  H49      1.0000 0.91430  0.22340  0.88520  Biso   1.000  H
  H50      1.0000 0.08570  0.77660  0.11480  Biso   1.000  H
  C47      1.0000 0.73260  0.18300  0.90780  Biso   1.000  C
  C48      1.0000 0.26740  0.81700  0.09220  Biso   1.000  C
  H51      1.0000 0.74750  0.16120  0.94480  Biso   1.000  H
  H52      1.0000 0.25250  0.83880  0.05520  Biso   1.000  H
  C49      1.0000 0.60780  0.17690  0.89040  Biso   1.000  C
  C50      1.0000 0.39220  0.82310  0.10960  Biso   1.000  C
  C51      1.0000 0.58720  0.20730  0.83370  Biso   1.000  C
  C52      1.0000 0.41280  0.79270  0.16630  Biso   1.000  C
  C53      1.0000 0.51650  0.14860  0.93380  Biso   1.000  C
  C54      1.0000 0.48350  0.85140  0.06620  Biso   1.000  C
  H53      1.0000 0.54430  0.13390  0.97110  Biso   1.000  H
  H54      1.0000 0.45570  0.86610  0.02890  Biso   1.000  H
  C55      1.0000 0.32680  0.11780  0.98310  Biso   1.000  C
  C56      1.0000 0.67320  0.88220  0.01690  Biso   1.000  C
  H55      1.0000 0.37610  0.09840  0.01280  Biso   1.000  H
  H56      1.0000 0.62390  0.90160  0.98720  Biso   1.000  H
  H57      1.0000 0.32790  0.19620  0.00810  Biso   1.000  H
  H58      1.0000 0.67210  0.80380  0.99190  Biso   1.000  H
  C57      1.0000 0.19500  0.02230  0.96560  Biso   1.000  C
  C58      1.0000 0.80500  0.97770  0.03440  Biso   1.000  C
  H59      1.0000 0.16590  0.00140  0.00490  Biso   1.000  H
  H60      1.0000 0.83410  0.99860  0.99510  Biso   1.000  H
  H61      1.0000 0.18970  0.94700  0.93370  Biso   1.000  H
  H62      1.0000 0.81030  0.05300  0.06630  Biso   1.000  H
  C59      1.0000 0.10240  0.06280  0.93510  Biso   1.000  C
  C60      1.0000 0.89760  0.93720  0.06490  Biso   1.000  C
  H63      1.0000 0.01040  0.99830  0.92860  Biso   1.000  H
  H64      1.0000 0.98960  0.00170  0.07140  Biso   1.000  H
  H65      1.0000 0.11230  0.14090  0.96620  Biso   1.000  H
  H66      1.0000 0.88770  0.85910  0.03380  Biso   1.000  H
  C61      1.0000 0.02710  0.04790  0.82670  Biso   1.000  C
  C62      1.0000 0.97290  0.95210  0.17330  Biso   1.000  C
  H67      1.0000 0.94470  0.00530  0.83790  Biso   1.000  H
  H68      1.0000 0.05530  0.99470  0.16210  Biso   1.000  H
  C63      1.0000 0.02290  0.06670  0.76360  Biso   1.000  C
  C64      1.0000 0.97710  0.93330  0.23640  Biso   1.000  C
  C65      1.0000 0.89570  0.01470  0.72470  Biso   1.000  C
  C66      1.0000 0.10430  0.98530  0.27530  Biso   1.000  C
  H69      1.0000 0.82030  0.96390  0.73850  Biso   1.000  H
  H70      1.0000 0.17970  0.03610  0.26150  Biso   1.000  H
  C67      1.0000 0.88240  0.03860  0.66640  Biso   1.000  C
  C68      1.0000 0.11760  0.96140  0.33360  Biso   1.000  C
  H71      1.0000 0.79780  0.00210  0.64040  Biso   1.000  H
  H72      1.0000 0.20220  0.99790  0.35960  Biso   1.000  H
  C69      1.0000 0.99270  0.11630  0.64520  Biso   1.000  C
  C70      1.0000 0.00730  0.88370  0.35480  Biso   1.000  C
  H73      1.0000 0.98170  0.13160  0.60540  Biso   1.000  H
  H74      1.0000 0.01830  0.86840  0.39460  Biso   1.000  H
  C71      1.0000 0.11890  0.17070  0.68330  Biso   1.000  C
  C72      1.0000 0.88110  0.82930  0.31670  Biso   1.000  C
  C73      1.0000 0.13680  0.14380  0.74180  Biso   1.000  C
  C74      1.0000 0.86320  0.85620  0.25820  Biso   1.000  C
  C75      1.0000 0.21970  0.30860  0.62020  Biso   1.000  C
  C76      1.0000 0.78030  0.69140  0.37980  Biso   1.000  C
  H75      1.0000 0.30610  0.36180  0.61290  Biso   1.000  H
  H76      1.0000 0.69390  0.63820  0.38710  Biso   1.000  H
  H77      1.0000 0.17680  0.35880  0.63710  Biso   1.000  H
  H78      1.0000 0.82320  0.64120  0.36290  Biso   1.000  H
  H79      1.0000 0.16620  0.24420  0.57880  Biso   1.000  H
  H80      1.0000 0.83380  0.75580  0.42120  Biso   1.000  H
  C77      1.0000 0.30160  0.85480  0.77780  Biso   1.000  C
  C78      1.0000 0.69840  0.14520  0.22220  Biso   1.000  C
  C79      1.0000 0.50850  0.88670  0.72280  Biso   1.000  C
  C80      1.0000 0.49150  0.11330  0.27720  Biso   1.000  C
  C81      1.0000 0.48910  0.65760  0.68540  Biso   1.000  C
  C82      1.0000 0.51090  0.34240  0.31460  Biso   1.000  C
  C83      1.0000 0.38800  0.56650  0.77310  Biso   1.000  C
  C84      1.0000 0.61200  0.43350  0.22690  Biso   1.000  C
  C85      1.0000 0.27820  0.68330  0.65730  Biso   1.000  C
  C86      1.0000 0.72180  0.31670  0.34270  Biso   1.000  C
  C87      1.0000 0.18380  0.59670  0.74810  Biso   1.000  C
  C88      1.0000 0.81620  0.40330  0.25190  Biso   1.000  C
  C89      1.0000 0.36720  0.76530  0.85770  Biso   1.000  C
  C90      1.0000 0.63280  0.23470  0.14230  Biso   1.000  C
  C91      1.0000 0.58760  0.81430  0.81360  Biso   1.000  C
  C92      1.0000 0.41240  0.18570  0.18640  Biso   1.000  C
  C93      1.0000 0.17300  0.45080  0.92010  Biso   1.000  C
  C94      1.0000 0.82700  0.54920  0.07990  Biso   1.000  C
  C95      1.0000 0.11000  0.52910  0.91590  Biso   1.000  C
  C96      1.0000 0.89000  0.47090  0.08410  Biso   1.000  C
  H81      1.0000 0.01780  0.47560  0.89460  Biso   1.000  H
  H82      1.0000 0.98220  0.52440  0.10540  Biso   1.000  H
  H83      1.0000 0.15510  0.58280  0.89050  Biso   1.000  H
  H84      1.0000 0.84490  0.41720  0.10950  Biso   1.000  H
  H85      1.0000 0.11550  0.58030  0.96000  Biso   1.000  H
  H86      1.0000 0.88450  0.41970  0.04000  Biso   1.000  H
  Cu1      1.0000 0.65633  0.50093  0.64952  Biso   1.000  Cu
  Cu2      1.0000 0.34367  0.49907  0.35048  Biso   1.000  Cu
  Cu3      1.0000 0.30812  0.13772  0.84639  Biso   1.000  Cu
  Cu4      1.0000 0.69188  0.86228  0.15361  Biso   1.000  Cu
  Dy1      1.0000 0.45719  0.31181  0.74030  Biso   1.000  Dy
  Dy2      1.0000 0.54281  0.68819  0.25970  Biso   1.000  Dy
  Mo1      1.0000 0.38783  0.72897  0.75516  Biso   1.000  Mo
  Mo2      1.0000 0.61217  0.27103  0.24484  Biso   1.000  Mo
  N1       1.0000 0.83960  0.64360  0.67470  Biso   1.000  N
  N2       1.0000 0.16040  0.35640  0.32530  Biso   1.000  N
  N3       1.0000 0.64340  0.46670  0.55210  Biso   1.000  N
  N4       1.0000 0.35660  0.53330  0.44790  Biso   1.000  N
  N5       1.0000 0.39950  0.14060  0.92800  Biso   1.000  N
  N6       1.0000 0.60050  0.85940  0.07200  Biso   1.000  N
  N7       1.0000 0.13040  0.08240  0.87010  Biso   1.000  N
  N8       1.0000 0.86960  0.91760  0.12990  Biso   1.000  N
  N9       1.0000 0.25600  0.92220  0.79080  Biso   1.000  N
  N10      1.0000 0.74400  0.07780  0.20920  Biso   1.000  N
  N11      1.0000 0.56970  0.96760  0.70280  Biso   1.000  N
  N12      1.0000 0.43030  0.03240  0.29720  Biso   1.000  N
  N13      1.0000 0.54090  0.61510  0.65020  Biso   1.000  N
  N14      1.0000 0.45910  0.38490  0.34980  Biso   1.000  N
  N15      1.0000 0.38990  0.47720  0.77660  Biso   1.000  N
  N16      1.0000 0.61010  0.52280  0.22340  Biso   1.000  N
  N17      1.0000 0.22160  0.66000  0.60570  Biso   1.000  N
  N18      1.0000 0.77840  0.34000  0.39430  Biso   1.000  N
  N19      1.0000 0.07340  0.52070  0.74230  Biso   1.000  N
  N20      1.0000 0.92660  0.47930  0.25770  Biso   1.000  N
  N21      1.0000 0.35580  0.78980  0.91200  Biso   1.000  N
  N22      1.0000 0.64420  0.21020  0.08800  Biso   1.000  N
  N23      1.0000 0.69060  0.85750  0.84450  Biso   1.000  N
  N24      1.0000 0.30940  0.14250  0.15550  Biso   1.000  N
  N25      1.0000 0.21790  0.39050  0.92810  Biso   1.000  N
  N26      1.0000 0.78210  0.60950  0.07190  Biso   1.000  N
  O1       1.0000 0.59090  0.46140  0.85204  Biso   1.000  O
  O2       1.0000 0.40910  0.53860  0.14796  Biso   1.000  O
  O3       1.0000 0.64790  0.50010  0.74098  Biso   1.000  O
  O4       1.0000 0.35210  0.49990  0.25902  Biso   1.000  O
  O5       1.0000 0.08400  0.64800  0.44960  Biso   1.000  O
  O6       1.0000 0.91600  0.35200  0.55040  Biso   1.000  O
  O7       1.0000 0.50710  0.32880  0.63655  Biso   1.000  O
  O8       1.0000 0.49290  0.67120  0.36345  Biso   1.000  O
  O9       1.0000 0.37320  0.10720  0.64930  Biso   1.000  O
  O10      1.0000 0.62680  0.89280  0.35070  Biso   1.000  O
  O11      1.0000 0.65500  0.27170  0.74250  Biso   1.000  O
  O12      1.0000 0.34500  0.72830  0.25750  Biso   1.000  O
  O13      1.0000 0.47160  0.20150  0.81118  Biso   1.000  O
  O14      1.0000 0.52840  0.79850  0.18882  Biso   1.000  O
  O15      1.0000 0.26020  0.19300  0.77512  Biso   1.000  O
  O16      1.0000 0.73980  0.80700  0.22488  Biso   1.000  O
  O17      1.0000 0.23490  0.25000  0.66760  Biso   1.000  O
  O18      1.0000 0.76510  0.75000  0.33240  Biso   1.000  O
  C97      1.0000 0.22400  0.11200  0.98290  Biso   1.000  C
  C98      1.0000 0.77600  0.88800  0.01710  Biso   1.000  C
  H87      1.0000 0.31840  0.03910  0.98720  Biso   1.000  H
  H88      1.0000 0.68160  0.96090  0.01280  Biso   1.000  H
  H89      1.0000 0.38470  0.18450  0.02360  Biso   1.000  H
  H90      1.0000 0.61530  0.81550  0.97640  Biso   1.000  H
  H91      1.0000 0.24520  0.19950  0.00390  Biso   1.000  H
  H92      1.0000 0.75480  0.80050  0.99610  Biso   1.000  H
  H93      1.0000 0.19190  0.07120  0.01610  Biso   1.000  H
  H94      1.0000 0.80810  0.92880  0.98390  Biso   1.000  H
  H95      1.0000 0.05100  0.10460  0.95320  Biso   1.000  H
  H96      1.0000 0.94900  0.89540  0.04680  Biso   1.000  H
  H97      1.0000 0.04870  0.97290  0.92780  Biso   1.000  H
  H98      1.0000 0.95130  0.02710  0.07220  Biso   1.000  H
