data_image0
_cell_length_a       11.4902
_cell_length_b       12.4213
_cell_length_c       21.0702
_cell_angle_alpha    94.245
_cell_angle_beta     103.787
_cell_angle_gamma    116.739

_symmetry_space_group_name_H-M    "P 1"
_symmetry_int_tables_number       1

loop_
  _symmetry_equiv_pos_as_xyz
  'x, y, z'

loop_
  _atom_site_label
  _atom_site_occupancy
  _atom_site_fract_x
  _atom_site_fract_y
  _atom_site_fract_z
  _atom_site_thermal_displace_type
  _atom_site_B_iso_or_equiv
  _atom_site_type_symbol
  Cu1      1.0000 0.00936  0.36913  0.34853  Biso   1.000  Cu
  Cu2      1.0000 0.99064  0.63087  0.65147  Biso   1.000  Cu
  Cu3      1.0000 0.45941  0.79376  0.15098  Biso   1.000  Cu
  Cu4      1.0000 0.54059  0.20624  0.84902  Biso   1.000  Cu
  Gd1      1.0000 0.71667  0.08141  0.25796  Biso   1.000  Gd
  Gd2      1.0000 0.28333  0.91859  0.74204  Biso   1.000  Gd
  Mo1      1.0000 0.63161  0.48434  0.24345  Biso   1.000  Mo
  Mo2      1.0000 0.36839  0.51566  0.75655  Biso   1.000  Mo
  C1       1.0000 0.61030  0.30190  0.22310  Biso   1.000  C
  C2       1.0000 0.38970  0.69810  0.77690  Biso   1.000  C
  C3       1.0000 0.79890  0.47790  0.31200  Biso   1.000  C
  C4       1.0000 0.20110  0.52210  0.68800  Biso   1.000  C
  C5       1.0000 0.52580  0.58970  0.22340  Biso   1.000  C
  C6       1.0000 0.47420  0.41030  0.77660  Biso   1.000  C
  C7       1.0000 0.43490  0.35730  0.25260  Biso   1.000  C
  C8       1.0000 0.56510  0.64270  0.74740  Biso   1.000  C
  C9       1.0000 0.50600  0.42160  0.14010  Biso   1.000  C
  C10      1.0000 0.49400  0.57840  0.85990  Biso   1.000  C
  C11      1.0000 0.62730  0.53660  0.34310  Biso   1.000  C
  C12      1.0000 0.37270  0.46340  0.65690  Biso   1.000  C
  C13      1.0000 0.76970  0.50960  0.18460  Biso   1.000  C
  C14      1.0000 0.23030  0.49040  0.81540  Biso   1.000  C
  C15      1.0000 0.79030  0.67650  0.27720  Biso   1.000  C
  C16      1.0000 0.20970  0.32350  0.72280  Biso   1.000  C
  C17      1.0000 0.63450  0.05940  0.08600  Biso   1.000  C
  C18      1.0000 0.36550  0.94060  0.91400  Biso   1.000  C
  C19      1.0000 0.86970  0.20480  0.14420  Biso   1.000  C
  C20      1.0000 0.13030  0.79520  0.85580  Biso   1.000  C
  C21      1.0000 0.90980  0.20780  0.08750  Biso   1.000  C
  C22      1.0000 0.09020  0.79220  0.91250  Biso   1.000  C
  C23      1.0000 0.04130  0.29740  0.09030  Biso   1.000  C
  C24      1.0000 0.95870  0.70260  0.90970  Biso   1.000  C
  C25      1.0000 0.12580  0.38170  0.14840  Biso   1.000  C
  C26      1.0000 0.87420  0.61830  0.85160  Biso   1.000  C
  C27      1.0000 0.08600  0.37990  0.20670  Biso   1.000  C
  C28      1.0000 0.91400  0.62010  0.79330  Biso   1.000  C
  C29      1.0000 0.95510  0.28730  0.20460  Biso   1.000  C
  C30      1.0000 0.04490  0.71270  0.79540  Biso   1.000  C
  C31      1.0000 0.17960  0.47480  0.26480  Biso   1.000  C
  C32      1.0000 0.82040  0.52520  0.73520  Biso   1.000  C
  C33      1.0000 0.27520  0.59970  0.37120  Biso   1.000  C
  C34      1.0000 0.72480  0.40030  0.62880  Biso   1.000  C
  C35      1.0000 0.22010  0.64580  0.41900  Biso   1.000  C
  C36      1.0000 0.77990  0.35420  0.58100  Biso   1.000  C
  C37      1.0000 0.19280  0.57220  0.47230  Biso   1.000  C
  C38      1.0000 0.80720  0.42780  0.52770  Biso   1.000  C
  C39      1.0000 0.07530  0.37480  0.49080  Biso   1.000  C
  C40      1.0000 0.92470  0.62520  0.50920  Biso   1.000  C
  C41      1.0000 0.98710  0.24300  0.48120  Biso   1.000  C
  C42      1.0000 0.01290  0.75700  0.51880  Biso   1.000  C
  C43      1.0000 0.89620  0.16870  0.42000  Biso   1.000  C
  C44      1.0000 0.10380  0.83130  0.58000  Biso   1.000  C
  C45      1.0000 0.99590  0.19180  0.53810  Biso   1.000  C
  C46      1.0000 0.00410  0.80820  0.46190  Biso   1.000  C
  C47      1.0000 0.91660  0.06880  0.53340  Biso   1.000  C
  C48      1.0000 0.08340  0.93120  0.46660  Biso   1.000  C
  C49      1.0000 0.82720  0.99190  0.47250  Biso   1.000  C
  C50      1.0000 0.17280  0.00810  0.52750  Biso   1.000  C
  C51      1.0000 0.81650  0.04110  0.41650  Biso   1.000  C
  C52      1.0000 0.18350  0.95890  0.58350  Biso   1.000  C
  C53      1.0000 0.64260  0.84510  0.34940  Biso   1.000  C
  C54      1.0000 0.35740  0.15490  0.65060  Biso   1.000  C
  C55      1.0000 0.04600  0.09680  0.30180  Biso   1.000  C
  C56      1.0000 0.95400  0.90320  0.69820  Biso   1.000  C
  C57      1.0000 0.88810  0.95310  0.20000  Biso   1.000  C
  C58      1.0000 0.11190  0.04690  0.80000  Biso   1.000  C
  C59      1.0000 0.98990  0.94010  0.18290  Biso   1.000  C
  C60      1.0000 0.01010  0.05990  0.81710  Biso   1.000  C
  C61      1.0000 0.95410  0.84900  0.12770  Biso   1.000  C
  C62      1.0000 0.04590  0.15100  0.87230  Biso   1.000  C
  C63      1.0000 0.81970  0.77540  0.09080  Biso   1.000  C
  C64      1.0000 0.18030  0.22460  0.90920  Biso   1.000  C
  C65      1.0000 0.71630  0.78950  0.10840  Biso   1.000  C
  C66      1.0000 0.28370  0.21050  0.89160  Biso   1.000  C
  C67      1.0000 0.74930  0.87850  0.16410  Biso   1.000  C
  C68      1.0000 0.25070  0.12150  0.83590  Biso   1.000  C
  C69      1.0000 0.57850  0.71500  0.06430  Biso   1.000  C
  C70      1.0000 0.42150  0.28500  0.93570  Biso   1.000  C
  C71      1.0000 0.23140  0.56510  0.02920  Biso   1.000  C
  C72      1.0000 0.76860  0.43490  0.97080  Biso   1.000  C
  C73      1.0000 0.16510  0.62630  0.06270  Biso   1.000  C
  C74      1.0000 0.83490  0.37370  0.93730  Biso   1.000  C
  C75      1.0000 0.19700  0.72280  0.16880  Biso   1.000  C
  C76      1.0000 0.80300  0.27720  0.83120  Biso   1.000  C
  C77      1.0000 0.25810  0.80920  0.23260  Biso   1.000  C
  C78      1.0000 0.74190  0.19080  0.76740  Biso   1.000  C
  C79      1.0000 0.39330  0.90690  0.25420  Biso   1.000  C
  C80      1.0000 0.60670  0.09310  0.74580  Biso   1.000  C
  C81      1.0000 0.17010  0.79920  0.27130  Biso   1.000  C
  C82      1.0000 0.82990  0.20080  0.72870  Biso   1.000  C
  C83      1.0000 0.21520  0.88190  0.32890  Biso   1.000  C
  C84      1.0000 0.78480  0.11810  0.67110  Biso   1.000  C
  C85      1.0000 0.34880  0.98120  0.35080  Biso   1.000  C
  C86      1.0000 0.65120  0.01880  0.64920  Biso   1.000  C
  C87      1.0000 0.43540  0.99350  0.31270  Biso   1.000  C
  C88      1.0000 0.56460  0.00650  0.68730  Biso   1.000  C
  C89      1.0000 0.60230  0.19540  0.37590  Biso   1.000  C
  C90      1.0000 0.39770  0.80460  0.62410  Biso   1.000  C
  C91      1.0000 0.20460  0.11510  0.08860  Biso   1.000  C
  C92      1.0000 0.79540  0.88490  0.91140  Biso   1.000  C
  C93      1.0000 0.25730  0.03310  0.08030  Biso   1.000  C
  C94      1.0000 0.74270  0.96690  0.91970  Biso   1.000  C
  C95      1.0000 0.35080  0.35420  0.43320  Biso   1.000  C
  C96      1.0000 0.64920  0.64580  0.56680  Biso   1.000  C
  C97      1.0000 0.40380  0.28060  0.46480  Biso   1.000  C
  C98      1.0000 0.59620  0.71940  0.53520  Biso   1.000  C
  N1       1.0000 0.60860  0.20840  0.21780  Biso   1.000  N
  N2       1.0000 0.39140  0.79160  0.78220  Biso   1.000  N
  N3       1.0000 0.88470  0.46850  0.34720  Biso   1.000  N
  N4       1.0000 0.11530  0.53150  0.65280  Biso   1.000  N
  N5       1.0000 0.46840  0.64460  0.21050  Biso   1.000  N
  N6       1.0000 0.53160  0.35540  0.78950  Biso   1.000  N
  N7       1.0000 0.33350  0.28840  0.25890  Biso   1.000  N
  N8       1.0000 0.66650  0.71160  0.74110  Biso   1.000  N
  N9       1.0000 0.43770  0.39230  0.08670  Biso   1.000  N
  N10      1.0000 0.56230  0.60770  0.91330  Biso   1.000  N
  N11      1.0000 0.62770  0.56460  0.39610  Biso   1.000  N
  N12      1.0000 0.37230  0.43540  0.60390  Biso   1.000  N
  N13      1.0000 0.84330  0.52190  0.15420  Biso   1.000  N
  N14      1.0000 0.15670  0.47810  0.84580  Biso   1.000  N
  N15      1.0000 0.86940  0.77760  0.29660  Biso   1.000  N
  N16      1.0000 0.13060  0.22240  0.70340  Biso   1.000  N
  N17      1.0000 0.16580  0.48810  0.32260  Biso   1.000  N
  N18      1.0000 0.83420  0.51190  0.67740  Biso   1.000  N
  N19      1.0000 0.09770  0.43780  0.44570  Biso   1.000  N
  N20      1.0000 0.90230  0.56220  0.55430  Biso   1.000  N
  N21      1.0000 0.47040  0.71410  0.07040  Biso   1.000  N
  N22      1.0000 0.52960  0.28590  0.92960  Biso   1.000  N
  N23      1.0000 0.25760  0.71190  0.12730  Biso   1.000  N
  N24      1.0000 0.74240  0.28810  0.87270  Biso   1.000  N
  N25      1.0000 0.29420  0.96130  0.07130  Biso   1.000  N
  N26      1.0000 0.70580  0.03870  0.92870  Biso   1.000  N
  N27      1.0000 0.44870  0.22470  0.49020  Biso   1.000  N
  N28      1.0000 0.55130  0.77530  0.50980  Biso   1.000  N
  O1       1.0000 0.74290  0.11890  0.14660  Biso   1.000  O
  O2       1.0000 0.25710  0.88110  0.85340  Biso   1.000  O
  O3       1.0000 0.90950  0.27310  0.25729  Biso   1.000  O
  O4       1.0000 0.09050  0.72690  0.74271  Biso   1.000  O
  O5       1.0000 0.87740  0.20920  0.36306  Biso   1.000  O
  O6       1.0000 0.12260  0.79080  0.63694  Biso   1.000  O
  O7       1.0000 0.73300  0.97270  0.35275  Biso   1.000  O
  O8       1.0000 0.26700  0.02730  0.64725  Biso   1.000  O
  O9       1.0000 0.91060  0.03860  0.25482  Biso   1.000  O
  O10      1.0000 0.08940  0.96140  0.74518  Biso   1.000  O
  O11      1.0000 0.65770  0.89600  0.18544  Biso   1.000  O
  O12      1.0000 0.34230  0.10400  0.81456  Biso   1.000  O
  O13      1.0000 0.48450  0.92100  0.22198  Biso   1.000  O
  O14      1.0000 0.51550  0.07900  0.77802  Biso   1.000  O
  O15      1.0000 0.56790  0.08850  0.32827  Biso   1.000  O
  O16      1.0000 0.43210  0.91150  0.67173  Biso   1.000  O
  C99      1.0000 0.24240  0.65600  0.00920  Biso   1.000  C
  C100     1.0000 0.75760  0.34400  0.99080  Biso   1.000  C
  C101     1.0000 0.35190  0.64750  0.00940  Biso   1.000  C
  C102     1.0000 0.64810  0.35250  0.99060  Biso   1.000  C
  C103     1.0000 0.33660  0.62230  0.01770  Biso   1.000  C
  C104     1.0000 0.66340  0.37770  0.98230  Biso   1.000  C
  H1       1.0000 0.55020  0.02110  0.09680  Biso   1.000  H
  H2       1.0000 0.44980  0.97890  0.90320  Biso   1.000  H
  H3       1.0000 0.64700  0.99940  0.06110  Biso   1.000  H
  H4       1.0000 0.35300  0.00060  0.93890  Biso   1.000  H
  H5       1.0000 0.63340  0.11960  0.06020  Biso   1.000  H
  H6       1.0000 0.36660  0.88040  0.93980  Biso   1.000  H
  H7       1.0000 0.84990  0.15140  0.04750  Biso   1.000  H
  H8       1.0000 0.15010  0.84860  0.95250  Biso   1.000  H
  H9       1.0000 0.07110  0.29850  0.05270  Biso   1.000  H
  H10      1.0000 0.92890  0.70150  0.94730  Biso   1.000  H
  H11      1.0000 0.21310  0.44270  0.14980  Biso   1.000  H
  H12      1.0000 0.78690  0.55730  0.85020  Biso   1.000  H
  H13      1.0000 0.26080  0.53560  0.26030  Biso   1.000  H
  H14      1.0000 0.73920  0.46440  0.73970  Biso   1.000  H
  H15      1.0000 0.34260  0.57980  0.39680  Biso   1.000  H
  H16      1.0000 0.65740  0.42020  0.60320  Biso   1.000  H
  H17      1.0000 0.31810  0.66320  0.34720  Biso   1.000  H
  H18      1.0000 0.68190  0.33680  0.65280  Biso   1.000  H
  H19      1.0000 0.28750  0.73120  0.44040  Biso   1.000  H
  H20      1.0000 0.71250  0.26880  0.55960  Biso   1.000  H
  H21      1.0000 0.13540  0.64280  0.39360  Biso   1.000  H
  H22      1.0000 0.86460  0.35720  0.60640  Biso   1.000  H
  H23      1.0000 0.27920  0.58300  0.50100  Biso   1.000  H
  H24      1.0000 0.72080  0.41700  0.49900  Biso   1.000  H
  H25      1.0000 0.15070  0.60350  0.49840  Biso   1.000  H
  H26      1.0000 0.84930  0.39650  0.50160  Biso   1.000  H
  H27      1.0000 0.12060  0.41870  0.53520  Biso   1.000  H
  H28      1.0000 0.87940  0.58130  0.46480  Biso   1.000  H
  H29      1.0000 0.05510  0.24240  0.57940  Biso   1.000  H
  H30      1.0000 0.94490  0.75760  0.42060  Biso   1.000  H
  H31      1.0000 0.92380  0.03580  0.57180  Biso   1.000  H
  H32      1.0000 0.07620  0.96420  0.42820  Biso   1.000  H
  H33      1.0000 0.77370  0.90680  0.46960  Biso   1.000  H
  H34      1.0000 0.22630  0.09320  0.53040  Biso   1.000  H
  H35      1.0000 0.58170  0.80880  0.30440  Biso   1.000  H
  H36      1.0000 0.41830  0.19120  0.69560  Biso   1.000  H
  H37      1.0000 0.69630  0.80440  0.36200  Biso   1.000  H
  H38      1.0000 0.30370  0.19560  0.63800  Biso   1.000  H
  H39      1.0000 0.59190  0.84090  0.38050  Biso   1.000  H
  H40      1.0000 0.40810  0.15910  0.61950  Biso   1.000  H
  H41      1.0000 0.04800  0.14390  0.34080  Biso   1.000  H
  H42      1.0000 0.95200  0.85610  0.65920  Biso   1.000  H
  H43      1.0000 0.07120  0.03570  0.31430  Biso   1.000  H
  H44      1.0000 0.92880  0.96430  0.68570  Biso   1.000  H
  H45      1.0000 0.10940  0.15100  0.28130  Biso   1.000  H
  H46      1.0000 0.89060  0.84900  0.71870  Biso   1.000  H
  H47      1.0000 0.08130  0.99110  0.20750  Biso   1.000  H
  H48      1.0000 0.91870  0.00890  0.79250  Biso   1.000  H
  H49      1.0000 0.02180  0.83850  0.11560  Biso   1.000  H
  H50      1.0000 0.97820  0.16150  0.88440  Biso   1.000  H
  H51      1.0000 0.79650  0.71540  0.05420  Biso   1.000  H
  H52      1.0000 0.20350  0.28460  0.94580  Biso   1.000  H
  H53      1.0000 0.56780  0.66210  0.02720  Biso   1.000  H
  H54      1.0000 0.43220  0.33790  0.97280  Biso   1.000  H
  H55      1.0000 0.08030  0.73480  0.25660  Biso   1.000  H
  H56      1.0000 0.91970  0.26520  0.74340  Biso   1.000  H
  H57      1.0000 0.15650  0.87260  0.35460  Biso   1.000  H
  H58      1.0000 0.84350  0.12740  0.64540  Biso   1.000  H
  H59      1.0000 0.37960  0.03840  0.39040  Biso   1.000  H
  H60      1.0000 0.62040  0.96160  0.60960  Biso   1.000  H
  H61      1.0000 0.69230  0.25970  0.37880  Biso   1.000  H
  H62      1.0000 0.30770  0.74030  0.62120  Biso   1.000  H
  H63      1.0000 0.60210  0.17290  0.41870  Biso   1.000  H
  H64      1.0000 0.39790  0.82710  0.58130  Biso   1.000  H
  H65      1.0000 0.53540  0.22220  0.36220  Biso   1.000  H
  H66      1.0000 0.46460  0.77780  0.63780  Biso   1.000  H
  H67      1.0000 0.23000  0.14830  0.13550  Biso   1.000  H
  H68      1.0000 0.77000  0.85170  0.86450  Biso   1.000  H
  H69      1.0000 0.24110  0.18040  0.06560  Biso   1.000  H
  H70      1.0000 0.75890  0.81960  0.93440  Biso   1.000  H
  H71      1.0000 0.10630  0.06970  0.07030  Biso   1.000  H
  H72      1.0000 0.89370  0.93030  0.92970  Biso   1.000  H
  H73      1.0000 0.25360  0.31350  0.42500  Biso   1.000  H
  H74      1.0000 0.74640  0.68650  0.57500  Biso   1.000  H
  H75      1.0000 0.39180  0.43290  0.46290  Biso   1.000  H
  H76      1.0000 0.60820  0.56710  0.53710  Biso   1.000  H
  H77      1.0000 0.37130  0.36410  0.39200  Biso   1.000  H
  H78      1.0000 0.62870  0.63590  0.60800  Biso   1.000  H
  H79      1.0000 0.10340  0.66920  0.15690  Biso   1.000  H
  H80      1.0000 0.89660  0.33080  0.84310  Biso   1.000  H
  H81      1.0000 0.13860  0.54540  0.06740  Biso   1.000  H
  H82      1.0000 0.86140  0.45460  0.93260  Biso   1.000  H
  H83      1.0000 0.08810  0.63640  0.04930  Biso   1.000  H
  H84      1.0000 0.91190  0.36360  0.95070  Biso   1.000  H
  H85      1.0000 0.08860  0.56470  0.07040  Biso   1.000  H
  H86      1.0000 0.91140  0.43530  0.92960  Biso   1.000  H
  H87      1.0000 0.13830  0.66990  0.03400  Biso   1.000  H
  H88      1.0000 0.86170  0.33010  0.96600  Biso   1.000  H
  H89      1.0000 0.17640  0.60500  0.96860  Biso   1.000  H
  H90      1.0000 0.82360  0.39500  0.03140  Biso   1.000  H
  H91      1.0000 0.26640  0.73730  0.00730  Biso   1.000  H
  H92      1.0000 0.73360  0.26270  0.99270  Biso   1.000  H
  H93      1.0000 0.24510  0.51350  0.05610  Biso   1.000  H
  H94      1.0000 0.75490  0.48650  0.94390  Biso   1.000  H
  H95      1.0000 0.16630  0.51670  0.98790  Biso   1.000  H
  H96      1.0000 0.83370  0.48330  0.01210  Biso   1.000  H
  H97      1.0000 0.32700  0.56350  0.00220  Biso   1.000  H
  H98      1.0000 0.67300  0.43650  0.99780  Biso   1.000  H
  H99      1.0000 0.37860  0.67790  0.97270  Biso   1.000  H
  H100     1.0000 0.62140  0.32210  0.02730  Biso   1.000  H
  H101     1.0000 0.35320  0.56300  0.99710  Biso   1.000  H
  H102     1.0000 0.64680  0.43700  0.00290  Biso   1.000  H
  H103     1.0000 0.31860  0.66590  0.98560  Biso   1.000  H
  H104     1.0000 0.68140  0.33410  0.01440  Biso   1.000  H
