data_image0
_cell_length_a       11.458
_cell_length_b       12.4306
_cell_length_c       20.5668
_cell_angle_alpha    94.891
_cell_angle_beta     101.823
_cell_angle_gamma    116.255

_symmetry_space_group_name_H-M    "P 1"
_symmetry_int_tables_number       1

loop_
  _symmetry_equiv_pos_as_xyz
  'x, y, z'

loop_
  _atom_site_label
  _atom_site_occupancy
  _atom_site_fract_x
  _atom_site_fract_y
  _atom_site_fract_z
  _atom_site_thermal_displace_type
  _atom_site_B_iso_or_equiv
  _atom_site_type_symbol
  C1       1.0000 0.87440  0.44730  0.42230  Biso   1.000  C
  C2       1.0000 0.12560  0.55270  0.57770  Biso   1.000  C
  H1       1.0000 0.95670  0.50310  0.41320  Biso   1.000  H
  H2       1.0000 0.04330  0.49690  0.58680  Biso   1.000  H
  H3       1.0000 0.88820  0.38650  0.44360  Biso   1.000  H
  H4       1.0000 0.11180  0.61350  0.55640  Biso   1.000  H
  H5       1.0000 0.84860  0.49150  0.45190  Biso   1.000  H
  H6       1.0000 0.15140  0.50850  0.54810  Biso   1.000  H
  C3       1.0000 0.64150  0.30950  0.36250  Biso   1.000  C
  C4       1.0000 0.35850  0.69050  0.63750  Biso   1.000  C
  C5       1.0000 0.59250  0.31230  0.41780  Biso   1.000  C
  C6       1.0000 0.40750  0.68770  0.58220  Biso   1.000  C
  H7       1.0000 0.64800  0.36980  0.45740  Biso   1.000  H
  H8       1.0000 0.35200  0.63020  0.54260  Biso   1.000  H
  C7       1.0000 0.46090  0.22980  0.41490  Biso   1.000  C
  C8       1.0000 0.53910  0.77020  0.58510  Biso   1.000  C
  H9       1.0000 0.42600  0.23360  0.45160  Biso   1.000  H
  H10      1.0000 0.57400  0.76640  0.54840  Biso   1.000  H
  C9       1.0000 0.38320  0.14310  0.35760  Biso   1.000  C
  C10      1.0000 0.61680  0.85690  0.64240  Biso   1.000  C
  H11      1.0000 0.29700  0.08380  0.35660  Biso   1.000  H
  H12      1.0000 0.70300  0.91620  0.64340  Biso   1.000  H
  C11      1.0000 0.43080  0.14140  0.29960  Biso   1.000  C
  C12      1.0000 0.56920  0.85860  0.70040  Biso   1.000  C
  C13      1.0000 0.56000  0.22570  0.30080  Biso   1.000  C
  C14      1.0000 0.44000  0.77430  0.69920  Biso   1.000  C
  C15      1.0000 0.34150  0.04320  0.24310  Biso   1.000  C
  C16      1.0000 0.65850  0.95680  0.75690  Biso   1.000  C
  H13      1.0000 0.26170  0.98540  0.25020  Biso   1.000  H
  H14      1.0000 0.73830  0.01460  0.74980  Biso   1.000  H
  C17      1.0000 0.25350  0.90610  0.13910  Biso   1.000  C
  C18      1.0000 0.74650  0.09390  0.86090  Biso   1.000  C
  H15      1.0000 0.28350  0.84550  0.14720  Biso   1.000  H
  H16      1.0000 0.71650  0.15450  0.85280  Biso   1.000  H
  H17      1.0000 0.17090  0.88120  0.15310  Biso   1.000  H
  H18      1.0000 0.82910  0.11880  0.84690  Biso   1.000  H
  C19      1.0000 0.22360  0.90200  0.07390  Biso   1.000  C
  C20      1.0000 0.77640  0.09800  0.92610  Biso   1.000  C
  H19      1.0000 0.16900  0.94350  0.06630  Biso   1.000  H
  H20      1.0000 0.83100  0.05650  0.93370  Biso   1.000  H
  H21      1.0000 0.16320  0.81630  0.05340  Biso   1.000  H
  H22      1.0000 0.83680  0.18370  0.94660  Biso   1.000  H
  C21      1.0000 0.31690  0.94590  0.03190  Biso   1.000  C
  C22      1.0000 0.68310  0.05410  0.96810  Biso   1.000  C
  H23      1.0000 0.26590  0.93240  0.98540  Biso   1.000  H
  H24      1.0000 0.73410  0.06760  0.01460  Biso   1.000  H
  H25      1.0000 0.36660  0.89980  0.03270  Biso   1.000  H
  H26      1.0000 0.63340  0.10020  0.96730  Biso   1.000  H
  C23      1.0000 0.42760  0.14120  0.01020  Biso   1.000  C
  C24      1.0000 0.57240  0.85880  0.98980  Biso   1.000  C
  H27      1.0000 0.37330  0.09940  0.96660  Biso   1.000  H
  H28      1.0000 0.62670  0.90060  0.03340  Biso   1.000  H
  C25      1.0000 0.51710  0.26880  0.01720  Biso   1.000  C
  C26      1.0000 0.48290  0.73120  0.98280  Biso   1.000  C
  C27      1.0000 0.50460  0.32140  0.95990  Biso   1.000  C
  C28      1.0000 0.49540  0.67860  0.04010  Biso   1.000  C
  H29      1.0000 0.44020  0.27270  0.91970  Biso   1.000  H
  H30      1.0000 0.55980  0.72730  0.08030  Biso   1.000  H
  C29      1.0000 0.58440  0.44160  0.96230  Biso   1.000  C
  C30      1.0000 0.41560  0.55840  0.03770  Biso   1.000  C
  H31      1.0000 0.57270  0.47440  0.92400  Biso   1.000  H
  H32      1.0000 0.42730  0.52560  0.07600  Biso   1.000  H
  C31      1.0000 0.68300  0.51620  0.02080  Biso   1.000  C
  C32      1.0000 0.31700  0.48380  0.97920  Biso   1.000  C
  H33      1.0000 0.73900  0.59830  0.02180  Biso   1.000  H
  H34      1.0000 0.26100  0.40170  0.97820  Biso   1.000  H
  C33      1.0000 0.69700  0.46700  0.07750  Biso   1.000  C
  C34      1.0000 0.30300  0.53300  0.92250  Biso   1.000  C
  C35      1.0000 0.61660  0.34380  0.07710  Biso   1.000  C
  C36      1.0000 0.38340  0.65620  0.92290  Biso   1.000  C
  C37      1.0000 0.88030  0.65850  0.14080  Biso   1.000  C
  C38      1.0000 0.11970  0.34150  0.85920  Biso   1.000  C
  H35      1.0000 0.93470  0.69740  0.18650  Biso   1.000  H
  H36      1.0000 0.06530  0.30260  0.81350  Biso   1.000  H
  H37      1.0000 0.83070  0.70070  0.12490  Biso   1.000  H
  H38      1.0000 0.16930  0.29930  0.87510  Biso   1.000  H
  H39      1.0000 0.93760  0.66100  0.11220  Biso   1.000  H
  H40      1.0000 0.06240  0.33900  0.88780  Biso   1.000  H
  C39      1.0000 0.46900  0.41020  0.20410  Biso   1.000  C
  C40      1.0000 0.53100  0.58980  0.79590  Biso   1.000  C
  H41      1.0000 0.46590  0.35730  0.16630  Biso   1.000  H
  H42      1.0000 0.53410  0.64270  0.83370  Biso   1.000  H
  H43      1.0000 0.44240  0.46850  0.18810  Biso   1.000  H
  H44      1.0000 0.55760  0.53150  0.81190  Biso   1.000  H
  H45      1.0000 0.40830  0.36230  0.22870  Biso   1.000  H
  H46      1.0000 0.59170  0.63770  0.77130  Biso   1.000  H
  C41      1.0000 0.62210  0.54970  0.30690  Biso   1.000  C
  C42      1.0000 0.37790  0.45030  0.69310  Biso   1.000  C
  C43      1.0000 0.51900  0.55220  0.33030  Biso   1.000  C
  C44      1.0000 0.48100  0.44780  0.66970  Biso   1.000  C
  H47      1.0000 0.42930  0.49850  0.30740  Biso   1.000  H
  H48      1.0000 0.57070  0.50150  0.69260  Biso   1.000  H
  C45      1.0000 0.55080  0.63630  0.38890  Biso   1.000  C
  C46      1.0000 0.44920  0.36370  0.61110  Biso   1.000  C
  H49      1.0000 0.48160  0.63920  0.40470  Biso   1.000  H
  H50      1.0000 0.51840  0.36080  0.59530  Biso   1.000  H
  C47      1.0000 0.68210  0.71450  0.42340  Biso   1.000  C
  C48      1.0000 0.31790  0.28550  0.57660  Biso   1.000  C
  H51      1.0000 0.70150  0.76880  0.46290  Biso   1.000  H
  H52      1.0000 0.29850  0.23120  0.53710  Biso   1.000  H
  C49      1.0000 0.78800  0.71340  0.39960  Biso   1.000  C
  C50      1.0000 0.21200  0.28660  0.60040  Biso   1.000  C
  C51      1.0000 0.75830  0.62910  0.34130  Biso   1.000  C
  C52      1.0000 0.24170  0.37090  0.65870  Biso   1.000  C
  C53      1.0000 0.92020  0.79380  0.44060  Biso   1.000  C
  C54      1.0000 0.07980  0.20620  0.55940  Biso   1.000  C
  H53      1.0000 0.92660  0.84460  0.47860  Biso   1.000  H
  H54      1.0000 0.07340  0.15540  0.52140  Biso   1.000  H
  C55      1.0000 0.15690  0.89480  0.48560  Biso   1.000  C
  C56      1.0000 0.84310  0.10520  0.51440  Biso   1.000  C
  H55      1.0000 0.13410  0.95350  0.50610  Biso   1.000  H
  H56      1.0000 0.86590  0.04650  0.49390  Biso   1.000  H
  H57      1.0000 0.17120  0.85000  0.52010  Biso   1.000  H
  H58      1.0000 0.82880  0.15000  0.47990  Biso   1.000  H
  C57      1.0000 0.26600  0.95400  0.47510  Biso   1.000  C
  C58      1.0000 0.73400  0.04600  0.52490  Biso   1.000  C
  H59      1.0000 0.32760  0.00850  0.51740  Biso   1.000  H
  H60      1.0000 0.67240  0.99150  0.48260  Biso   1.000  H
  H61      1.0000 0.25530  0.00480  0.44360  Biso   1.000  H
  H62      1.0000 0.74470  0.99520  0.55640  Biso   1.000  H
  C59      1.0000 0.33720  0.88310  0.44610  Biso   1.000  C
  C60      1.0000 0.66280  0.11690  0.55390  Biso   1.000  C
  H63      1.0000 0.42230  0.94230  0.43990  Biso   1.000  H
  H64      1.0000 0.57770  0.05770  0.56010  Biso   1.000  H
  H65      1.0000 0.35690  0.83760  0.47890  Biso   1.000  H
  H66      1.0000 0.64310  0.16240  0.52110  Biso   1.000  H
  C61      1.0000 0.32000  0.78730  0.33980  Biso   1.000  C
  C62      1.0000 0.68000  0.21270  0.66020  Biso   1.000  C
  H67      1.0000 0.41280  0.83900  0.35420  Biso   1.000  H
  H68      1.0000 0.58720  0.16100  0.64580  Biso   1.000  H
  C63      1.0000 0.27020  0.70610  0.27510  Biso   1.000  C
  C64      1.0000 0.72980  0.29390  0.72490  Biso   1.000  C
  C65      1.0000 0.36460  0.71700  0.23870  Biso   1.000  C
  C66      1.0000 0.63540  0.28300  0.76130  Biso   1.000  C
  H69      1.0000 0.45300  0.77980  0.25510  Biso   1.000  H
  H70      1.0000 0.54700  0.22020  0.74490  Biso   1.000  H
  C67      1.0000 0.32980  0.63890  0.18110  Biso   1.000  C
  C68      1.0000 0.67020  0.36110  0.81890  Biso   1.000  C
  H71      1.0000 0.39370  0.64890  0.15730  Biso   1.000  H
  H72      1.0000 0.60630  0.35110  0.84270  Biso   1.000  H
  C69      1.0000 0.19900  0.54230  0.15590  Biso   1.000  C
  C70      1.0000 0.80100  0.45770  0.84410  Biso   1.000  C
  H73      1.0000 0.17560  0.48780  0.11580  Biso   1.000  H
  H74      1.0000 0.82440  0.51220  0.88420  Biso   1.000  H
  C71      1.0000 0.10430  0.52810  0.19130  Biso   1.000  C
  C72      1.0000 0.89570  0.47190  0.80870  Biso   1.000  C
  C73      1.0000 0.13560  0.61100  0.25060  Biso   1.000  C
  C74      1.0000 0.86440  0.38900  0.74940  Biso   1.000  C
  C75      1.0000 0.93650  0.33400  0.11730  Biso   1.000  C
  C76      1.0000 0.06350  0.66600  0.88270  Biso   1.000  C
  H75      1.0000 0.84230  0.27660  0.10830  Biso   1.000  H
  H76      1.0000 0.15770  0.72340  0.89170  Biso   1.000  H
  H77      1.0000 0.98990  0.29410  0.13090  Biso   1.000  H
  H78      1.0000 0.01010  0.70590  0.86910  Biso   1.000  H
  H79      1.0000 0.95390  0.36450  0.07710  Biso   1.000  H
  H80      1.0000 0.04610  0.63550  0.92290  Biso   1.000  H
  C77      1.0000 0.99240  0.91900  0.27160  Biso   1.000  C
  C78      1.0000 0.00760  0.08100  0.72840  Biso   1.000  C
  C79      1.0000 0.73670  0.83360  0.22070  Biso   1.000  C
  C80      1.0000 0.26330  0.16640  0.77930  Biso   1.000  C
  C81      1.0000 0.72220  0.03290  0.18380  Biso   1.000  C
  C82      1.0000 0.27780  0.96710  0.81620  Biso   1.000  C
  C83      1.0000 0.91060  0.20590  0.27500  Biso   1.000  C
  C84      1.0000 0.08940  0.79410  0.72500  Biso   1.000  C
  C85      1.0000 0.88930  0.96320  0.14830  Biso   1.000  C
  C86      1.0000 0.11070  0.03680  0.85170  Biso   1.000  C
  C87      1.0000 0.07660  0.14810  0.23360  Biso   1.000  C
  C88      1.0000 0.92340  0.85190  0.76640  Biso   1.000  C
  C89      1.0000 0.01890  0.09850  0.35170  Biso   1.000  C
  C90      1.0000 0.98110  0.90150  0.64830  Biso   1.000  C
  C91      1.0000 0.75510  0.99800  0.31510  Biso   1.000  C
  C92      1.0000 0.24490  0.00200  0.68490  Biso   1.000  C
  Cu1      1.0000 0.50782  0.14364  0.15362  Biso   1.000  Cu
  Cu2      1.0000 0.49218  0.85636  0.84638  Biso   1.000  Cu
  Cu3      1.0000 0.05110  0.72268  0.35137  Biso   1.000  Cu
  Cu4      1.0000 0.94890  0.27732  0.64863  Biso   1.000  Cu
  La1      1.0000 0.80364  0.43022  0.24210  Biso   1.000  La
  La2      1.0000 0.19636  0.56978  0.75790  Biso   1.000  La
  W1       1.0000 0.88772  0.02417  0.24995  Biso   1.000  W
  W2       1.0000 0.11228  0.97583  0.75005  Biso   1.000  W
  N1       1.0000 0.35750  0.02460  0.18400  Biso   1.000  N
  N2       1.0000 0.64250  0.97540  0.81600  Biso   1.000  N
  N3       1.0000 0.41320  0.07790  0.05620  Biso   1.000  N
  N4       1.0000 0.58680  0.92210  0.94380  Biso   1.000  N
  N5       1.0000 0.03350  0.80540  0.43170  Biso   1.000  N
  N6       1.0000 0.96650  0.19460  0.56830  Biso   1.000  N
  N7       1.0000 0.25100  0.79690  0.38020  Biso   1.000  N
  N8       1.0000 0.74900  0.20310  0.61980  Biso   1.000  N
  N9       1.0000 0.04710  0.86210  0.28490  Biso   1.000  N
  N10      1.0000 0.95290  0.13790  0.71510  Biso   1.000  N
  N11      1.0000 0.65730  0.73260  0.20490  Biso   1.000  N
  N12      1.0000 0.34270  0.26740  0.79510  Biso   1.000  N
  N13      1.0000 0.63510  0.04320  0.15090  Biso   1.000  N
  N14      1.0000 0.36490  0.95680  0.84910  Biso   1.000  N
  N15      1.0000 0.92060  0.30190  0.28550  Biso   1.000  N
  N16      1.0000 0.07940  0.69810  0.71450  Biso   1.000  N
  N17      1.0000 0.88910  0.93130  0.09430  Biso   1.000  N
  N18      1.0000 0.11090  0.06870  0.90570  Biso   1.000  N
  N19      1.0000 0.17220  0.21370  0.22050  Biso   1.000  N
  N20      1.0000 0.82780  0.78630  0.77950  Biso   1.000  N
  N21      1.0000 0.09040  0.13660  0.40410  Biso   1.000  N
  N22      1.0000 0.90960  0.86340  0.59590  Biso   1.000  N
  N23      1.0000 0.68130  0.98390  0.34730  Biso   1.000  N
  N24      1.0000 0.31870  0.01610  0.65270  Biso   1.000  N
  O1       1.0000 0.77000  0.38900  0.36020  Biso   1.000  O
  O2       1.0000 0.23000  0.61100  0.63980  Biso   1.000  O
  O3       1.0000 0.60870  0.23490  0.24690  Biso   1.000  O
  O4       1.0000 0.39130  0.76510  0.75310  Biso   1.000  O
  O5       1.0000 0.86050  0.78780  0.95500  Biso   1.000  O
  O6       1.0000 0.13950  0.21220  0.04500  Biso   1.000  O
  O7       1.0000 0.63740  0.30110  0.13373  Biso   1.000  O
  O8       1.0000 0.36260  0.69890  0.86627  Biso   1.000  O
  O9       1.0000 0.79940  0.55400  0.57970  Biso   1.000  O
  O10      1.0000 0.20060  0.44600  0.42030  Biso   1.000  O
  O11      1.0000 0.78800  0.53420  0.13890  Biso   1.000  O
  O12      1.0000 0.21200  0.46580  0.86110  Biso   1.000  O
  O13      1.0000 0.60360  0.47360  0.24800  Biso   1.000  O
  O14      1.0000 0.39640  0.52640  0.75200  Biso   1.000  O
  O15      1.0000 0.85460  0.61940  0.31700  Biso   1.000  O
  O16      1.0000 0.14540  0.38060  0.68300  Biso   1.000  O
  O17      1.0000 0.04010  0.59680  0.28090  Biso   1.000  O
  O18      1.0000 0.95990  0.40320  0.71910  Biso   1.000  O
  O19      1.0000 0.97150  0.43430  0.17080  Biso   1.000  O
  O20      1.0000 0.02850  0.56570  0.82920  Biso   1.000  O
  C93      1.0000 0.26540  0.86900  0.49710  Biso   1.000  C
  C94      1.0000 0.73460  0.13100  0.50290  Biso   1.000  C
  H81      1.0000 0.18720  0.97490  0.47370  Biso   1.000  H
  H82      1.0000 0.81280  0.02510  0.52630  Biso   1.000  H
  H83      1.0000 0.13220  0.89980  0.52770  Biso   1.000  H
  H84      1.0000 0.86780  0.10020  0.47230  Biso   1.000  H
  H85      1.0000 0.23180  0.78520  0.50350  Biso   1.000  H
  H86      1.0000 0.76820  0.21480  0.49650  Biso   1.000  H
  H87      1.0000 0.32980  0.92140  0.53940  Biso   1.000  H
  H88      1.0000 0.67020  0.07860  0.46060  Biso   1.000  H
  H89      1.0000 0.41420  0.86940  0.46220  Biso   1.000  H
  H90      1.0000 0.58580  0.13060  0.53780  Biso   1.000  H
  H91      1.0000 0.37130  0.96650  0.43890  Biso   1.000  H
  H92      1.0000 0.62870  0.03350  0.56110  Biso   1.000  H
