data_image0
_cell_length_a       12.4449
_cell_length_b       13.8659
_cell_length_c       18.1553
_cell_angle_alpha    100.333
_cell_angle_beta     97.008
_cell_angle_gamma    95.089

_symmetry_space_group_name_H-M    "P 1"
_symmetry_int_tables_number       1

loop_
  _symmetry_equiv_pos_as_xyz
  'x, y, z'

loop_
  _atom_site_label
  _atom_site_occupancy
  _atom_site_fract_x
  _atom_site_fract_y
  _atom_site_fract_z
  _atom_site_thermal_displace_type
  _atom_site_B_iso_or_equiv
  _atom_site_type_symbol
  W1       1.0000 0.66857  0.32233  0.75085  Biso   1.000  W
  W2       1.0000 0.33143  0.67767  0.24915  Biso   1.000  W
  Dy1      1.0000 0.22000  0.29927  0.70126  Biso   1.000  Dy
  Dy2      1.0000 0.78000  0.70073  0.29874  Biso   1.000  Dy
  Cu1      1.0000 0.09062  0.29574  0.86461  Biso   1.000  Cu
  Cu2      1.0000 0.90938  0.70426  0.13539  Biso   1.000  Cu
  Cu3      1.0000 0.33987  0.28528  0.53287  Biso   1.000  Cu
  Cu4      1.0000 0.66013  0.71472  0.46713  Biso   1.000  Cu
  C1       1.0000 0.49770  0.30400  0.76240  Biso   1.000  C
  C2       1.0000 0.50230  0.69600  0.23760  Biso   1.000  C
  C3       1.0000 0.57340  0.33890  0.64680  Biso   1.000  C
  C4       1.0000 0.42660  0.66110  0.35320  Biso   1.000  C
  C5       1.0000 0.64690  0.43650  0.84370  Biso   1.000  C
  C6       1.0000 0.35310  0.56350  0.15630  Biso   1.000  C
  C7       1.0000 0.66670  0.24150  0.84100  Biso   1.000  C
  C8       1.0000 0.33330  0.75850  0.15900  Biso   1.000  C
  C9       1.0000 0.83000  0.34690  0.81470  Biso   1.000  C
  C10      1.0000 0.17000  0.65310  0.18530  Biso   1.000  C
  C11      1.0000 0.77450  0.28580  0.66550  Biso   1.000  C
  C12      1.0000 0.22550  0.71420  0.33450  Biso   1.000  C
  C13      1.0000 0.73060  0.46350  0.72810  Biso   1.000  C
  C14      1.0000 0.26940  0.53650  0.27190  Biso   1.000  C
  C15      1.0000 0.61650  0.17040  0.69590  Biso   1.000  C
  C16      1.0000 0.38350  0.82960  0.30410  Biso   1.000  C
  C17      1.0000 0.40040  0.52130  0.71300  Biso   1.000  C
  C18      1.0000 0.59960  0.47870  0.28700  Biso   1.000  C
  C19      1.0000 0.29240  0.52900  0.81430  Biso   1.000  C
  C20      1.0000 0.70760  0.47100  0.18570  Biso   1.000  C
  C21      1.0000 0.32480  0.62680  0.83970  Biso   1.000  C
  C22      1.0000 0.67520  0.37320  0.16030  Biso   1.000  C
  C23      1.0000 0.30250  0.67280  0.91080  Biso   1.000  C
  C24      1.0000 0.69750  0.32720  0.08920  Biso   1.000  C
  C25      1.0000 0.24870  0.61880  0.95300  Biso   1.000  C
  C26      1.0000 0.75130  0.38120  0.04700  Biso   1.000  C
  C27      1.0000 0.21250  0.51910  0.92740  Biso   1.000  C
  C28      1.0000 0.78750  0.48090  0.07260  Biso   1.000  C
  C29      1.0000 0.23290  0.47240  0.85540  Biso   1.000  C
  C30      1.0000 0.76710  0.52760  0.14460  Biso   1.000  C
  C31      1.0000 0.16200  0.46690  0.97880  Biso   1.000  C
  C32      1.0000 0.83800  0.53310  0.02120  Biso   1.000  C
  C33      1.0000 0.08310  0.34360  0.03370  Biso   1.000  C
  C34      1.0000 0.91690  0.65640  0.96630  Biso   1.000  C
  C35      1.0000 0.95880  0.10870  0.84090  Biso   1.000  C
  C36      1.0000 0.04120  0.89130  0.15910  Biso   1.000  C
  C37      1.0000 0.94810  0.09590  0.75910  Biso   1.000  C
  C38      1.0000 0.05190  0.90410  0.24090  Biso   1.000  C
  C39      1.0000 0.00920  0.15630  0.72240  Biso   1.000  C
  C40      1.0000 0.99080  0.84370  0.27760  Biso   1.000  C
  C41      1.0000 0.87850  0.01500  0.71620  Biso   1.000  C
  C42      1.0000 0.12150  0.98500  0.28380  Biso   1.000  C
  C43      1.0000 0.87060  0.99430  0.63890  Biso   1.000  C
  C44      1.0000 0.12940  0.00570  0.36110  Biso   1.000  C
  C45      1.0000 0.93230  0.05430  0.60230  Biso   1.000  C
  C46      1.0000 0.06770  0.94570  0.39770  Biso   1.000  C
  C47      1.0000 0.00070  0.13350  0.64420  Biso   1.000  C
  C48      1.0000 0.99930  0.86650  0.35580  Biso   1.000  C
  C49      1.0000 0.04500  0.19350  0.53460  Biso   1.000  C
  C50      1.0000 0.95500  0.80650  0.46540  Biso   1.000  C
  C51      1.0000 0.23830  0.08710  0.78280  Biso   1.000  C
  C52      1.0000 0.76170  0.91290  0.21720  Biso   1.000  C
  C53      1.0000 0.26090  0.05910  0.65130  Biso   1.000  C
  C54      1.0000 0.73910  0.94090  0.34870  Biso   1.000  C
  C55      1.0000 0.24580  0.95750  0.64290  Biso   1.000  C
  C56      1.0000 0.75420  0.04250  0.35710  Biso   1.000  C
  C57      1.0000 0.26980  0.89940  0.57770  Biso   1.000  C
  C58      1.0000 0.73020  0.10060  0.42230  Biso   1.000  C
  C59      1.0000 0.31190  0.94360  0.52420  Biso   1.000  C
  C60      1.0000 0.68810  0.05640  0.47580  Biso   1.000  C
  C61      1.0000 0.32670  0.04650  0.53150  Biso   1.000  C
  C62      1.0000 0.67330  0.95350  0.46850  Biso   1.000  C
  C63      1.0000 0.29750  0.10590  0.59570  Biso   1.000  C
  C64      1.0000 0.70250  0.89410  0.40430  Biso   1.000  C
  C65      1.0000 0.37850  0.08530  0.47450  Biso   1.000  C
  C66      1.0000 0.62150  0.91470  0.52550  Biso   1.000  C
  C67      1.0000 0.46090  0.19590  0.40940  Biso   1.000  C
  C68      1.0000 0.53910  0.80410  0.59060  Biso   1.000  C
  C69      1.0000 0.42620  0.27160  0.36830  Biso   1.000  C
  C70      1.0000 0.57380  0.72840  0.63170  Biso   1.000  C
  C71      1.0000 0.43840  0.37460  0.41450  Biso   1.000  C
  C72      1.0000 0.56160  0.62540  0.58550  Biso   1.000  C
  C73      1.0000 0.30980  0.46080  0.47020  Biso   1.000  C
  C74      1.0000 0.69020  0.53920  0.52980  Biso   1.000  C
  C75      1.0000 0.22910  0.49210  0.51980  Biso   1.000  C
  C76      1.0000 0.77090  0.50790  0.48020  Biso   1.000  C
  C77      1.0000 0.20220  0.44290  0.57650  Biso   1.000  C
  C78      1.0000 0.79780  0.55710  0.42350  Biso   1.000  C
  C79      1.0000 0.17920  0.57590  0.50800  Biso   1.000  C
  C80      1.0000 0.82080  0.42410  0.49200  Biso   1.000  C
  C81      1.0000 0.10110  0.60830  0.55150  Biso   1.000  C
  C82      1.0000 0.89890  0.39170  0.44850  Biso   1.000  C
  C83      1.0000 0.07070  0.55760  0.60550  Biso   1.000  C
  C84      1.0000 0.92930  0.44240  0.39450  Biso   1.000  C
  C85      1.0000 0.12040  0.47690  0.61860  Biso   1.000  C
  C86      1.0000 0.87960  0.52310  0.38140  Biso   1.000  C
  C87      1.0000 0.01170  0.45100  0.71460  Biso   1.000  C
  C88      1.0000 0.98830  0.54900  0.28540  Biso   1.000  C
  C89      1.0000 0.70480  0.04060  0.01580  Biso   1.000  C
  C90      1.0000 0.29520  0.95940  0.98420  Biso   1.000  C
  C91      1.0000 0.80360  0.05460  0.07170  Biso   1.000  C
  C92      1.0000 0.19640  0.94540  0.92830  Biso   1.000  C
  C93      1.0000 0.47550  0.99720  0.18270  Biso   1.000  C
  C94      1.0000 0.52450  0.00280  0.81730  Biso   1.000  C
  C95      1.0000 0.53530  0.09300  0.20220  Biso   1.000  C
  C96      1.0000 0.46470  0.90700  0.79780  Biso   1.000  C
  C97      1.0000 0.03760  0.24840  0.24810  Biso   1.000  C
  C98      1.0000 0.96240  0.75160  0.75190  Biso   1.000  C
  C99      1.0000 0.08560  0.25120  0.32460  Biso   1.000  C
  C100     1.0000 0.91440  0.74880  0.67540  Biso   1.000  C
  C101     1.0000 0.34940  0.28720  0.16440  Biso   1.000  C
  C102     1.0000 0.65060  0.71280  0.83560  Biso   1.000  C
  C103     1.0000 0.28140  0.19320  0.15550  Biso   1.000  C
  C104     1.0000 0.71860  0.80680  0.84450  Biso   1.000  C
  C105     1.0000 0.54850  0.64230  0.03890  Biso   1.000  C
  C106     1.0000 0.45150  0.35770  0.96110  Biso   1.000  C
  N1       1.0000 0.40460  0.29620  0.76380  Biso   1.000  N
  N2       1.0000 0.59540  0.70380  0.23620  Biso   1.000  N
  N3       1.0000 0.51980  0.34670  0.59340  Biso   1.000  N
  N4       1.0000 0.48020  0.65330  0.40660  Biso   1.000  N
  N5       1.0000 0.63360  0.49830  0.89210  Biso   1.000  N
  N6       1.0000 0.36640  0.50170  0.10790  Biso   1.000  N
  N7       1.0000 0.67010  0.20020  0.89120  Biso   1.000  N
  N8       1.0000 0.32990  0.79980  0.10880  Biso   1.000  N
  N9       1.0000 0.91590  0.36050  0.84810  Biso   1.000  N
  N10      1.0000 0.08410  0.63950  0.15190  Biso   1.000  N
  N11      1.0000 0.82660  0.26830  0.61890  Biso   1.000  N
  N12      1.0000 0.17340  0.73170  0.38110  Biso   1.000  N
  N13      1.0000 0.76250  0.53850  0.71620  Biso   1.000  N
  N14      1.0000 0.23750  0.46150  0.28380  Biso   1.000  N
  N15      1.0000 0.58580  0.09150  0.66730  Biso   1.000  N
  N16      1.0000 0.41420  0.90850  0.33270  Biso   1.000  N
  N17      1.0000 0.11930  0.37740  0.96670  Biso   1.000  N
  N18      1.0000 0.88070  0.62260  0.03330  Biso   1.000  N
  N19      1.0000 0.01570  0.17780  0.89020  Biso   1.000  N
  N20      1.0000 0.98430  0.82220  0.10980  Biso   1.000  N
  N21      1.0000 0.39320  0.17500  0.46780  Biso   1.000  N
  N22      1.0000 0.60680  0.82500  0.53220  Biso   1.000  N
  N23      1.0000 0.35900  0.38360  0.46810  Biso   1.000  N
  N24      1.0000 0.64100  0.61640  0.53190  Biso   1.000  N
  N25      1.0000 0.87780  0.06370  0.11270  Biso   1.000  N
  N26      1.0000 0.12220  0.93630  0.88730  Biso   1.000  N
  N27      1.0000 0.58440  0.16800  0.21930  Biso   1.000  N
  N28      1.0000 0.41560  0.83200  0.78070  Biso   1.000  N
  N29      1.0000 0.12520  0.25630  0.38550  Biso   1.000  N
  N30      1.0000 0.87480  0.74370  0.61450  Biso   1.000  N
  N31      1.0000 0.22980  0.12080  0.14740  Biso   1.000  N
  N32      1.0000 0.77020  0.87920  0.85260  Biso   1.000  N
  O1       1.0000 0.31440  0.47570  0.74590  Biso   1.000  O
  O2       1.0000 0.68560  0.52430  0.25410  Biso   1.000  O
  O3       1.0000 0.19920  0.37840  0.82540  Biso   1.000  O
  O4       1.0000 0.80080  0.62160  0.17460  Biso   1.000  O
  O5       1.0000 0.07840  0.23610  0.75890  Biso   1.000  O
  O6       1.0000 0.92160  0.76390  0.24110  Biso   1.000  O
  O7       1.0000 0.06690  0.19780  0.61450  Biso   1.000  O
  O8       1.0000 0.93310  0.80220  0.38550  Biso   1.000  O
  O9       1.0000 0.24040  0.12470  0.71440  Biso   1.000  O
  O10      1.0000 0.75960  0.87530  0.28560  Biso   1.000  O
  O11      1.0000 0.30310  0.20380  0.60551  Biso   1.000  O
  O12      1.0000 0.69690  0.79620  0.39449  Biso   1.000  O
  O13      1.0000 0.24860  0.36560  0.59510  Biso   1.000  O
  O14      1.0000 0.75140  0.63440  0.40490  Biso   1.000  O
  O15      1.0000 0.09680  0.42120  0.67150  Biso   1.000  O
  O16      1.0000 0.90320  0.57880  0.32850  Biso   1.000  O
  C107     1.0000 0.98750  0.26460  0.01590  Biso   1.000  C
  C108     1.0000 0.01250  0.73540  0.98410  Biso   1.000  C
  C109     1.0000 0.00520  0.16650  0.96950  Biso   1.000  C
  C110     1.0000 0.99480  0.83350  0.03050  Biso   1.000  C
  C111     1.0000 0.59800  0.73580  0.03430  Biso   1.000  C
  C112     1.0000 0.40200  0.26420  0.96570  Biso   1.000  C
  N33      1.0000 0.62730  0.81720  0.02760  Biso   1.000  N
  N34      1.0000 0.37270  0.18280  0.97240  Biso   1.000  N
  H1       1.0000 0.41610  0.47490  0.67060  Biso   1.000  H
  H2       1.0000 0.58390  0.52510  0.32940  Biso   1.000  H
  H3       1.0000 0.46450  0.53930  0.75020  Biso   1.000  H
  H4       1.0000 0.53550  0.46070  0.24980  Biso   1.000  H
  H5       1.0000 0.37790  0.57930  0.69610  Biso   1.000  H
  H6       1.0000 0.62210  0.42070  0.30390  Biso   1.000  H
  H7       1.0000 0.36120  0.66340  0.81000  Biso   1.000  H
  H8       1.0000 0.63880  0.33660  0.19000  Biso   1.000  H
  H9       1.0000 0.32420  0.73970  0.92810  Biso   1.000  H
  H10      1.0000 0.67580  0.26030  0.07190  Biso   1.000  H
  H11      1.0000 0.23530  0.64900  0.00050  Biso   1.000  H
  H12      1.0000 0.76470  0.35100  0.99950  Biso   1.000  H
  H13      1.0000 0.12160  0.50560  0.01330  Biso   1.000  H
  H14      1.0000 0.87840  0.49440  0.98670  Biso   1.000  H
  H15      1.0000 0.91970  0.06030  0.85930  Biso   1.000  H
  H16      1.0000 0.08030  0.93970  0.14070  Biso   1.000  H
  H17      1.0000 0.83750  0.97420  0.74090  Biso   1.000  H
  H18      1.0000 0.16250  0.02580  0.25910  Biso   1.000  H
  H19      1.0000 0.82430  0.94010  0.61110  Biso   1.000  H
  H20      1.0000 0.17570  0.05990  0.38890  Biso   1.000  H
  H21      1.0000 0.92740  0.04110  0.54980  Biso   1.000  H
  H22      1.0000 0.07260  0.95890  0.45020  Biso   1.000  H
  H23      1.0000 0.08540  0.24890  0.52180  Biso   1.000  H
  H24      1.0000 0.91460  0.75110  0.47820  Biso   1.000  H
  H25      1.0000 0.06670  0.13320  0.50870  Biso   1.000  H
  H26      1.0000 0.93330  0.86680  0.49130  Biso   1.000  H
  H27      1.0000 0.96850  0.19520  0.52030  Biso   1.000  H
  H28      1.0000 0.03150  0.80480  0.47970  Biso   1.000  H
  H29      1.0000 0.24460  0.14170  0.82430  Biso   1.000  H
  H30      1.0000 0.75540  0.85830  0.17570  Biso   1.000  H
  H31      1.0000 0.29730  0.04850  0.78990  Biso   1.000  H
  H32      1.0000 0.70270  0.95150  0.21010  Biso   1.000  H
  H33      1.0000 0.17020  0.04720  0.78030  Biso   1.000  H
  H34      1.0000 0.82980  0.95280  0.21970  Biso   1.000  H
  H35      1.0000 0.22040  0.92860  0.68100  Biso   1.000  H
  H36      1.0000 0.77960  0.07140  0.31900  Biso   1.000  H
  H37      1.0000 0.25720  0.83130  0.57090  Biso   1.000  H
  H38      1.0000 0.74280  0.16870  0.42910  Biso   1.000  H
  H39      1.0000 0.33130  0.90410  0.48150  Biso   1.000  H
  H40      1.0000 0.66870  0.09590  0.51850  Biso   1.000  H
  H41      1.0000 0.40310  0.03940  0.43820  Biso   1.000  H
  H42      1.0000 0.59690  0.96060  0.56180  Biso   1.000  H
  H43      1.0000 0.53410  0.21950  0.43460  Biso   1.000  H
  H44      1.0000 0.46590  0.78050  0.56540  Biso   1.000  H
  H45      1.0000 0.46050  0.13480  0.37360  Biso   1.000  H
  H46      1.0000 0.53950  0.86520  0.62640  Biso   1.000  H
  H47      1.0000 0.46980  0.27200  0.32740  Biso   1.000  H
  H48      1.0000 0.53020  0.72800  0.67260  Biso   1.000  H
  H49      1.0000 0.34940  0.25270  0.34780  Biso   1.000  H
  H50      1.0000 0.65060  0.74730  0.65220  Biso   1.000  H
  H51      1.0000 0.51120  0.38950  0.44220  Biso   1.000  H
  H52      1.0000 0.48880  0.61050  0.55780  Biso   1.000  H
  H53      1.0000 0.42540  0.42110  0.38100  Biso   1.000  H
  H54      1.0000 0.57460  0.57890  0.61900  Biso   1.000  H
  H55      1.0000 0.32690  0.50220  0.43690  Biso   1.000  H
  H56      1.0000 0.67310  0.49780  0.56310  Biso   1.000  H
  H57      1.0000 0.19880  0.60960  0.47010  Biso   1.000  H
  H58      1.0000 0.80120  0.39040  0.52990  Biso   1.000  H
  H59      1.0000 0.06940  0.66490  0.54370  Biso   1.000  H
  H60      1.0000 0.93060  0.33510  0.45630  Biso   1.000  H
  H61      1.0000 0.01600  0.57800  0.63350  Biso   1.000  H
  H62      1.0000 0.98400  0.42200  0.36650  Biso   1.000  H
  H63      1.0000 0.99470  0.40200  0.74410  Biso   1.000  H
  H64      1.0000 0.00530  0.59800  0.25590  Biso   1.000  H
  H65      1.0000 0.03610  0.51380  0.74760  Biso   1.000  H
  H66      1.0000 0.96390  0.48620  0.25240  Biso   1.000  H
  H67      1.0000 0.94800  0.45740  0.68120  Biso   1.000  H
  H68      1.0000 0.05200  0.54260  0.31880  Biso   1.000  H
  H69      1.0000 0.65510  0.08760  0.03170  Biso   1.000  H
  H70      1.0000 0.34490  0.91240  0.96830  Biso   1.000  H
  H71      1.0000 0.72460  0.05020  0.96770  Biso   1.000  H
  H72      1.0000 0.27540  0.94980  0.03230  Biso   1.000  H
  H73      1.0000 0.66860  0.97450  0.01060  Biso   1.000  H
  H74      1.0000 0.33140  0.02550  0.98940  Biso   1.000  H
  H75      1.0000 0.42610  0.99130  0.13660  Biso   1.000  H
  H76      1.0000 0.57390  0.00870  0.86340  Biso   1.000  H
  H77      1.0000 0.52410  0.94710  0.17560  Biso   1.000  H
  H78      1.0000 0.47590  0.05290  0.82440  Biso   1.000  H
  H79      1.0000 0.43470  0.98760  0.22300  Biso   1.000  H
  H80      1.0000 0.56530  0.01240  0.77700  Biso   1.000  H
  H81      1.0000 0.03830  0.18340  0.21850  Biso   1.000  H
  H82      1.0000 0.96170  0.81660  0.78150  Biso   1.000  H
  H83      1.0000 0.96320  0.26310  0.24820  Biso   1.000  H
  H84      1.0000 0.03680  0.73690  0.75180  Biso   1.000  H
  H85      1.0000 0.07840  0.29700  0.22710  Biso   1.000  H
  H86      1.0000 0.92160  0.70300  0.77290  Biso   1.000  H
  H87      1.0000 0.33360  0.33180  0.20770  Biso   1.000  H
  H88      1.0000 0.66640  0.66820  0.79230  Biso   1.000  H
  H89      1.0000 0.42490  0.27640  0.17100  Biso   1.000  H
  H90      1.0000 0.57510  0.72360  0.82900  Biso   1.000  H
  H91      1.0000 0.33330  0.31460  0.11980  Biso   1.000  H
  H92      1.0000 0.66670  0.68540  0.88020  Biso   1.000  H
  H93      1.0000 0.60160  0.60230  0.05570  Biso   1.000  H
  H94      1.0000 0.39840  0.39770  0.94430  Biso   1.000  H
  H95      1.0000 0.49550  0.64910  0.07390  Biso   1.000  H
  H96      1.0000 0.50450  0.35090  0.92610  Biso   1.000  H
  H97      1.0000 0.51020  0.60880  0.98980  Biso   1.000  H
  H98      1.0000 0.48980  0.39120  0.01020  Biso   1.000  H
  H99      1.0000 0.14320  0.31860  0.05970  Biso   1.000  H
  H100     1.0000 0.85680  0.68140  0.94030  Biso   1.000  H
  H101     1.0000 0.06290  0.39970  0.06610  Biso   1.000  H
  H102     1.0000 0.93710  0.60030  0.93390  Biso   1.000  H
  H103     1.0000 0.96770  0.25280  0.06350  Biso   1.000  H
  H104     1.0000 0.03230  0.74720  0.93650  Biso   1.000  H
  H105     1.0000 0.92920  0.29030  0.98930  Biso   1.000  H
  H106     1.0000 0.07080  0.70970  0.01070  Biso   1.000  H
  H107     1.0000 0.07050  0.14440  0.99150  Biso   1.000  H
  H108     1.0000 0.92950  0.85560  0.00850  Biso   1.000  H
  H109     1.0000 0.94410  0.11900  0.96920  Biso   1.000  H
  H110     1.0000 0.05590  0.88100  0.03080  Biso   1.000  H
  C113     1.0000 0.01930  0.24830  0.02050  Biso   1.000  C
  C114     1.0000 0.98070  0.75170  0.97950  Biso   1.000  C
  C115     1.0000 0.02600  0.16860  0.97240  Biso   1.000  C
  C116     1.0000 0.97400  0.83140  0.02760  Biso   1.000  C
  C117     1.0000 0.62070  0.72480  0.03960  Biso   1.000  C
  C118     1.0000 0.37930  0.27520  0.96040  Biso   1.000  C
  H111     1.0000 0.14720  0.34140  0.06840  Biso   1.000  H
  H112     1.0000 0.85280  0.65860  0.93160  Biso   1.000  H
  H113     1.0000 0.04010  0.39180  0.05640  Biso   1.000  H
  H114     1.0000 0.95990  0.60820  0.94360  Biso   1.000  H
  H115     1.0000 0.02910  0.22880  0.06920  Biso   1.000  H
  H116     1.0000 0.97090  0.77120  0.93080  Biso   1.000  H
  H117     1.0000 0.94620  0.26300  0.00970  Biso   1.000  H
  H118     1.0000 0.05380  0.73700  0.99030  Biso   1.000  H
  H119     1.0000 0.09540  0.14620  0.98540  Biso   1.000  H
  H120     1.0000 0.90460  0.85380  0.01460  Biso   1.000  H
  H121     1.0000 0.96880  0.12010  0.97750  Biso   1.000  H
  H122     1.0000 0.03120  0.87990  0.02250  Biso   1.000  H
  H123     1.0000 0.47730  0.66170  0.04750  Biso   1.000  H
  H124     1.0000 0.52270  0.33830  0.95250  Biso   1.000  H
  H125     1.0000 0.57410  0.60770  0.07780  Biso   1.000  H
  H126     1.0000 0.42590  0.39230  0.92220  Biso   1.000  H
  H127     1.0000 0.53990  0.59760  0.99050  Biso   1.000  H
  H128     1.0000 0.46010  0.40240  0.00950  Biso   1.000  H
  N35      1.0000 0.68850  0.78650  0.03890  Biso   1.000  N
  N36      1.0000 0.31150  0.21350  0.96110  Biso   1.000  N
