data_image0
_cell_length_a       8.5212
_cell_length_b       9.0321
_cell_length_c       11.3497
_cell_angle_alpha    90
_cell_angle_beta     90
_cell_angle_gamma    90

_symmetry_space_group_name_H-M    "P 1"
_symmetry_int_tables_number       1

loop_
  _symmetry_equiv_pos_as_xyz
  'x, y, z'

loop_
  _atom_site_label
  _atom_site_occupancy
  _atom_site_fract_x
  _atom_site_fract_y
  _atom_site_fract_z
  _atom_site_thermal_displace_type
  _atom_site_B_iso_or_equiv
  _atom_site_type_symbol
  Cu1      1.0000 0.99625  0.00076  0.49850  Biso   1.000  Cu
  Cu2      1.0000 0.00375  0.99924  0.99850  Biso   1.000  Cu
  Cu3      1.0000 0.49625  0.49924  0.49850  Biso   1.000  Cu
  Cu4      1.0000 0.50375  0.50076  0.99850  Biso   1.000  Cu
  O1       1.0000 0.86350  0.84890  0.56950  Biso   1.000  O
  O2       1.0000 0.13650  0.15110  0.06950  Biso   1.000  O
  O3       1.0000 0.36350  0.65110  0.56950  Biso   1.000  O
  O4       1.0000 0.63650  0.34890  0.06950  Biso   1.000  O
  O5       1.0000 0.70880  0.65290  0.55890  Biso   1.000  O
  O6       1.0000 0.29120  0.34710  0.05890  Biso   1.000  O
  O7       1.0000 0.20880  0.84710  0.55890  Biso   1.000  O
  O8       1.0000 0.79120  0.15290  0.05890  Biso   1.000  O
  O9       1.0000 0.99980  0.11000  0.65140  Biso   1.000  O
  O10      1.0000 0.00020  0.89000  0.15140  Biso   1.000  O
  O11      1.0000 0.49980  0.39000  0.65140  Biso   1.000  O
  O12      1.0000 0.50020  0.61000  0.15140  Biso   1.000  O
  O13      1.0000 0.01200  0.10850  0.84500  Biso   1.000  O
  O14      1.0000 0.98800  0.89150  0.34500  Biso   1.000  O
  O15      1.0000 0.51200  0.39150  0.84500  Biso   1.000  O
  O16      1.0000 0.48800  0.60850  0.34500  Biso   1.000  O
  O17      1.0000 0.16810  0.12320  0.43580  Biso   1.000  O
  O18      1.0000 0.83190  0.87680  0.93580  Biso   1.000  O
  O19      1.0000 0.66810  0.37680  0.43580  Biso   1.000  O
  O20      1.0000 0.33190  0.62320  0.93580  Biso   1.000  O
  O21      1.0000 0.32190  0.31890  0.42420  Biso   1.000  O
  O22      1.0000 0.67810  0.68110  0.92420  Biso   1.000  O
  O23      1.0000 0.82190  0.18110  0.42420  Biso   1.000  O
  O24      1.0000 0.17810  0.81890  0.92420  Biso   1.000  O
  C1       1.0000 0.74830  0.77750  0.52750  Biso   1.000  C
  C2       1.0000 0.25170  0.22250  0.02750  Biso   1.000  C
  C3       1.0000 0.24830  0.72250  0.52750  Biso   1.000  C
  C4       1.0000 0.75170  0.27750  0.02750  Biso   1.000  C
  H1       1.0000 0.68950  0.82280  0.46870  Biso   1.000  H
  H2       1.0000 0.31050  0.17720  0.96870  Biso   1.000  H
  H3       1.0000 0.18950  0.67720  0.46870  Biso   1.000  H
  H4       1.0000 0.81050  0.32280  0.96870  Biso   1.000  H
  C5       1.0000 0.00730  0.04460  0.74850  Biso   1.000  C
  C6       1.0000 0.99270  0.95540  0.24850  Biso   1.000  C
  C7       1.0000 0.50730  0.45540  0.74850  Biso   1.000  C
  C8       1.0000 0.49270  0.54460  0.24850  Biso   1.000  C
  H5       1.0000 0.00950  0.94170  0.74820  Biso   1.000  H
  H6       1.0000 0.99050  0.05830  0.24820  Biso   1.000  H
  H7       1.0000 0.50950  0.55830  0.74820  Biso   1.000  H
  H8       1.0000 0.49050  0.44170  0.24820  Biso   1.000  H
  C9       1.0000 0.20680  0.25390  0.46130  Biso   1.000  C
  C10      1.0000 0.79320  0.74610  0.96130  Biso   1.000  C
  C11      1.0000 0.70680  0.24610  0.46130  Biso   1.000  C
  C12      1.0000 0.29320  0.75390  0.96130  Biso   1.000  C
  H9       1.0000 0.14190  0.30530  0.51290  Biso   1.000  H
  H10      1.0000 0.85810  0.69470  0.01290  Biso   1.000  H
  H11      1.0000 0.64190  0.19470  0.51290  Biso   1.000  H
  H12      1.0000 0.35810  0.80530  0.01290  Biso   1.000  H
  C13      1.0000 0.00600  0.50070  0.74700  Biso   1.000  C
  C14      1.0000 0.99400  0.49930  0.24700  Biso   1.000  C
  C15      1.0000 0.50600  0.99930  0.74700  Biso   1.000  C
  C16      1.0000 0.49400  0.00070  0.24700  Biso   1.000  C
  N1       1.0000 0.01470  0.64540  0.74400  Biso   1.000  N
  N2       1.0000 0.98530  0.35460  0.24400  Biso   1.000  N
  N3       1.0000 0.51470  0.85460  0.74400  Biso   1.000  N
  N4       1.0000 0.48530  0.14540  0.24400  Biso   1.000  N
  H13      1.0000 0.07940  0.69100  0.78950  Biso   1.000  H
  H14      1.0000 0.92060  0.30900  0.28950  Biso   1.000  H
  H15      1.0000 0.57940  0.80900  0.78950  Biso   1.000  H
  H16      1.0000 0.42060  0.19100  0.28950  Biso   1.000  H
  H17      1.0000 0.95560  0.69480  0.69680  Biso   1.000  H
  H18      1.0000 0.04440  0.30520  0.19680  Biso   1.000  H
  H19      1.0000 0.45560  0.80520  0.69680  Biso   1.000  H
  H20      1.0000 0.54440  0.19480  0.19680  Biso   1.000  H
  N5       1.0000 0.09590  0.42450  0.81880  Biso   1.000  N
  N6       1.0000 0.90410  0.57550  0.31880  Biso   1.000  N
  N7       1.0000 0.59590  0.07550  0.81880  Biso   1.000  N
  N8       1.0000 0.40410  0.92450  0.31880  Biso   1.000  N
  H21      1.0000 0.16080  0.46960  0.86430  Biso   1.000  H
  H22      1.0000 0.83920  0.53040  0.36430  Biso   1.000  H
  H23      1.0000 0.66080  0.03040  0.86430  Biso   1.000  H
  H24      1.0000 0.33920  0.96960  0.36430  Biso   1.000  H
  H25      1.0000 0.08980  0.32950  0.82030  Biso   1.000  H
  H26      1.0000 0.91020  0.67050  0.32030  Biso   1.000  H
  H27      1.0000 0.58980  0.17050  0.82030  Biso   1.000  H
  H28      1.0000 0.41020  0.82950  0.32030  Biso   1.000  H
  N9       1.0000 0.90860  0.42970  0.67530  Biso   1.000  N
  N10      1.0000 0.09140  0.57030  0.17530  Biso   1.000  N
  N11      1.0000 0.40860  0.07030  0.67530  Biso   1.000  N
  N12      1.0000 0.59140  0.92970  0.17530  Biso   1.000  N
  H29      1.0000 0.85080  0.47870  0.62690  Biso   1.000  H
  H30      1.0000 0.14920  0.52130  0.12690  Biso   1.000  H
  H31      1.0000 0.35080  0.02130  0.62690  Biso   1.000  H
  H32      1.0000 0.64920  0.97870  0.12690  Biso   1.000  H
  H33      1.0000 0.90320  0.33470  0.67730  Biso   1.000  H
  H34      1.0000 0.09680  0.66530  0.17730  Biso   1.000  H
  H35      1.0000 0.40320  0.16530  0.67730  Biso   1.000  H
  H36      1.0000 0.59680  0.83470  0.17730  Biso   1.000  H
