data_image0
_cell_length_a       8.6748
_cell_length_b       11.213
_cell_length_c       12.653
_cell_angle_alpha    112.47
_cell_angle_beta     93.34
_cell_angle_gamma    99.01

_symmetry_space_group_name_H-M    "P 1"
_symmetry_int_tables_number       1

loop_
  _symmetry_equiv_pos_as_xyz
  'x, y, z'

loop_
  _atom_site_label
  _atom_site_occupancy
  _atom_site_fract_x
  _atom_site_fract_y
  _atom_site_fract_z
  _atom_site_thermal_displace_type
  _atom_site_B_iso_or_equiv
  _atom_site_type_symbol
  Cu1      1.0000 0.30737  0.10495  0.26886  Biso   1.000  Cu
  Cu2      1.0000 0.69263  0.89505  0.73114  Biso   1.000  Cu
  O1       1.0000 0.42750  0.12060  0.14560  Biso   1.000  O
  O2       1.0000 0.57250  0.87940  0.85440  Biso   1.000  O
  O3       1.0000 0.13170  0.94340  0.12650  Biso   1.000  O
  O4       1.0000 0.86830  0.05660  0.87350  Biso   1.000  O
  O5       1.0000 0.63310  0.25220  0.27580  Biso   1.000  O
  O6       1.0000 0.36690  0.74780  0.72420  Biso   1.000  O
  O7       1.0000 0.82710  0.66700  0.08160  Biso   1.000  O
  O8       1.0000 0.17290  0.33300  0.91840  Biso   1.000  O
  O9       1.0000 0.08150  0.72020  0.15530  Biso   1.000  O
  O10      1.0000 0.91850  0.27980  0.84470  Biso   1.000  O
  O11      1.0000 0.16700  0.21940  0.25590  Biso   1.000  O
  O12      1.0000 0.83300  0.78060  0.74410  Biso   1.000  O
  O13      1.0000 0.32570  0.40810  0.27800  Biso   1.000  O
  O14      1.0000 0.67430  0.59190  0.72200  Biso   1.000  O
  N1       1.0000 0.23810  0.12070  0.42270  Biso   1.000  N
  N2       1.0000 0.76190  0.87930  0.57730  Biso   1.000  N
  N3       1.0000 0.40200  0.95860  0.28680  Biso   1.000  N
  N4       1.0000 0.59800  0.04140  0.71320  Biso   1.000  N
  N5       1.0000 0.79170  0.30670  0.11210  Biso   1.000  N
  N6       1.0000 0.20830  0.69330  0.88790  Biso   1.000  N
  C1       1.0000 0.16480  0.20790  0.49310  Biso   1.000  C
  C2       1.0000 0.83520  0.79210  0.50690  Biso   1.000  C
  H1       1.0000 0.14550  0.27970  0.47550  Biso   1.000  H
  H2       1.0000 0.85450  0.72030  0.52450  Biso   1.000  H
  C3       1.0000 0.11420  0.19720  0.59430  Biso   1.000  C
  C4       1.0000 0.88580  0.80280  0.40570  Biso   1.000  C
  H3       1.0000 0.06310  0.26200  0.64390  Biso   1.000  H
  H4       1.0000 0.93690  0.73800  0.35610  Biso   1.000  H
  C5       1.0000 0.13900  0.09300  0.62080  Biso   1.000  C
  C6       1.0000 0.86100  0.90700  0.37920  Biso   1.000  C
  H5       1.0000 0.10440  0.08550  0.68820  Biso   1.000  H
  H6       1.0000 0.89560  0.91450  0.31180  Biso   1.000  H
  C7       1.0000 0.21590  0.99740  0.54750  Biso   1.000  C
  C8       1.0000 0.78410  0.00260  0.45250  Biso   1.000  C
  C9       1.0000 0.24700  0.88440  0.56570  Biso   1.000  C
  C10      1.0000 0.75300  0.11560  0.43430  Biso   1.000  C
  H7       1.0000 0.21440  0.87030  0.63110  Biso   1.000  H
  H8       1.0000 0.78560  0.12970  0.36890  Biso   1.000  H
  C11      1.0000 0.32280  0.79650  0.49060  Biso   1.000  C
  C12      1.0000 0.67720  0.20350  0.50940  Biso   1.000  C
  H9       1.0000 0.33950  0.72130  0.50380  Biso   1.000  H
  H10      1.0000 0.66050  0.27870  0.49620  Biso   1.000  H
  C13      1.0000 0.37790  0.81530  0.39200  Biso   1.000  C
  C14      1.0000 0.62210  0.18470  0.60800  Biso   1.000  C
  C15      1.0000 0.46150  0.73180  0.31230  Biso   1.000  C
  C16      1.0000 0.53850  0.26820  0.68770  Biso   1.000  C
  H11      1.0000 0.47970  0.65330  0.31870  Biso   1.000  H
  H12      1.0000 0.52030  0.34670  0.68130  Biso   1.000  H
  C17      1.0000 0.51520  0.76450  0.22700  Biso   1.000  C
  C18      1.0000 0.48480  0.23550  0.77300  Biso   1.000  C
  H13      1.0000 0.57420  0.71030  0.17440  Biso   1.000  H
  H14      1.0000 0.42580  0.28970  0.82560  Biso   1.000  H
  C19      1.0000 0.48400  0.87800  0.21640  Biso   1.000  C
  C20      1.0000 0.51600  0.12200  0.78360  Biso   1.000  C
  H15      1.0000 0.52330  0.89890  0.15580  Biso   1.000  H
  H16      1.0000 0.47670  0.10110  0.84420  Biso   1.000  H
  C21      1.0000 0.35040  0.92770  0.37340  Biso   1.000  C
  C22      1.0000 0.64960  0.07230  0.62660  Biso   1.000  C
  C23      1.0000 0.26600  0.01630  0.45020  Biso   1.000  C
  C24      1.0000 0.73400  0.98370  0.54980  Biso   1.000  C
  C25      1.0000 0.56520  0.19670  0.17710  Biso   1.000  C
  C26      1.0000 0.43480  0.80330  0.82290  Biso   1.000  C
  C27      1.0000 0.63930  0.20970  0.07460  Biso   1.000  C
  C28      1.0000 0.36070  0.79030  0.92540  Biso   1.000  C
  H17      1.0000 0.65790  0.12280  0.02270  Biso   1.000  H
  H18      1.0000 0.34210  0.87720  0.97730  Biso   1.000  H
  H19      1.0000 0.56530  0.23810  0.03070  Biso   1.000  H
  H20      1.0000 0.43470  0.76190  0.96930  Biso   1.000  H
  C29      1.0000 0.79890  0.42390  0.10210  Biso   1.000  C
  C30      1.0000 0.20110  0.57610  0.89790  Biso   1.000  C
  H21      1.0000 0.70800  0.44290  0.07100  Biso   1.000  H
  H22      1.0000 0.29200  0.55710  0.92900  Biso   1.000  H
  C31      1.0000 0.93810  0.51530  0.13720  Biso   1.000  C
  C32      1.0000 0.06190  0.48470  0.86280  Biso   1.000  C
  C33      1.0000 0.06860  0.48510  0.18580  Biso   1.000  C
  C34      1.0000 0.93140  0.51490  0.81420  Biso   1.000  C
  H23      1.0000 0.16500  0.54720  0.21170  Biso   1.000  H
  H24      1.0000 0.83500  0.45280  0.78830  Biso   1.000  H
  C35      1.0000 0.05800  0.36540  0.19620  Biso   1.000  C
  C36      1.0000 0.94200  0.63460  0.80380  Biso   1.000  C
  C37      1.0000 0.91720  0.27630  0.15730  Biso   1.000  C
  C38      1.0000 0.08280  0.72370  0.84270  Biso   1.000  C
  H25      1.0000 0.90870  0.19320  0.16230  Biso   1.000  H
  H26      1.0000 0.09130  0.80680  0.83770  Biso   1.000  H
  C39      1.0000 0.19760  0.33090  0.24870  Biso   1.000  C
  C40      1.0000 0.80240  0.66910  0.75130  Biso   1.000  C
  C41      1.0000 0.94930  0.64530  0.12330  Biso   1.000  C
  C42      1.0000 0.05070  0.35470  0.87670  Biso   1.000  C
  O15      1.0000 0.79490  0.91060  0.06280  Biso   1.000  O
  O16      1.0000 0.20510  0.08940  0.93720  Biso   1.000  O
  H27      1.0000 0.75200  0.89800  0.00700  Biso   1.000  H
  H28      1.0000 0.24800  0.10200  0.99300  Biso   1.000  H
  H29      1.0000 0.86600  0.94100  0.10500  Biso   1.000  H
  H30      1.0000 0.13400  0.05900  0.89500  Biso   1.000  H
  O17      1.0000 0.44440  0.43500  0.08330  Biso   1.000  O
  O18      1.0000 0.55560  0.56500  0.91670  Biso   1.000  O
  H31      1.0000 0.39100  0.42000  0.03000  Biso   1.000  H
  H32      1.0000 0.60900  0.58000  0.97000  Biso   1.000  H
  H33      1.0000 0.42800  0.43600  0.14000  Biso   1.000  H
  H34      1.0000 0.57200  0.56400  0.86000  Biso   1.000  H
  O19      1.0000 0.84810  0.48900  0.43730  Biso   1.000  O
  O20      1.0000 0.15190  0.51100  0.56270  Biso   1.000  O
  H35      1.0000 0.81500  0.41970  0.37680  Biso   1.000  H
  H36      1.0000 0.18500  0.58030  0.62320  Biso   1.000  H
  H37      1.0000 0.92130  0.53670  0.42130  Biso   1.000  H
  H38      1.0000 0.07870  0.46330  0.57870  Biso   1.000  H
  O21      1.0000 0.06880  0.97720  0.20330  Biso   1.000  O
  O22      1.0000 0.93120  0.02280  0.79670  Biso   1.000  O
  O23      1.0000 0.46190  0.44690  0.50310  Biso   1.000  O
  O24      1.0000 0.53810  0.55310  0.49690  Biso   1.000  O
  H39      1.0000 0.47080  0.48480  0.45640  Biso   1.000  H
  H40      1.0000 0.52920  0.51520  0.54360  Biso   1.000  H
  H41      1.0000 0.37500  0.45680  0.52990  Biso   1.000  H
  H42      1.0000 0.62500  0.54320  0.47010  Biso   1.000  H
