data_image0
_cell_length_a       36.1459
_cell_length_b       5.22
_cell_length_c       18.0068
_cell_angle_alpha    90
_cell_angle_beta     101.697
_cell_angle_gamma    90

_symmetry_space_group_name_H-M    "P 1"
_symmetry_int_tables_number       1

loop_
  _symmetry_equiv_pos_as_xyz
  'x, y, z'

loop_
  _atom_site_label
  _atom_site_occupancy
  _atom_site_fract_x
  _atom_site_fract_y
  _atom_site_fract_z
  _atom_site_thermal_displace_type
  _atom_site_B_iso_or_equiv
  _atom_site_type_symbol
  Cu1      1.0000 0.15487  0.26726  0.07080  Biso   1.000  Cu
  Cu2      1.0000 0.84513  0.26726  0.42920  Biso   1.000  Cu
  Cu3      1.0000 0.65487  0.76726  0.07080  Biso   1.000  Cu
  Cu4      1.0000 0.34513  0.76726  0.42920  Biso   1.000  Cu
  Cu5      1.0000 0.84513  0.73274  0.92920  Biso   1.000  Cu
  Cu6      1.0000 0.15487  0.73274  0.57080  Biso   1.000  Cu
  Cu7      1.0000 0.34513  0.23274  0.92920  Biso   1.000  Cu
  Cu8      1.0000 0.65487  0.23274  0.57080  Biso   1.000  Cu
  O1       1.0000 0.16289  0.89470  0.24365  Biso   1.000  O
  O2       1.0000 0.83711  0.89470  0.25635  Biso   1.000  O
  O3       1.0000 0.66289  0.39470  0.24365  Biso   1.000  O
  O4       1.0000 0.33711  0.39470  0.25635  Biso   1.000  O
  O5       1.0000 0.83711  0.10530  0.75635  Biso   1.000  O
  O6       1.0000 0.16289  0.10530  0.74365  Biso   1.000  O
  O7       1.0000 0.33711  0.60530  0.75635  Biso   1.000  O
  O8       1.0000 0.66289  0.60530  0.74365  Biso   1.000  O
  O9       1.0000 0.15277  0.53200  0.14397  Biso   1.000  O
  O10      1.0000 0.84723  0.53200  0.35603  Biso   1.000  O
  O11      1.0000 0.65277  0.03200  0.14397  Biso   1.000  O
  O12      1.0000 0.34723  0.03200  0.35603  Biso   1.000  O
  O13      1.0000 0.84723  0.46800  0.85603  Biso   1.000  O
  O14      1.0000 0.15277  0.46800  0.64397  Biso   1.000  O
  O15      1.0000 0.34723  0.96800  0.85603  Biso   1.000  O
  O16      1.0000 0.65277  0.96800  0.64397  Biso   1.000  O
  O17      1.0000 0.15554  0.55450  0.97149  Biso   1.000  O
  O18      1.0000 0.84446  0.55450  0.52851  Biso   1.000  O
  O19      1.0000 0.65554  0.05450  0.97149  Biso   1.000  O
  O20      1.0000 0.34446  0.05450  0.52851  Biso   1.000  O
  O21      1.0000 0.84446  0.44550  0.02851  Biso   1.000  O
  O22      1.0000 0.15554  0.44550  0.47149  Biso   1.000  O
  O23      1.0000 0.34446  0.94550  0.02851  Biso   1.000  O
  O24      1.0000 0.65554  0.94550  0.47149  Biso   1.000  O
  O25      1.0000 0.20447  0.89380  0.03102  Biso   1.000  O
  O26      1.0000 0.79553  0.89380  0.46898  Biso   1.000  O
  O27      1.0000 0.70447  0.39380  0.03102  Biso   1.000  O
  O28      1.0000 0.29553  0.39380  0.46898  Biso   1.000  O
  O29      1.0000 0.79553  0.10620  0.96898  Biso   1.000  O
  O30      1.0000 0.20447  0.10620  0.53102  Biso   1.000  O
  O31      1.0000 0.29553  0.60620  0.96898  Biso   1.000  O
  O32      1.0000 0.70447  0.60620  0.53102  Biso   1.000  O
  N1       1.0000 0.10000  0.20390  0.04663  Biso   1.000  N
  N2       1.0000 0.90000  0.20390  0.45337  Biso   1.000  N
  N3       1.0000 0.60000  0.70390  0.04663  Biso   1.000  N
  N4       1.0000 0.40000  0.70390  0.45337  Biso   1.000  N
  N5       1.0000 0.90000  0.79610  0.95337  Biso   1.000  N
  N6       1.0000 0.10000  0.79610  0.54663  Biso   1.000  N
  N7       1.0000 0.40000  0.29610  0.95337  Biso   1.000  N
  N8       1.0000 0.60000  0.29610  0.54663  Biso   1.000  N
  N9       1.0000 0.16505  0.96660  0.01591  Biso   1.000  N
  N10      1.0000 0.83495  0.96660  0.48409  Biso   1.000  N
  N11      1.0000 0.66505  0.46660  0.01591  Biso   1.000  N
  N12      1.0000 0.33495  0.46660  0.48409  Biso   1.000  N
  N13      1.0000 0.83495  0.03340  0.98409  Biso   1.000  N
  N14      1.0000 0.16505  0.03340  0.51591  Biso   1.000  N
  N15      1.0000 0.33495  0.53340  0.98409  Biso   1.000  N
  N16      1.0000 0.66505  0.53340  0.51591  Biso   1.000  N
  N17      1.0000 0.20968  0.25460  0.10098  Biso   1.000  N
  N18      1.0000 0.79032  0.25460  0.39902  Biso   1.000  N
  N19      1.0000 0.70968  0.75460  0.10098  Biso   1.000  N
  N20      1.0000 0.29032  0.75460  0.39902  Biso   1.000  N
  N21      1.0000 0.79032  0.74540  0.89902  Biso   1.000  N
  N22      1.0000 0.20968  0.74540  0.60098  Biso   1.000  N
  N23      1.0000 0.29032  0.24540  0.89902  Biso   1.000  N
  N24      1.0000 0.70968  0.24540  0.60098  Biso   1.000  N
  H1       1.0000 0.22260  0.37070  0.13090  Biso   1.000  H
  H2       1.0000 0.77740  0.37070  0.36910  Biso   1.000  H
  H3       1.0000 0.72260  0.87070  0.13090  Biso   1.000  H
  H4       1.0000 0.27740  0.87070  0.36910  Biso   1.000  H
  H5       1.0000 0.77740  0.62930  0.86910  Biso   1.000  H
  H6       1.0000 0.22260  0.62930  0.63090  Biso   1.000  H
  H7       1.0000 0.27740  0.12930  0.86910  Biso   1.000  H
  H8       1.0000 0.72260  0.12930  0.63090  Biso   1.000  H
  C1       1.0000 0.16995  0.08380  0.30160  Biso   1.000  C
  C2       1.0000 0.83005  0.08380  0.19840  Biso   1.000  C
  C3       1.0000 0.66995  0.58380  0.30160  Biso   1.000  C
  C4       1.0000 0.33005  0.58380  0.19840  Biso   1.000  C
  C5       1.0000 0.83005  0.91620  0.69840  Biso   1.000  C
  C6       1.0000 0.16995  0.91620  0.80160  Biso   1.000  C
  C7       1.0000 0.33005  0.41620  0.69840  Biso   1.000  C
  C8       1.0000 0.66995  0.41620  0.80160  Biso   1.000  C
  H9       1.0000 0.15430  0.23510  0.28530  Biso   1.000  H
  H10      1.0000 0.84570  0.23510  0.21470  Biso   1.000  H
  H11      1.0000 0.65430  0.73510  0.28530  Biso   1.000  H
  H12      1.0000 0.34570  0.73510  0.21470  Biso   1.000  H
  H13      1.0000 0.84570  0.76490  0.71470  Biso   1.000  H
  H14      1.0000 0.15430  0.76490  0.78530  Biso   1.000  H
  H15      1.0000 0.34570  0.26490  0.71470  Biso   1.000  H
  H16      1.0000 0.65430  0.26490  0.78530  Biso   1.000  H
  H17      1.0000 0.19670  0.13210  0.31130  Biso   1.000  H
  H18      1.0000 0.80330  0.13210  0.18870  Biso   1.000  H
  H19      1.0000 0.69670  0.63210  0.31130  Biso   1.000  H
  H20      1.0000 0.30330  0.63210  0.18870  Biso   1.000  H
  H21      1.0000 0.80330  0.86790  0.68870  Biso   1.000  H
  H22      1.0000 0.19670  0.86790  0.81130  Biso   1.000  H
  H23      1.0000 0.30330  0.36790  0.68870  Biso   1.000  H
  H24      1.0000 0.69670  0.36790  0.81130  Biso   1.000  H
  H25      1.0000 0.16370  0.01470  0.34810  Biso   1.000  H
  H26      1.0000 0.83630  0.01470  0.15190  Biso   1.000  H
  H27      1.0000 0.66370  0.51470  0.34810  Biso   1.000  H
  H28      1.0000 0.33630  0.51470  0.15190  Biso   1.000  H
  H29      1.0000 0.83630  0.98530  0.65190  Biso   1.000  H
  H30      1.0000 0.16370  0.98530  0.84810  Biso   1.000  H
  H31      1.0000 0.33630  0.48530  0.65190  Biso   1.000  H
  H32      1.0000 0.66370  0.48530  0.84810  Biso   1.000  H
  C9       1.0000 0.12699  0.80170  0.22402  Biso   1.000  C
  C10      1.0000 0.87301  0.80170  0.27598  Biso   1.000  C
  C11      1.0000 0.62699  0.30170  0.22402  Biso   1.000  C
  C12      1.0000 0.37301  0.30170  0.27598  Biso   1.000  C
  C13      1.0000 0.87301  0.19830  0.77598  Biso   1.000  C
  C14      1.0000 0.12699  0.19830  0.72402  Biso   1.000  C
  C15      1.0000 0.37301  0.69830  0.77598  Biso   1.000  C
  C16      1.0000 0.62699  0.69830  0.72402  Biso   1.000  C
  C17      1.0000 0.09703  0.88410  0.25387  Biso   1.000  C
  C18      1.0000 0.90297  0.88410  0.24613  Biso   1.000  C
  C19      1.0000 0.59703  0.38410  0.25387  Biso   1.000  C
  C20      1.0000 0.40297  0.38410  0.24613  Biso   1.000  C
  C21      1.0000 0.90297  0.11590  0.74613  Biso   1.000  C
  C22      1.0000 0.09703  0.11590  0.75387  Biso   1.000  C
  C23      1.0000 0.40297  0.61590  0.74613  Biso   1.000  C
  C24      1.0000 0.59703  0.61590  0.75387  Biso   1.000  C
  H33      1.0000 0.10060  0.01460  0.29140  Biso   1.000  H
  H34      1.0000 0.89940  0.01460  0.20860  Biso   1.000  H
  H35      1.0000 0.60060  0.51460  0.29140  Biso   1.000  H
  H36      1.0000 0.39940  0.51460  0.20860  Biso   1.000  H
  H37      1.0000 0.89940  0.98540  0.70860  Biso   1.000  H
  H38      1.0000 0.10060  0.98540  0.79140  Biso   1.000  H
  H39      1.0000 0.39940  0.48540  0.70860  Biso   1.000  H
  H40      1.0000 0.60060  0.48540  0.79140  Biso   1.000  H
  C25      1.0000 0.06114  0.77570  0.22901  Biso   1.000  C
  C26      1.0000 0.93886  0.77570  0.27099  Biso   1.000  C
  C27      1.0000 0.56114  0.27570  0.22901  Biso   1.000  C
  C28      1.0000 0.43886  0.27570  0.27099  Biso   1.000  C
  C29      1.0000 0.93886  0.22430  0.77099  Biso   1.000  C
  C30      1.0000 0.06114  0.22430  0.72901  Biso   1.000  C
  C31      1.0000 0.43886  0.72430  0.77099  Biso   1.000  C
  C32      1.0000 0.56114  0.72430  0.72901  Biso   1.000  C
  H41      1.0000 0.04040  0.83420  0.24930  Biso   1.000  H
  H42      1.0000 0.95960  0.83420  0.25070  Biso   1.000  H
  H43      1.0000 0.54040  0.33420  0.24930  Biso   1.000  H
  H44      1.0000 0.45960  0.33420  0.25070  Biso   1.000  H
  H45      1.0000 0.95960  0.16580  0.75070  Biso   1.000  H
  H46      1.0000 0.04040  0.16580  0.74930  Biso   1.000  H
  H47      1.0000 0.45960  0.66580  0.75070  Biso   1.000  H
  H48      1.0000 0.54040  0.66580  0.74930  Biso   1.000  H
  C33      1.0000 0.05612  0.58710  0.17590  Biso   1.000  C
  C34      1.0000 0.94388  0.58710  0.32410  Biso   1.000  C
  C35      1.0000 0.55612  0.08710  0.17590  Biso   1.000  C
  C36      1.0000 0.44388  0.08710  0.32410  Biso   1.000  C
  C37      1.0000 0.94388  0.41290  0.82410  Biso   1.000  C
  C38      1.0000 0.05612  0.41290  0.67590  Biso   1.000  C
  C39      1.0000 0.44388  0.91290  0.82410  Biso   1.000  C
  C40      1.0000 0.55612  0.91290  0.67590  Biso   1.000  C
  H49      1.0000 0.03180  0.51400  0.15980  Biso   1.000  H
  H50      1.0000 0.96820  0.51400  0.34020  Biso   1.000  H
  H51      1.0000 0.53180  0.01400  0.15980  Biso   1.000  H
  H52      1.0000 0.46820  0.01400  0.34020  Biso   1.000  H
  H53      1.0000 0.96820  0.48600  0.84020  Biso   1.000  H
  H54      1.0000 0.03180  0.48600  0.65980  Biso   1.000  H
  H55      1.0000 0.46820  0.98600  0.84020  Biso   1.000  H
  H56      1.0000 0.53180  0.98600  0.65980  Biso   1.000  H
  C41      1.0000 0.08646  0.49740  0.14409  Biso   1.000  C
  C42      1.0000 0.91354  0.49740  0.35591  Biso   1.000  C
  C43      1.0000 0.58646  0.99740  0.14409  Biso   1.000  C
  C44      1.0000 0.41354  0.99740  0.35591  Biso   1.000  C
  C45      1.0000 0.91354  0.50260  0.85591  Biso   1.000  C
  C46      1.0000 0.08646  0.50260  0.64409  Biso   1.000  C
  C47      1.0000 0.41354  0.00260  0.85591  Biso   1.000  C
  C48      1.0000 0.58646  0.00260  0.64409  Biso   1.000  C
  C49      1.0000 0.12293  0.60450  0.16827  Biso   1.000  C
  C50      1.0000 0.87707  0.60450  0.33173  Biso   1.000  C
  C51      1.0000 0.62293  0.10450  0.16827  Biso   1.000  C
  C52      1.0000 0.37707  0.10450  0.33173  Biso   1.000  C
  C53      1.0000 0.87707  0.39550  0.83173  Biso   1.000  C
  C54      1.0000 0.12293  0.39550  0.66827  Biso   1.000  C
  C55      1.0000 0.37707  0.89550  0.83173  Biso   1.000  C
  C56      1.0000 0.62293  0.89550  0.66827  Biso   1.000  C
  C57      1.0000 0.07802  0.30390  0.08777  Biso   1.000  C
  C58      1.0000 0.92198  0.30390  0.41223  Biso   1.000  C
  C59      1.0000 0.57802  0.80390  0.08777  Biso   1.000  C
  C60      1.0000 0.42198  0.80390  0.41223  Biso   1.000  C
  C61      1.0000 0.92198  0.69610  0.91223  Biso   1.000  C
  C62      1.0000 0.07802  0.69610  0.58777  Biso   1.000  C
  C63      1.0000 0.42198  0.19610  0.91223  Biso   1.000  C
  C64      1.0000 0.57802  0.19610  0.58777  Biso   1.000  C
  H57      1.0000 0.05300  0.23880  0.07900  Biso   1.000  H
  H58      1.0000 0.94700  0.23880  0.42100  Biso   1.000  H
  H59      1.0000 0.55300  0.73880  0.07900  Biso   1.000  H
  H60      1.0000 0.44700  0.73880  0.42100  Biso   1.000  H
  H61      1.0000 0.94700  0.76120  0.92100  Biso   1.000  H
  H62      1.0000 0.05300  0.76120  0.57900  Biso   1.000  H
  H63      1.0000 0.44700  0.26120  0.92100  Biso   1.000  H
  H64      1.0000 0.55300  0.26120  0.57900  Biso   1.000  H
  C65      1.0000 0.08281  0.03750  0.98629  Biso   1.000  C
  C66      1.0000 0.91719  0.03750  0.51371  Biso   1.000  C
  C67      1.0000 0.58281  0.53750  0.98629  Biso   1.000  C
  C68      1.0000 0.41719  0.53750  0.51371  Biso   1.000  C
  C69      1.0000 0.91719  0.96250  0.01371  Biso   1.000  C
  C70      1.0000 0.08281  0.96250  0.48629  Biso   1.000  C
  C71      1.0000 0.41719  0.46250  0.01371  Biso   1.000  C
  C72      1.0000 0.58281  0.46250  0.48629  Biso   1.000  C
  C73      1.0000 0.04532  0.08120  0.94942  Biso   1.000  C
  C74      1.0000 0.95468  0.08120  0.55058  Biso   1.000  C
  C75      1.0000 0.54532  0.58120  0.94942  Biso   1.000  C
  C76      1.0000 0.45468  0.58120  0.55058  Biso   1.000  C
  C77      1.0000 0.95468  0.91880  0.05058  Biso   1.000  C
  C78      1.0000 0.04532  0.91880  0.44942  Biso   1.000  C
  C79      1.0000 0.45468  0.41880  0.05058  Biso   1.000  C
  C80      1.0000 0.54532  0.41880  0.44942  Biso   1.000  C
  H65      1.0000 0.03220  0.22460  0.96380  Biso   1.000  H
  H66      1.0000 0.96780  0.22460  0.53620  Biso   1.000  H
  H67      1.0000 0.53220  0.72460  0.96380  Biso   1.000  H
  H68      1.0000 0.46780  0.72460  0.53620  Biso   1.000  H
  H69      1.0000 0.96780  0.77540  0.03620  Biso   1.000  H
  H70      1.0000 0.03220  0.77540  0.46380  Biso   1.000  H
  H71      1.0000 0.46780  0.27540  0.03620  Biso   1.000  H
  H72      1.0000 0.53220  0.27540  0.46380  Biso   1.000  H
  C81      1.0000 0.02696  0.92140  0.89276  Biso   1.000  C
  C82      1.0000 0.97304  0.92140  0.60724  Biso   1.000  C
  C83      1.0000 0.52696  0.42140  0.89276  Biso   1.000  C
  C84      1.0000 0.47304  0.42140  0.60724  Biso   1.000  C
  C85      1.0000 0.97304  0.07860  0.10724  Biso   1.000  C
  C86      1.0000 0.02696  0.07860  0.39276  Biso   1.000  C
  C87      1.0000 0.47304  0.57860  0.10724  Biso   1.000  C
  C88      1.0000 0.52696  0.57860  0.39276  Biso   1.000  C
  H73      1.0000 0.00140  0.95390  0.86910  Biso   1.000  H
  H74      1.0000 0.99860  0.95390  0.63090  Biso   1.000  H
  H75      1.0000 0.50140  0.45390  0.86910  Biso   1.000  H
  H76      1.0000 0.49860  0.45390  0.63090  Biso   1.000  H
  H77      1.0000 0.99860  0.04610  0.13090  Biso   1.000  H
  H78      1.0000 0.00140  0.04610  0.36910  Biso   1.000  H
  H79      1.0000 0.49860  0.54610  0.13090  Biso   1.000  H
  H80      1.0000 0.50140  0.54610  0.36910  Biso   1.000  H
  C89      1.0000 0.04582  0.71380  0.87041  Biso   1.000  C
  C90      1.0000 0.95418  0.71380  0.62959  Biso   1.000  C
  C91      1.0000 0.54582  0.21380  0.87041  Biso   1.000  C
  C92      1.0000 0.45418  0.21380  0.62959  Biso   1.000  C
  C93      1.0000 0.95418  0.28620  0.12959  Biso   1.000  C
  C94      1.0000 0.04582  0.28620  0.37041  Biso   1.000  C
  C95      1.0000 0.45418  0.78620  0.12959  Biso   1.000  C
  C96      1.0000 0.54582  0.78620  0.37041  Biso   1.000  C
  H81      1.0000 0.03320  0.60060  0.83220  Biso   1.000  H
  H82      1.0000 0.96680  0.60060  0.66780  Biso   1.000  H
  H83      1.0000 0.53320  0.10060  0.83220  Biso   1.000  H
  H84      1.0000 0.46680  0.10060  0.66780  Biso   1.000  H
  H85      1.0000 0.96680  0.39940  0.16780  Biso   1.000  H
  H86      1.0000 0.03320  0.39940  0.33220  Biso   1.000  H
  H87      1.0000 0.46680  0.89940  0.16780  Biso   1.000  H
  H88      1.0000 0.53320  0.89940  0.33220  Biso   1.000  H
  C97      1.0000 0.08315  0.67250  0.90409  Biso   1.000  C
  C98      1.0000 0.91685  0.67250  0.59591  Biso   1.000  C
  C99      1.0000 0.58315  0.17250  0.90409  Biso   1.000  C
  C100     1.0000 0.41685  0.17250  0.59591  Biso   1.000  C
  C101     1.0000 0.91685  0.32750  0.09591  Biso   1.000  C
  C102     1.0000 0.08315  0.32750  0.40409  Biso   1.000  C
  C103     1.0000 0.41685  0.82750  0.09591  Biso   1.000  C
  C104     1.0000 0.58315  0.82750  0.40409  Biso   1.000  C
  H89      1.0000 0.09600  0.52990  0.88840  Biso   1.000  H
  H90      1.0000 0.90400  0.52990  0.61160  Biso   1.000  H
  H91      1.0000 0.59600  0.02990  0.88840  Biso   1.000  H
  H92      1.0000 0.40400  0.02990  0.61160  Biso   1.000  H
  H93      1.0000 0.90400  0.47010  0.11160  Biso   1.000  H
  H94      1.0000 0.09600  0.47010  0.38840  Biso   1.000  H
  H95      1.0000 0.40400  0.97010  0.11160  Biso   1.000  H
  H96      1.0000 0.59600  0.97010  0.38840  Biso   1.000  H
  C105     1.0000 0.10260  0.83410  0.96048  Biso   1.000  C
  C106     1.0000 0.89740  0.83410  0.53952  Biso   1.000  C
  C107     1.0000 0.60260  0.33410  0.96048  Biso   1.000  C
  C108     1.0000 0.39740  0.33410  0.53952  Biso   1.000  C
  C109     1.0000 0.89740  0.16590  0.03952  Biso   1.000  C
  C110     1.0000 0.10260  0.16590  0.46048  Biso   1.000  C
  C111     1.0000 0.39740  0.66590  0.03952  Biso   1.000  C
  C112     1.0000 0.60260  0.66590  0.46048  Biso   1.000  C
  C113     1.0000 0.14411  0.77070  0.98562  Biso   1.000  C
  C114     1.0000 0.85589  0.77070  0.51438  Biso   1.000  C
  C115     1.0000 0.64411  0.27070  0.98562  Biso   1.000  C
  C116     1.0000 0.35589  0.27070  0.51438  Biso   1.000  C
  C117     1.0000 0.85589  0.22930  0.01438  Biso   1.000  C
  C118     1.0000 0.14411  0.22930  0.48562  Biso   1.000  C
  C119     1.0000 0.35589  0.72930  0.01438  Biso   1.000  C
  C120     1.0000 0.64411  0.72930  0.48562  Biso   1.000  C
  C121     1.0000 0.22556  0.06920  0.07488  Biso   1.000  C
  C122     1.0000 0.77444  0.06920  0.42512  Biso   1.000  C
  C123     1.0000 0.72556  0.56920  0.07488  Biso   1.000  C
  C124     1.0000 0.27444  0.56920  0.42512  Biso   1.000  C
  C125     1.0000 0.77444  0.93080  0.92512  Biso   1.000  C
  C126     1.0000 0.22556  0.93080  0.57488  Biso   1.000  C
  C127     1.0000 0.27444  0.43080  0.92512  Biso   1.000  C
  C128     1.0000 0.72556  0.43080  0.57488  Biso   1.000  C
  C129     1.0000 0.26666  0.01500  0.08504  Biso   1.000  C
  C130     1.0000 0.73334  0.01500  0.41496  Biso   1.000  C
  C131     1.0000 0.76666  0.51500  0.08504  Biso   1.000  C
  C132     1.0000 0.23334  0.51500  0.41496  Biso   1.000  C
  C133     1.0000 0.73334  0.98500  0.91496  Biso   1.000  C
  C134     1.0000 0.26666  0.98500  0.58504  Biso   1.000  C
  C135     1.0000 0.23334  0.48500  0.91496  Biso   1.000  C
  C136     1.0000 0.76666  0.48500  0.58504  Biso   1.000  C
  H97      1.0000 0.27650  0.09590  0.04400  Biso   1.000  H
  H98      1.0000 0.72350  0.09590  0.45600  Biso   1.000  H
  H99      1.0000 0.77650  0.59590  0.04400  Biso   1.000  H
  H100     1.0000 0.22350  0.59590  0.45600  Biso   1.000  H
  H101     1.0000 0.72350  0.90410  0.95600  Biso   1.000  H
  H102     1.0000 0.27650  0.90410  0.54400  Biso   1.000  H
  H103     1.0000 0.22350  0.40410  0.95600  Biso   1.000  H
  H104     1.0000 0.77650  0.40410  0.54400  Biso   1.000  H
  H105     1.0000 0.27070  0.82940  0.08400  Biso   1.000  H
  H106     1.0000 0.72930  0.82940  0.41600  Biso   1.000  H
  H107     1.0000 0.77070  0.32940  0.08400  Biso   1.000  H
  H108     1.0000 0.22930  0.32940  0.41600  Biso   1.000  H
  H109     1.0000 0.72930  0.17060  0.91600  Biso   1.000  H
  H110     1.0000 0.27070  0.17060  0.58400  Biso   1.000  H
  H111     1.0000 0.22930  0.67060  0.91600  Biso   1.000  H
  H112     1.0000 0.77070  0.67060  0.58400  Biso   1.000  H
  H113     1.0000 0.27990  0.08390  0.13390  Biso   1.000  H
  H114     1.0000 0.72010  0.08390  0.36610  Biso   1.000  H
  H115     1.0000 0.77990  0.58390  0.13390  Biso   1.000  H
  H116     1.0000 0.22010  0.58390  0.36610  Biso   1.000  H
  H117     1.0000 0.72010  0.91610  0.86610  Biso   1.000  H
  H118     1.0000 0.27990  0.91610  0.63390  Biso   1.000  H
  H119     1.0000 0.22010  0.41610  0.86610  Biso   1.000  H
  H120     1.0000 0.77990  0.41610  0.63390  Biso   1.000  H
  O33      1.0000 0.23300  0.64800  0.22042  Biso   1.000  O
  O34      1.0000 0.76700  0.64800  0.27958  Biso   1.000  O
  O35      1.0000 0.73300  0.14800  0.22042  Biso   1.000  O
  O36      1.0000 0.26700  0.14800  0.27958  Biso   1.000  O
  O37      1.0000 0.76700  0.35200  0.77958  Biso   1.000  O
  O38      1.0000 0.23300  0.35200  0.72042  Biso   1.000  O
  O39      1.0000 0.26700  0.85200  0.77958  Biso   1.000  O
  O40      1.0000 0.73300  0.85200  0.72042  Biso   1.000  O
  H121     1.0000 0.20970  0.67300  0.21360  Biso   1.000  H
  H122     1.0000 0.79030  0.67300  0.28640  Biso   1.000  H
  H123     1.0000 0.70970  0.17300  0.21360  Biso   1.000  H
  H124     1.0000 0.29030  0.17300  0.28640  Biso   1.000  H
  H125     1.0000 0.79030  0.32700  0.78640  Biso   1.000  H
  H126     1.0000 0.20970  0.32700  0.71360  Biso   1.000  H
  H127     1.0000 0.29030  0.82700  0.78640  Biso   1.000  H
  H128     1.0000 0.70970  0.82700  0.71360  Biso   1.000  H
  H129     1.0000 0.24270  0.79300  0.23240  Biso   1.000  H
  H130     1.0000 0.75730  0.79300  0.26760  Biso   1.000  H
  H131     1.0000 0.74270  0.29300  0.23240  Biso   1.000  H
  H132     1.0000 0.25730  0.29300  0.26760  Biso   1.000  H
  H133     1.0000 0.75730  0.20700  0.76760  Biso   1.000  H
  H134     1.0000 0.24270  0.20700  0.73240  Biso   1.000  H
  H135     1.0000 0.25730  0.70700  0.76760  Biso   1.000  H
  H136     1.0000 0.74270  0.70700  0.73240  Biso   1.000  H
