data_image0
_cell_length_a       11.254
_cell_length_b       15.418
_cell_length_c       14.782
_cell_angle_alpha    90
_cell_angle_beta     112.23
_cell_angle_gamma    90

_symmetry_space_group_name_H-M    "P 1"
_symmetry_int_tables_number       1

loop_
  _symmetry_equiv_pos_as_xyz
  'x, y, z'

loop_
  _atom_site_label
  _atom_site_occupancy
  _atom_site_fract_x
  _atom_site_fract_y
  _atom_site_fract_z
  _atom_site_thermal_displace_type
  _atom_site_B_iso_or_equiv
  _atom_site_type_symbol
  Hg1      1.0000 0.24682  0.22392  0.54268  Biso   1.000  Hg
  Hg2      1.0000 0.25318  0.72392  0.95732  Biso   1.000  Hg
  Hg3      1.0000 0.75318  0.77608  0.45732  Biso   1.000  Hg
  Hg4      1.0000 0.74682  0.27608  0.04268  Biso   1.000  Hg
  Cu1      1.0000 0.57083  0.21397  0.57657  Biso   1.000  Cu
  Cu2      1.0000 0.92917  0.71397  0.92343  Biso   1.000  Cu
  Cu3      1.0000 0.42917  0.78603  0.42343  Biso   1.000  Cu
  Cu4      1.0000 0.07083  0.28603  0.07657  Biso   1.000  Cu
  S1       1.0000 0.25090  0.31320  0.67570  Biso   1.000  S
  S2       1.0000 0.24910  0.81320  0.82430  Biso   1.000  S
  S3       1.0000 0.74910  0.68680  0.32430  Biso   1.000  S
  S4       1.0000 0.75090  0.18680  0.17570  Biso   1.000  S
  O1       1.0000 0.42160  0.28790  0.51060  Biso   1.000  O
  O2       1.0000 0.07840  0.78790  0.98940  Biso   1.000  O
  O3       1.0000 0.57840  0.71210  0.48940  Biso   1.000  O
  O4       1.0000 0.92160  0.21210  0.01060  Biso   1.000  O
  C1       1.0000 0.07380  0.40160  0.39130  Biso   1.000  C
  C2       1.0000 0.42620  0.90160  0.10870  Biso   1.000  C
  C3       1.0000 0.92620  0.59840  0.60870  Biso   1.000  C
  C4       1.0000 0.57380  0.09840  0.89130  Biso   1.000  C
  H1       1.0000 0.06450  0.45290  0.42480  Biso   1.000  H
  H2       1.0000 0.43550  0.95290  0.07520  Biso   1.000  H
  H3       1.0000 0.93550  0.54710  0.57520  Biso   1.000  H
  H4       1.0000 0.56450  0.04710  0.92480  Biso   1.000  H
  H5       1.0000 0.01260  0.35880  0.39300  Biso   1.000  H
  H6       1.0000 0.48740  0.85880  0.10700  Biso   1.000  H
  H7       1.0000 0.98740  0.64120  0.60700  Biso   1.000  H
  H8       1.0000 0.51260  0.14120  0.89300  Biso   1.000  H
  H9       1.0000 0.05890  0.41560  0.32460  Biso   1.000  H
  H10      1.0000 0.44110  0.91560  0.17540  Biso   1.000  H
  H11      1.0000 0.94110  0.58440  0.67540  Biso   1.000  H
  H12      1.0000 0.55890  0.08440  0.82460  Biso   1.000  H
  O5       1.0000 0.24730  0.06980  0.62880  Biso   1.000  O
  O6       1.0000 0.25270  0.56980  0.87120  Biso   1.000  O
  O7       1.0000 0.75270  0.93020  0.37120  Biso   1.000  O
  O8       1.0000 0.74730  0.43020  0.12880  Biso   1.000  O
  O9       1.0000 0.44340  0.13980  0.59520  Biso   1.000  O
  O10      1.0000 0.05660  0.63980  0.90480  Biso   1.000  O
  O11      1.0000 0.55660  0.86020  0.40480  Biso   1.000  O
  O12      1.0000 0.94340  0.36020  0.09520  Biso   1.000  O
  C5       1.0000 0.41170  0.35710  0.45550  Biso   1.000  C
  C6       1.0000 0.08830  0.85710  0.04450  Biso   1.000  C
  C7       1.0000 0.58830  0.64290  0.54450  Biso   1.000  C
  C8       1.0000 0.91170  0.14290  0.95550  Biso   1.000  C
  C9       1.0000 0.54850  0.91310  0.63370  Biso   1.000  C
  C10      1.0000 0.95150  0.41310  0.86630  Biso   1.000  C
  C11      1.0000 0.45150  0.08690  0.36630  Biso   1.000  C
  C12      1.0000 0.04850  0.58690  0.13370  Biso   1.000  C
  H13      1.0000 0.61740  0.87950  0.63450  Biso   1.000  H
  H14      1.0000 0.88260  0.37950  0.86550  Biso   1.000  H
  H15      1.0000 0.38260  0.12050  0.36550  Biso   1.000  H
  H16      1.0000 0.11740  0.62050  0.13450  Biso   1.000  H
  C13      1.0000 0.49960  0.46270  0.37700  Biso   1.000  C
  C14      1.0000 0.00040  0.96270  0.12300  Biso   1.000  C
  C15      1.0000 0.50040  0.53730  0.62300  Biso   1.000  C
  C16      1.0000 0.99960  0.03730  0.87700  Biso   1.000  C
  H17      1.0000 0.56890  0.48370  0.36390  Biso   1.000  H
  H18      1.0000 0.93110  0.98370  0.13610  Biso   1.000  H
  H19      1.0000 0.43110  0.51630  0.63610  Biso   1.000  H
  H20      1.0000 0.06890  0.01630  0.86390  Biso   1.000  H
  C17      1.0000 0.44700  0.05560  0.61570  Biso   1.000  C
  C18      1.0000 0.05300  0.55560  0.88430  Biso   1.000  C
  C19      1.0000 0.55300  0.94440  0.38430  Biso   1.000  C
  C20      1.0000 0.94700  0.44440  0.11570  Biso   1.000  C
  C21      1.0000 0.34110  0.92700  0.64740  Biso   1.000  C
  C22      1.0000 0.15890  0.42700  0.85260  Biso   1.000  C
  C23      1.0000 0.65890  0.07300  0.35260  Biso   1.000  C
  C24      1.0000 0.84110  0.57300  0.14740  Biso   1.000  C
  H21      1.0000 0.27210  0.90220  0.65800  Biso   1.000  H
  H22      1.0000 0.22790  0.40220  0.84200  Biso   1.000  H
  H23      1.0000 0.72790  0.09780  0.34200  Biso   1.000  H
  H24      1.0000 0.77210  0.59780  0.15800  Biso   1.000  H
  C25      1.0000 0.82310  0.29360  0.59780  Biso   1.000  C
  C26      1.0000 0.67690  0.79360  0.90220  Biso   1.000  C
  C27      1.0000 0.17690  0.70640  0.40220  Biso   1.000  C
  C28      1.0000 0.32310  0.20640  0.09780  Biso   1.000  C
  H25      1.0000 0.85170  0.34170  0.64330  Biso   1.000  H
  H26      1.0000 0.64830  0.84170  0.85670  Biso   1.000  H
  H27      1.0000 0.14830  0.65830  0.35670  Biso   1.000  H
  H28      1.0000 0.35170  0.15830  0.14330  Biso   1.000  H
  H29      1.0000 0.85990  0.30150  0.54870  Biso   1.000  H
  H30      1.0000 0.64010  0.80150  0.95130  Biso   1.000  H
  H31      1.0000 0.14010  0.69850  0.45130  Biso   1.000  H
  H32      1.0000 0.35990  0.19850  0.04870  Biso   1.000  H
  O13      1.0000 0.19900  0.36840  0.43750  Biso   1.000  O
  O14      1.0000 0.30100  0.86840  0.06250  Biso   1.000  O
  O15      1.0000 0.80100  0.63160  0.56250  Biso   1.000  O
  O16      1.0000 0.69900  0.13160  0.93750  Biso   1.000  O
  N1       1.0000 0.69410  0.11490  0.60240  Biso   1.000  N
  N2       1.0000 0.80590  0.61490  0.89760  Biso   1.000  N
  N3       1.0000 0.30590  0.88510  0.39760  Biso   1.000  N
  N4       1.0000 0.19410  0.38510  0.10240  Biso   1.000  N
  C29      1.0000 0.34510  0.01470  0.63070  Biso   1.000  C
  C30      1.0000 0.15490  0.51470  0.86930  Biso   1.000  C
  C31      1.0000 0.65490  0.98530  0.36930  Biso   1.000  C
  C32      1.0000 0.84510  0.48530  0.13070  Biso   1.000  C
  N5       1.0000 0.68700  0.29770  0.55100  Biso   1.000  N
  N6       1.0000 0.81300  0.79770  0.94900  Biso   1.000  N
  N7       1.0000 0.31300  0.70230  0.44900  Biso   1.000  N
  N8       1.0000 0.18700  0.20230  0.05100  Biso   1.000  N
  C33      1.0000 0.44730  0.87590  0.64790  Biso   1.000  C
  C34      1.0000 0.05270  0.37590  0.85210  Biso   1.000  C
  C35      1.0000 0.55270  0.12410  0.35210  Biso   1.000  C
  C36      1.0000 0.94730  0.62410  0.14790  Biso   1.000  C
  H33      1.0000 0.44720  0.81630  0.65800  Biso   1.000  H
  H34      1.0000 0.05280  0.31630  0.84200  Biso   1.000  H
  H35      1.0000 0.55280  0.18370  0.34200  Biso   1.000  H
  H36      1.0000 0.94720  0.68370  0.15800  Biso   1.000  H
  C37      1.0000 0.66580  0.03690  0.61000  Biso   1.000  C
  C38      1.0000 0.83420  0.53690  0.89000  Biso   1.000  C
  C39      1.0000 0.33420  0.96310  0.39000  Biso   1.000  C
  C40      1.0000 0.16580  0.46310  0.11000  Biso   1.000  C
  H37      1.0000 0.72670  0.99590  0.61060  Biso   1.000  H
  H38      1.0000 0.77330  0.49590  0.88940  Biso   1.000  H
  H39      1.0000 0.27330  0.00410  0.38940  Biso   1.000  H
  H40      1.0000 0.22670  0.50410  0.11060  Biso   1.000  H
  C41      1.0000 0.54770  0.00270  0.61800  Biso   1.000  C
  C42      1.0000 0.95230  0.50270  0.88200  Biso   1.000  C
  C43      1.0000 0.45230  0.99730  0.38200  Biso   1.000  C
  C44      1.0000 0.04770  0.49730  0.11800  Biso   1.000  C
  C45      1.0000 0.28400  0.47130  0.35560  Biso   1.000  C
  C46      1.0000 0.21600  0.97130  0.14440  Biso   1.000  C
  C47      1.0000 0.71600  0.52870  0.64440  Biso   1.000  C
  C48      1.0000 0.78400  0.02870  0.85560  Biso   1.000  C
  H41      1.0000 0.20480  0.49900  0.32840  Biso   1.000  H
  H42      1.0000 0.29520  0.99900  0.17160  Biso   1.000  H
  H43      1.0000 0.79520  0.50100  0.67160  Biso   1.000  H
  H44      1.0000 0.70480  0.00100  0.82840  Biso   1.000  H
  C49      1.0000 0.82330  0.13250  0.60050  Biso   1.000  C
  C50      1.0000 0.67670  0.63250  0.89950  Biso   1.000  C
  C51      1.0000 0.17670  0.86750  0.39950  Biso   1.000  C
  C52      1.0000 0.32330  0.36750  0.10050  Biso   1.000  C
  H45      1.0000 0.87900  0.08310  0.62730  Biso   1.000  H
  H46      1.0000 0.62100  0.58310  0.87270  Biso   1.000  H
  H47      1.0000 0.12100  0.91690  0.37270  Biso   1.000  H
  H48      1.0000 0.37900  0.41690  0.12730  Biso   1.000  H
  H49      1.0000 0.81580  0.14050  0.53340  Biso   1.000  H
  H50      1.0000 0.68420  0.64050  0.96660  Biso   1.000  H
  H51      1.0000 0.18420  0.85950  0.46660  Biso   1.000  H
  H52      1.0000 0.31580  0.35950  0.03340  Biso   1.000  H
  C53      1.0000 0.64690  0.35980  0.48830  Biso   1.000  C
  C54      1.0000 0.85310  0.85980  0.01170  Biso   1.000  C
  C55      1.0000 0.35310  0.64020  0.51170  Biso   1.000  C
  C56      1.0000 0.14690  0.14020  0.98830  Biso   1.000  C
  H53      1.0000 0.70980  0.38880  0.47350  Biso   1.000  H
  H54      1.0000 0.79020  0.88880  0.02650  Biso   1.000  H
  H55      1.0000 0.29020  0.61120  0.52650  Biso   1.000  H
  H56      1.0000 0.20980  0.11120  0.97350  Biso   1.000  H
  C57      1.0000 0.52010  0.38940  0.43910  Biso   1.000  C
  C58      1.0000 0.97990  0.88940  0.06090  Biso   1.000  C
  C59      1.0000 0.47990  0.61060  0.56090  Biso   1.000  C
  C60      1.0000 0.02010  0.11060  0.93910  Biso   1.000  C
  C61      1.0000 0.29560  0.40080  0.41320  Biso   1.000  C
  C62      1.0000 0.20440  0.90080  0.08680  Biso   1.000  C
  C63      1.0000 0.70440  0.59920  0.58680  Biso   1.000  C
  C64      1.0000 0.79560  0.09920  0.91320  Biso   1.000  C
  C65      1.0000 0.15080  0.03640  0.65730  Biso   1.000  C
  C66      1.0000 0.34920  0.53640  0.84270  Biso   1.000  C
  C67      1.0000 0.84920  0.96360  0.34270  Biso   1.000  C
  C68      1.0000 0.65080  0.46360  0.15730  Biso   1.000  C
  H57      1.0000 0.12180  0.98170  0.62540  Biso   1.000  H
  H58      1.0000 0.37820  0.48170  0.87460  Biso   1.000  H
  H59      1.0000 0.87820  0.01830  0.37460  Biso   1.000  H
  H60      1.0000 0.62180  0.51830  0.12540  Biso   1.000  H
  H61      1.0000 0.08020  0.07630  0.63910  Biso   1.000  H
  H62      1.0000 0.41980  0.57630  0.86090  Biso   1.000  H
  H63      1.0000 0.91980  0.92370  0.36090  Biso   1.000  H
  H64      1.0000 0.58020  0.42370  0.13910  Biso   1.000  H
  H65      1.0000 0.18450  0.02810  0.72680  Biso   1.000  H
  H66      1.0000 0.31550  0.52810  0.77320  Biso   1.000  H
  H67      1.0000 0.81550  0.97190  0.27320  Biso   1.000  H
  H68      1.0000 0.68450  0.47190  0.22680  Biso   1.000  H
  C69      1.0000 0.87700  0.20670  0.65490  Biso   1.000  C
  C70      1.0000 0.62300  0.70670  0.84510  Biso   1.000  C
  C71      1.0000 0.12300  0.79330  0.34510  Biso   1.000  C
  C72      1.0000 0.37700  0.29330  0.15490  Biso   1.000  C
  H69      1.0000 0.96970  0.20510  0.67280  Biso   1.000  H
  H70      1.0000 0.53030  0.70510  0.82720  Biso   1.000  H
  H71      1.0000 0.03030  0.79490  0.32720  Biso   1.000  H
  H72      1.0000 0.46970  0.29490  0.17280  Biso   1.000  H
  H73      1.0000 0.86080  0.20620  0.71470  Biso   1.000  H
  H74      1.0000 0.63920  0.70620  0.78530  Biso   1.000  H
  H75      1.0000 0.13920  0.79380  0.28530  Biso   1.000  H
  H76      1.0000 0.36080  0.29380  0.21470  Biso   1.000  H
  C73      1.0000 0.25560  0.24200  0.76290  Biso   1.000  C
  C74      1.0000 0.24440  0.74200  0.73710  Biso   1.000  C
  C75      1.0000 0.74440  0.75800  0.23710  Biso   1.000  C
  C76      1.0000 0.75560  0.25800  0.26290  Biso   1.000  C
  C77      1.0000 0.38800  0.50290  0.33650  Biso   1.000  C
  C78      1.0000 0.11200  0.00290  0.16350  Biso   1.000  C
  C79      1.0000 0.61200  0.49710  0.66350  Biso   1.000  C
  C80      1.0000 0.88800  0.99710  0.83650  Biso   1.000  C
  H77      1.0000 0.37930  0.55100  0.29650  Biso   1.000  H
  H78      1.0000 0.12070  0.05100  0.20350  Biso   1.000  H
  H79      1.0000 0.62070  0.44900  0.70350  Biso   1.000  H
  H80      1.0000 0.87930  0.94900  0.79650  Biso   1.000  H
  N9       1.0000 0.26400  0.19910  0.83060  Biso   1.000  N
  N10      1.0000 0.23600  0.69910  0.66940  Biso   1.000  N
  N11      1.0000 0.73600  0.80090  0.16940  Biso   1.000  N
  N12      1.0000 0.76400  0.30090  0.33060  Biso   1.000  N
  S5       1.0000 0.10100  0.14630  0.40100  Biso   1.000  S
  S6       1.0000 0.39900  0.64630  0.09900  Biso   1.000  S
  S7       1.0000 0.89900  0.85370  0.59900  Biso   1.000  S
  S8       1.0000 0.60100  0.35370  0.90100  Biso   1.000  S
  N13      1.0000 0.13640  0.23330  0.24340  Biso   1.000  N
  N14      1.0000 0.36360  0.73330  0.25660  Biso   1.000  N
  N15      1.0000 0.86360  0.76670  0.75660  Biso   1.000  N
  N16      1.0000 0.63640  0.26670  0.74340  Biso   1.000  N
  C81      1.0000 0.12020  0.19610  0.31010  Biso   1.000  C
  C82      1.0000 0.37980  0.69610  0.18990  Biso   1.000  C
  C83      1.0000 0.87980  0.80390  0.68990  Biso   1.000  C
  C84      1.0000 0.62020  0.30390  0.81010  Biso   1.000  C
