data_image0
_cell_length_a       13.288
_cell_length_b       14.09
_cell_length_c       6.75
_cell_angle_alpha    90
_cell_angle_beta     108.594
_cell_angle_gamma    90

_symmetry_space_group_name_H-M    "P 1"
_symmetry_int_tables_number       1

loop_
  _symmetry_equiv_pos_as_xyz
  'x, y, z'

loop_
  _atom_site_label
  _atom_site_occupancy
  _atom_site_fract_x
  _atom_site_fract_y
  _atom_site_fract_z
  _atom_site_thermal_displace_type
  _atom_site_B_iso_or_equiv
  _atom_site_type_symbol
  Cu1      1.0000 0.09678  0.00359  0.08240  Biso   1.000  Cu
  Cu2      1.0000 0.09678  0.99641  0.58240  Biso   1.000  Cu
  Cu3      1.0000 0.59678  0.50359  0.08240  Biso   1.000  Cu
  Cu4      1.0000 0.59678  0.49641  0.58240  Biso   1.000  Cu
  O1       1.0000 0.09790  0.93764  0.33060  Biso   1.000  O
  O2       1.0000 0.09790  0.06236  0.83060  Biso   1.000  O
  O3       1.0000 0.59790  0.43764  0.33060  Biso   1.000  O
  O4       1.0000 0.59790  0.56236  0.83060  Biso   1.000  O
  H1       1.0000 0.06400  0.88640  0.31200  Biso   1.000  H
  H2       1.0000 0.06400  0.11360  0.81200  Biso   1.000  H
  H3       1.0000 0.56400  0.38640  0.31200  Biso   1.000  H
  H4       1.0000 0.56400  0.61360  0.81200  Biso   1.000  H
  N1       1.0000 0.91710  0.05430  0.02460  Biso   1.000  N
  N2       1.0000 0.91710  0.94570  0.52460  Biso   1.000  N
  N3       1.0000 0.41710  0.55430  0.02460  Biso   1.000  N
  N4       1.0000 0.41710  0.44570  0.52460  Biso   1.000  N
  N5       1.0000 0.72460  0.25190  0.92620  Biso   1.000  N
  N6       1.0000 0.72460  0.74810  0.42620  Biso   1.000  N
  N7       1.0000 0.22460  0.75190  0.92620  Biso   1.000  N
  N8       1.0000 0.22460  0.24810  0.42620  Biso   1.000  N
  N9       1.0000 0.64510  0.37860  0.76850  Biso   1.000  N
  N10      1.0000 0.64510  0.62140  0.26850  Biso   1.000  N
  N11      1.0000 0.14510  0.87860  0.76850  Biso   1.000  N
  N12      1.0000 0.14510  0.12140  0.26850  Biso   1.000  N
  N13      1.0000 0.65850  0.38690  0.97860  Biso   1.000  N
  N14      1.0000 0.65850  0.61310  0.47860  Biso   1.000  N
  N15      1.0000 0.15850  0.88690  0.97860  Biso   1.000  N
  N16      1.0000 0.15850  0.11310  0.47860  Biso   1.000  N
  C1       1.0000 0.69970  0.08000  0.92740  Biso   1.000  C
  C2       1.0000 0.69970  0.92000  0.42740  Biso   1.000  C
  C3       1.0000 0.19970  0.58000  0.92740  Biso   1.000  C
  C4       1.0000 0.19970  0.42000  0.42740  Biso   1.000  C
  H5       1.0000 0.62690  0.08910  0.89440  Biso   1.000  H
  H6       1.0000 0.62690  0.91090  0.39440  Biso   1.000  H
  H7       1.0000 0.12690  0.58910  0.89440  Biso   1.000  H
  H8       1.0000 0.12690  0.41090  0.39440  Biso   1.000  H
  C5       1.0000 0.74220  0.99040  0.94890  Biso   1.000  C
  C6       1.0000 0.74220  0.00960  0.44890  Biso   1.000  C
  C7       1.0000 0.24220  0.49040  0.94890  Biso   1.000  C
  C8       1.0000 0.24220  0.50960  0.44890  Biso   1.000  C
  H9       1.0000 0.69880  0.93730  0.93240  Biso   1.000  H
  H10      1.0000 0.69880  0.06270  0.43240  Biso   1.000  H
  H11      1.0000 0.19880  0.43730  0.93240  Biso   1.000  H
  H12      1.0000 0.19880  0.56270  0.43240  Biso   1.000  H
  C9       1.0000 0.84930  0.98070  0.99510  Biso   1.000  C
  C10      1.0000 0.84930  0.01930  0.49510  Biso   1.000  C
  C11      1.0000 0.34930  0.48070  0.99510  Biso   1.000  C
  C12      1.0000 0.34930  0.51930  0.49510  Biso   1.000  C
  H13      1.0000 0.87710  0.91960  0.00710  Biso   1.000  H
  H14      1.0000 0.87710  0.08040  0.50710  Biso   1.000  H
  H15      1.0000 0.37710  0.41960  0.00710  Biso   1.000  H
  H16      1.0000 0.37710  0.58040  0.50710  Biso   1.000  H
  C13      1.0000 0.87620  0.14080  0.00430  Biso   1.000  C
  C14      1.0000 0.87620  0.85920  0.50430  Biso   1.000  C
  C15      1.0000 0.37620  0.64080  0.00430  Biso   1.000  C
  C16      1.0000 0.37620  0.35920  0.50430  Biso   1.000  C
  H17      1.0000 0.92140  0.19280  0.02300  Biso   1.000  H
  H18      1.0000 0.92140  0.80720  0.52300  Biso   1.000  H
  H19      1.0000 0.42140  0.69280  0.02300  Biso   1.000  H
  H20      1.0000 0.42140  0.30720  0.52300  Biso   1.000  H
  C17      1.0000 0.76830  0.15620  0.95610  Biso   1.000  C
  C18      1.0000 0.76830  0.84380  0.45610  Biso   1.000  C
  C19      1.0000 0.26830  0.65620  0.95610  Biso   1.000  C
  C20      1.0000 0.26830  0.34380  0.45610  Biso   1.000  C
  C21      1.0000 0.68470  0.29660  0.74340  Biso   1.000  C
  C22      1.0000 0.68470  0.70340  0.24340  Biso   1.000  C
  C23      1.0000 0.18470  0.79660  0.74340  Biso   1.000  C
  C24      1.0000 0.18470  0.20340  0.24340  Biso   1.000  C
  H21      1.0000 0.68510  0.27240  0.61550  Biso   1.000  H
  H22      1.0000 0.68510  0.72760  0.11550  Biso   1.000  H
  H23      1.0000 0.18510  0.77240  0.61550  Biso   1.000  H
  H24      1.0000 0.18510  0.22760  0.11550  Biso   1.000  H
  C25      1.0000 0.70630  0.31030  0.06990  Biso   1.000  C
  C26      1.0000 0.70630  0.68970  0.56990  Biso   1.000  C
  C27      1.0000 0.20630  0.81030  0.06990  Biso   1.000  C
  C28      1.0000 0.20630  0.18970  0.56990  Biso   1.000  C
  H25      1.0000 0.72500  0.29780  0.21230  Biso   1.000  H
  H26      1.0000 0.72500  0.70220  0.71230  Biso   1.000  H
  H27      1.0000 0.22500  0.79780  0.21230  Biso   1.000  H
  H28      1.0000 0.22500  0.20220  0.71230  Biso   1.000  H
  S1       1.0000 0.44813  0.20793  0.07315  Biso   1.000  S
  S2       1.0000 0.44813  0.79207  0.57315  Biso   1.000  S
  S3       1.0000 0.94813  0.70793  0.07315  Biso   1.000  S
  S4       1.0000 0.94813  0.29207  0.57315  Biso   1.000  S
  F1       1.0000 0.33740  0.05400  0.04610  Biso   1.000  F
  F2       1.0000 0.33740  0.94600  0.54610  Biso   1.000  F
  F3       1.0000 0.83740  0.55400  0.04610  Biso   1.000  F
  F4       1.0000 0.83740  0.44600  0.54610  Biso   1.000  F
  F5       1.0000 0.40630  0.10590  0.35330  Biso   1.000  F
  F6       1.0000 0.40630  0.89410  0.85330  Biso   1.000  F
  F7       1.0000 0.90630  0.60590  0.35330  Biso   1.000  F
  F8       1.0000 0.90630  0.39410  0.85330  Biso   1.000  F
  F9       1.0000 0.50310  0.03690  0.19620  Biso   1.000  F
  F10      1.0000 0.50310  0.96310  0.69620  Biso   1.000  F
  F11      1.0000 0.00310  0.53690  0.19620  Biso   1.000  F
  F12      1.0000 0.00310  0.46310  0.69620  Biso   1.000  F
  O5       1.0000 0.34920  0.25740  0.03720  Biso   1.000  O
  O6       1.0000 0.34920  0.74260  0.53720  Biso   1.000  O
  O7       1.0000 0.84920  0.75740  0.03720  Biso   1.000  O
  O8       1.0000 0.84920  0.24260  0.53720  Biso   1.000  O
  O9       1.0000 0.47410  0.18700  0.88970  Biso   1.000  O
  O10      1.0000 0.47410  0.81300  0.38970  Biso   1.000  O
  O11      1.0000 0.97410  0.68700  0.88970  Biso   1.000  O
  O12      1.0000 0.97410  0.31300  0.38970  Biso   1.000  O
  O13      1.0000 0.53370  0.24350  0.24460  Biso   1.000  O
  O14      1.0000 0.53370  0.75650  0.74460  Biso   1.000  O
  O15      1.0000 0.03370  0.74350  0.24460  Biso   1.000  O
  O16      1.0000 0.03370  0.25650  0.74460  Biso   1.000  O
  C29      1.0000 0.42330  0.09480  0.17380  Biso   1.000  C
  C30      1.0000 0.42330  0.90520  0.67380  Biso   1.000  C
  C31      1.0000 0.92330  0.59480  0.17380  Biso   1.000  C
  C32      1.0000 0.92330  0.40520  0.67380  Biso   1.000  C
