data_image0
_cell_length_a       6.5901
_cell_length_b       9.8962
_cell_length_c       15.329
_cell_angle_alpha    90
_cell_angle_beta     90
_cell_angle_gamma    90

_symmetry_space_group_name_H-M    "P 1"
_symmetry_int_tables_number       1

loop_
  _symmetry_equiv_pos_as_xyz
  'x, y, z'

loop_
  _atom_site_label
  _atom_site_occupancy
  _atom_site_fract_x
  _atom_site_fract_y
  _atom_site_fract_z
  _atom_site_thermal_displace_type
  _atom_site_B_iso_or_equiv
  _atom_site_type_symbol
  Cu1      1.0000 0.75701  0.77606  0.49597  Biso   1.000  Cu
  Cu2      1.0000 0.74299  0.22394  0.99597  Biso   1.000  Cu
  Cu3      1.0000 0.24299  0.27606  0.00403  Biso   1.000  Cu
  Cu4      1.0000 0.25701  0.72394  0.50403  Biso   1.000  Cu
  O1       1.0000 0.51750  0.73770  0.56160  Biso   1.000  O
  O2       1.0000 0.98250  0.26230  0.06160  Biso   1.000  O
  O3       1.0000 0.48250  0.23770  0.93840  Biso   1.000  O
  O4       1.0000 0.01750  0.76230  0.43840  Biso   1.000  O
  H1       1.0000 0.42030  0.79420  0.56230  Biso   1.000  H
  H2       1.0000 0.07970  0.20580  0.06230  Biso   1.000  H
  H3       1.0000 0.57970  0.29420  0.93770  Biso   1.000  H
  H4       1.0000 0.92030  0.70580  0.43770  Biso   1.000  H
  H5       1.0000 0.50800  0.66430  0.59010  Biso   1.000  H
  H6       1.0000 0.99200  0.33570  0.09010  Biso   1.000  H
  H7       1.0000 0.49200  0.16430  0.90990  Biso   1.000  H
  H8       1.0000 0.00800  0.83570  0.40990  Biso   1.000  H
  C1       1.0000 0.48980  0.04790  0.50130  Biso   1.000  C
  C2       1.0000 0.01020  0.95210  0.00130  Biso   1.000  C
  C3       1.0000 0.51020  0.54790  0.99870  Biso   1.000  C
  C4       1.0000 0.98980  0.45210  0.49870  Biso   1.000  C
  H9       1.0000 0.48890  0.02570  0.56020  Biso   1.000  H
  H10      1.0000 0.01110  0.97430  0.06020  Biso   1.000  H
  H11      1.0000 0.51110  0.52570  0.93980  Biso   1.000  H
  H12      1.0000 0.98890  0.47430  0.43980  Biso   1.000  H
  C5       1.0000 0.35340  0.14380  0.47200  Biso   1.000  C
  C6       1.0000 0.14660  0.85620  0.97200  Biso   1.000  C
  C7       1.0000 0.64660  0.64380  0.02800  Biso   1.000  C
  C8       1.0000 0.85340  0.35620  0.52800  Biso   1.000  C
  H13      1.0000 0.26470  0.18550  0.51080  Biso   1.000  H
  H14      1.0000 0.23530  0.81450  0.01080  Biso   1.000  H
  H15      1.0000 0.73530  0.68550  0.98920  Biso   1.000  H
  H16      1.0000 0.76470  0.31450  0.48920  Biso   1.000  H
  C9       1.0000 0.35040  0.17730  0.38330  Biso   1.000  C
  C10      1.0000 0.14960  0.82270  0.88330  Biso   1.000  C
  C11      1.0000 0.64960  0.67730  0.11670  Biso   1.000  C
  C12      1.0000 0.85040  0.32270  0.61670  Biso   1.000  C
  H17      1.0000 0.25970  0.24080  0.36130  Biso   1.000  H
  H18      1.0000 0.24030  0.75920  0.86130  Biso   1.000  H
  H19      1.0000 0.74030  0.74080  0.13870  Biso   1.000  H
  H20      1.0000 0.75970  0.25920  0.63870  Biso   1.000  H
  C13      1.0000 0.48580  0.11290  0.33020  Biso   1.000  C
  C14      1.0000 0.01420  0.88710  0.83020  Biso   1.000  C
  C15      1.0000 0.51420  0.61290  0.16980  Biso   1.000  C
  C16      1.0000 0.98580  0.38710  0.66980  Biso   1.000  C
  C17      1.0000 0.62080  0.01920  0.36390  Biso   1.000  C
  C18      1.0000 0.87920  0.98080  0.86390  Biso   1.000  C
  C19      1.0000 0.37920  0.51920  0.13610  Biso   1.000  C
  C20      1.0000 0.12080  0.48080  0.63610  Biso   1.000  C
  H21      1.0000 0.71350  0.97790  0.32670  Biso   1.000  H
  H22      1.0000 0.78650  0.02210  0.82670  Biso   1.000  H
  H23      1.0000 0.28650  0.47790  0.17330  Biso   1.000  H
  H24      1.0000 0.21350  0.52210  0.67330  Biso   1.000  H
  C21      1.0000 0.32690  0.17560  0.18920  Biso   1.000  C
  C22      1.0000 0.17310  0.82440  0.68920  Biso   1.000  C
  C23      1.0000 0.67310  0.67560  0.31080  Biso   1.000  C
  C24      1.0000 0.82690  0.32440  0.81080  Biso   1.000  C
  H25      1.0000 0.19460  0.18470  0.20950  Biso   1.000  H
  H26      1.0000 0.30540  0.81530  0.70950  Biso   1.000  H
  H27      1.0000 0.80540  0.68470  0.29050  Biso   1.000  H
  H28      1.0000 0.69460  0.31530  0.79050  Biso   1.000  H
  C25      1.0000 0.64940  0.13780  0.18400  Biso   1.000  C
  C26      1.0000 0.85060  0.86220  0.68400  Biso   1.000  C
  C27      1.0000 0.35060  0.63780  0.31600  Biso   1.000  C
  C28      1.0000 0.14940  0.36220  0.81600  Biso   1.000  C
  H29      1.0000 0.78160  0.11640  0.20010  Biso   1.000  H
  H30      1.0000 0.71840  0.88360  0.70010  Biso   1.000  H
  H31      1.0000 0.21840  0.61640  0.29990  Biso   1.000  H
  H32      1.0000 0.28160  0.38360  0.79990  Biso   1.000  H
  N1       1.0000 0.62130  0.98600  0.45010  Biso   1.000  N
  N2       1.0000 0.87870  0.01400  0.95010  Biso   1.000  N
  N3       1.0000 0.37870  0.48600  0.04990  Biso   1.000  N
  N4       1.0000 0.12130  0.51400  0.54990  Biso   1.000  N
  N5       1.0000 0.48930  0.13840  0.23860  Biso   1.000  N
  N6       1.0000 0.01070  0.86160  0.73860  Biso   1.000  N
  N7       1.0000 0.51070  0.63840  0.26140  Biso   1.000  N
  N8       1.0000 0.98930  0.36160  0.76140  Biso   1.000  N
  N9       1.0000 0.38560  0.19650  0.10900  Biso   1.000  N
  N10      1.0000 0.11440  0.80350  0.60900  Biso   1.000  N
  N11      1.0000 0.61440  0.69650  0.39100  Biso   1.000  N
  N12      1.0000 0.88560  0.30350  0.89100  Biso   1.000  N
  N13      1.0000 0.59310  0.17150  0.10530  Biso   1.000  N
  N14      1.0000 0.90690  0.82850  0.60530  Biso   1.000  N
  N15      1.0000 0.40690  0.67150  0.39470  Biso   1.000  N
  N16      1.0000 0.09310  0.32850  0.89470  Biso   1.000  N
  Br1      1.0000 0.07380  0.89140  0.23662  Biso   1.000  Br
  Br2      1.0000 0.42620  0.10860  0.73662  Biso   1.000  Br
  Br3      1.0000 0.92620  0.39140  0.26338  Biso   1.000  Br
  Br4      1.0000 0.57380  0.60860  0.76338  Biso   1.000  Br
