data_image0
_cell_length_a       6.591
_cell_length_b       11.078
_cell_length_c       15.408
_cell_angle_alpha    90
_cell_angle_beta     90
_cell_angle_gamma    90

_symmetry_space_group_name_H-M    "P 1"
_symmetry_int_tables_number       1

loop_
  _symmetry_equiv_pos_as_xyz
  'x, y, z'

loop_
  _atom_site_label
  _atom_site_occupancy
  _atom_site_fract_x
  _atom_site_fract_y
  _atom_site_fract_z
  _atom_site_thermal_displace_type
  _atom_site_B_iso_or_equiv
  _atom_site_type_symbol
  Cu1      1.0000 0.75000  0.72601  0.99264  Biso   1.000  Cu
  Cu2      1.0000 0.75000  0.27399  0.49264  Biso   1.000  Cu
  Cu3      1.0000 0.25000  0.22601  0.50736  Biso   1.000  Cu
  Cu4      1.0000 0.25000  0.77399  0.00736  Biso   1.000  Cu
  O1       1.0000 0.00920  0.75200  0.93880  Biso   1.000  O
  O2       1.0000 0.49080  0.24800  0.43880  Biso   1.000  O
  O3       1.0000 0.99080  0.25200  0.56120  Biso   1.000  O
  O4       1.0000 0.50920  0.74800  0.06120  Biso   1.000  O
  H1       1.0000 0.01830  0.75410  0.87860  Biso   1.000  H
  H2       1.0000 0.48170  0.24590  0.37860  Biso   1.000  H
  H3       1.0000 0.98170  0.25410  0.62140  Biso   1.000  H
  H4       1.0000 0.51830  0.74590  0.12140  Biso   1.000  H
  N1       1.0000 0.10530  0.68810  0.10520  Biso   1.000  N
  N2       1.0000 0.39470  0.31190  0.60520  Biso   1.000  N
  N3       1.0000 0.89470  0.18810  0.39480  Biso   1.000  N
  N4       1.0000 0.60530  0.81190  0.89480  Biso   1.000  N
  N5       1.0000 0.90070  0.66690  0.09830  Biso   1.000  N
  N6       1.0000 0.59930  0.33310  0.59830  Biso   1.000  N
  N7       1.0000 0.09930  0.16690  0.40170  Biso   1.000  N
  N8       1.0000 0.40070  0.83310  0.90170  Biso   1.000  N
  N9       1.0000 0.99630  0.62110  0.22900  Biso   1.000  N
  N10      1.0000 0.50370  0.37890  0.72900  Biso   1.000  N
  N11      1.0000 0.00370  0.12110  0.27100  Biso   1.000  N
  N12      1.0000 0.49630  0.87890  0.77100  Biso   1.000  N
  N13      1.0000 0.87780  0.45830  0.43190  Biso   1.000  N
  N14      1.0000 0.62220  0.54170  0.93190  Biso   1.000  N
  N15      1.0000 0.12220  0.95830  0.06810  Biso   1.000  N
  N16      1.0000 0.37780  0.04170  0.56810  Biso   1.000  N
  C1       1.0000 0.84100  0.62670  0.17340  Biso   1.000  C
  C2       1.0000 0.65900  0.37330  0.67340  Biso   1.000  C
  C3       1.0000 0.15900  0.12670  0.32660  Biso   1.000  C
  C4       1.0000 0.34100  0.87330  0.82660  Biso   1.000  C
  H5       1.0000 0.70840  0.60490  0.18660  Biso   1.000  H
  H6       1.0000 0.79160  0.39510  0.68660  Biso   1.000  H
  H7       1.0000 0.29160  0.10490  0.31340  Biso   1.000  H
  H8       1.0000 0.20840  0.89510  0.81340  Biso   1.000  H
  C5       1.0000 0.15980  0.66220  0.18430  Biso   1.000  C
  C6       1.0000 0.34020  0.33780  0.68430  Biso   1.000  C
  C7       1.0000 0.84020  0.16220  0.31570  Biso   1.000  C
  C8       1.0000 0.65980  0.83780  0.81570  Biso   1.000  C
  H9       1.0000 0.29010  0.67050  0.20660  Biso   1.000  H
  H10      1.0000 0.20990  0.32950  0.70660  Biso   1.000  H
  H11      1.0000 0.70990  0.17050  0.29340  Biso   1.000  H
  H12      1.0000 0.79010  0.82950  0.79340  Biso   1.000  H
  C9       1.0000 0.99050  0.58980  0.32070  Biso   1.000  C
  C10      1.0000 0.50950  0.41020  0.82070  Biso   1.000  C
  C11      1.0000 0.00950  0.08980  0.17930  Biso   1.000  C
  C12      1.0000 0.49050  0.91020  0.67930  Biso   1.000  C
  C13      1.0000 0.10400  0.65640  0.37800  Biso   1.000  C
  C14      1.0000 0.39600  0.34360  0.87800  Biso   1.000  C
  C15      1.0000 0.89600  0.15640  0.12200  Biso   1.000  C
  C16      1.0000 0.60400  0.84360  0.62200  Biso   1.000  C
  H13      1.0000 0.18140  0.72170  0.35940  Biso   1.000  H
  H14      1.0000 0.31860  0.27830  0.85940  Biso   1.000  H
  H15      1.0000 0.81860  0.22170  0.14060  Biso   1.000  H
  H16      1.0000 0.68140  0.77830  0.64060  Biso   1.000  H
  C17      1.0000 0.10000  0.62300  0.46310  Biso   1.000  C
  C18      1.0000 0.40000  0.37700  0.96310  Biso   1.000  C
  C19      1.0000 0.90000  0.12300  0.03690  Biso   1.000  C
  C20      1.0000 0.60000  0.87700  0.53690  Biso   1.000  C
  H17      1.0000 0.16890  0.66780  0.50470  Biso   1.000  H
  H18      1.0000 0.33110  0.33220  0.00470  Biso   1.000  H
  H19      1.0000 0.83110  0.16780  0.99530  Biso   1.000  H
  H20      1.0000 0.66890  0.83220  0.49530  Biso   1.000  H
  C21      1.0000 0.98900  0.52030  0.48680  Biso   1.000  C
  C22      1.0000 0.51100  0.47970  0.98680  Biso   1.000  C
  C23      1.0000 0.01100  0.02030  0.01320  Biso   1.000  C
  C24      1.0000 0.48900  0.97970  0.51320  Biso   1.000  C
  H21      1.0000 0.99530  0.49460  0.54420  Biso   1.000  H
  H22      1.0000 0.50470  0.50540  0.04420  Biso   1.000  H
  H23      1.0000 0.00470  0.99460  0.95580  Biso   1.000  H
  H24      1.0000 0.49530  0.00540  0.45580  Biso   1.000  H
  C25      1.0000 0.88190  0.49260  0.34840  Biso   1.000  C
  C26      1.0000 0.61810  0.50740  0.84840  Biso   1.000  C
  C27      1.0000 0.11810  0.99260  0.15160  Biso   1.000  C
  C28      1.0000 0.38190  0.00740  0.65160  Biso   1.000  C
  H25      1.0000 0.80790  0.44850  0.30800  Biso   1.000  H
  H26      1.0000 0.69210  0.55150  0.80800  Biso   1.000  H
  H27      1.0000 0.19210  0.94850  0.19200  Biso   1.000  H
  H28      1.0000 0.30790  0.05150  0.69200  Biso   1.000  H
  B1       1.0000 0.87300  0.13400  0.78230  Biso   1.000  B
  B2       1.0000 0.62700  0.86600  0.28230  Biso   1.000  B
  B3       1.0000 0.12700  0.63400  0.71770  Biso   1.000  B
  B4       1.0000 0.37300  0.36600  0.21770  Biso   1.000  B
  F1       1.0000 0.00110  0.04820  0.81020  Biso   1.000  F
  F2       1.0000 0.49890  0.95180  0.31020  Biso   1.000  F
  F3       1.0000 0.99890  0.54820  0.68980  Biso   1.000  F
  F4       1.0000 0.50110  0.45180  0.18980  Biso   1.000  F
  F5       1.0000 0.70430  0.12050  0.82970  Biso   1.000  F
  F6       1.0000 0.79570  0.87950  0.32970  Biso   1.000  F
  F7       1.0000 0.29570  0.62050  0.67030  Biso   1.000  F
  F8       1.0000 0.20430  0.37950  0.17030  Biso   1.000  F
  F9       1.0000 0.83610  0.11300  0.69530  Biso   1.000  F
  F10      1.0000 0.66390  0.88700  0.19530  Biso   1.000  F
  F11      1.0000 0.16390  0.61300  0.80470  Biso   1.000  F
  F12      1.0000 0.33610  0.38700  0.30470  Biso   1.000  F
  F13      1.0000 0.94810  0.24770  0.79220  Biso   1.000  F
  F14      1.0000 0.55190  0.75230  0.29220  Biso   1.000  F
  F15      1.0000 0.05190  0.74770  0.70780  Biso   1.000  F
  F16      1.0000 0.44810  0.25230  0.20780  Biso   1.000  F
