data_image0
_cell_length_a       6.592
_cell_length_b       9.43
_cell_length_c       15.185
_cell_angle_alpha    90
_cell_angle_beta     90
_cell_angle_gamma    90

_symmetry_space_group_name_H-M    "P 1"
_symmetry_int_tables_number       1

loop_
  _symmetry_equiv_pos_as_xyz
  'x, y, z'

loop_
  _atom_site_label
  _atom_site_occupancy
  _atom_site_fract_x
  _atom_site_fract_y
  _atom_site_fract_z
  _atom_site_thermal_displace_type
  _atom_site_B_iso_or_equiv
  _atom_site_type_symbol
  Cu1      1.0000 0.24089  0.27381  0.00219  Biso   1.000  Cu
  Cu2      1.0000 0.25911  0.72619  0.50219  Biso   1.000  Cu
  Cu3      1.0000 0.75911  0.77381  0.49781  Biso   1.000  Cu
  Cu4      1.0000 0.74089  0.22619  0.99781  Biso   1.000  Cu
  O1       1.0000 0.98397  0.27052  0.06137  Biso   1.000  O
  O2       1.0000 0.51603  0.72948  0.56137  Biso   1.000  O
  O3       1.0000 0.01603  0.77052  0.43863  Biso   1.000  O
  O4       1.0000 0.48397  0.22948  0.93863  Biso   1.000  O
  H1       1.0000 0.97420  0.32460  0.10600  Biso   1.000  H
  H2       1.0000 0.52580  0.67540  0.60600  Biso   1.000  H
  H3       1.0000 0.02580  0.82460  0.39400  Biso   1.000  H
  H4       1.0000 0.47420  0.17540  0.89400  Biso   1.000  H
  N1       1.0000 0.08970  0.31990  0.89122  Biso   1.000  N
  N2       1.0000 0.41030  0.68010  0.39122  Biso   1.000  N
  N3       1.0000 0.91030  0.81990  0.60878  Biso   1.000  N
  N4       1.0000 0.58970  0.18010  0.10878  Biso   1.000  N
  N5       1.0000 0.88280  0.30260  0.89022  Biso   1.000  N
  N6       1.0000 0.61720  0.69740  0.39022  Biso   1.000  N
  N7       1.0000 0.11720  0.80260  0.60978  Biso   1.000  N
  N8       1.0000 0.38280  0.19740  0.10978  Biso   1.000  N
  N9       1.0000 0.98310  0.35320  0.75745  Biso   1.000  N
  N10      1.0000 0.51690  0.64680  0.25745  Biso   1.000  N
  N11      1.0000 0.01690  0.85320  0.74255  Biso   1.000  N
  N12      1.0000 0.48310  0.14680  0.24255  Biso   1.000  N
  N13      1.0000 0.12120  0.50250  0.54192  Biso   1.000  N
  N14      1.0000 0.37880  0.49750  0.04192  Biso   1.000  N
  N15      1.0000 0.87880  0.00250  0.95808  Biso   1.000  N
  N16      1.0000 0.62120  0.99750  0.45808  Biso   1.000  N
  C1       1.0000 0.14600  0.35070  0.81112  Biso   1.000  C
  C2       1.0000 0.35400  0.64930  0.31112  Biso   1.000  C
  C3       1.0000 0.85400  0.85070  0.68888  Biso   1.000  C
  C4       1.0000 0.64600  0.14930  0.18888  Biso   1.000  C
  H5       1.0000 0.27880  0.36830  0.79360  Biso   1.000  H
  H6       1.0000 0.22120  0.63170  0.29360  Biso   1.000  H
  H7       1.0000 0.72120  0.86830  0.70640  Biso   1.000  H
  H8       1.0000 0.77880  0.13170  0.20640  Biso   1.000  H
  C5       1.0000 0.82230  0.32330  0.80988  Biso   1.000  C
  C6       1.0000 0.67770  0.67670  0.30988  Biso   1.000  C
  C7       1.0000 0.17770  0.82330  0.69012  Biso   1.000  C
  C8       1.0000 0.32230  0.17670  0.19012  Biso   1.000  C
  H9       1.0000 0.68820  0.31830  0.79100  Biso   1.000  H
  H10      1.0000 0.81180  0.68170  0.29100  Biso   1.000  H
  H11      1.0000 0.31180  0.81830  0.70900  Biso   1.000  H
  H12      1.0000 0.18820  0.18170  0.20900  Biso   1.000  H
  C9       1.0000 0.97710  0.38120  0.66417  Biso   1.000  C
  C10      1.0000 0.52290  0.61880  0.16417  Biso   1.000  C
  C11      1.0000 0.02290  0.88120  0.83583  Biso   1.000  C
  C12      1.0000 0.47710  0.11880  0.33583  Biso   1.000  C
  C13      1.0000 0.12100  0.46800  0.62751  Biso   1.000  C
  C14      1.0000 0.37900  0.53200  0.12751  Biso   1.000  C
  C15      1.0000 0.87900  0.96800  0.87249  Biso   1.000  C
  C16      1.0000 0.62100  0.03200  0.37249  Biso   1.000  C
  H13      1.0000 0.22250  0.50440  0.66350  Biso   1.000  H
  H14      1.0000 0.27750  0.49560  0.16350  Biso   1.000  H
  H15      1.0000 0.77750  0.00440  0.83650  Biso   1.000  H
  H16      1.0000 0.72250  0.99560  0.33650  Biso   1.000  H
  C17      1.0000 0.97610  0.44680  0.49190  Biso   1.000  C
  C18      1.0000 0.52390  0.55320  0.99190  Biso   1.000  C
  C19      1.0000 0.02390  0.94680  0.00810  Biso   1.000  C
  C20      1.0000 0.47610  0.05320  0.50810  Biso   1.000  C
  H17      1.0000 0.97370  0.46970  0.43230  Biso   1.000  H
  H18      1.0000 0.52630  0.53030  0.93230  Biso   1.000  H
  H19      1.0000 0.02630  0.96970  0.06770  Biso   1.000  H
  H20      1.0000 0.47370  0.03030  0.56770  Biso   1.000  H
  C21      1.0000 0.82950  0.35700  0.52409  Biso   1.000  C
  C22      1.0000 0.67050  0.64300  0.02409  Biso   1.000  C
  C23      1.0000 0.17050  0.85700  0.97591  Biso   1.000  C
  C24      1.0000 0.32950  0.14300  0.47591  Biso   1.000  C
  H21      1.0000 0.73200  0.31930  0.48650  Biso   1.000  H
  H22      1.0000 0.76800  0.68070  0.98650  Biso   1.000  H
  H23      1.0000 0.26800  0.81930  0.01350  Biso   1.000  H
  H24      1.0000 0.23200  0.18070  0.51350  Biso   1.000  H
  C25      1.0000 0.82770  0.32320  0.61257  Biso   1.000  C
  C26      1.0000 0.67230  0.67680  0.11257  Biso   1.000  C
  C27      1.0000 0.17230  0.82320  0.88743  Biso   1.000  C
  C28      1.0000 0.32770  0.17680  0.38743  Biso   1.000  C
  H25      1.0000 0.72940  0.26350  0.63620  Biso   1.000  H
  H26      1.0000 0.77060  0.73650  0.13620  Biso   1.000  H
  H27      1.0000 0.27060  0.76350  0.86380  Biso   1.000  H
  H28      1.0000 0.22940  0.23650  0.36380  Biso   1.000  H
  Cl1      1.0000 0.95030  0.40318  0.25595  Biso   1.000  Cl
  Cl2      1.0000 0.54970  0.59682  0.75595  Biso   1.000  Cl
  Cl3      1.0000 0.04970  0.90318  0.24405  Biso   1.000  Cl
  Cl4      1.0000 0.45030  0.09682  0.74405  Biso   1.000  Cl
