data_image0
_cell_length_a       10.928
_cell_length_b       10.0233
_cell_length_c       14.35
_cell_angle_alpha    90
_cell_angle_beta     90.926
_cell_angle_gamma    90

_symmetry_space_group_name_H-M    "P 1"
_symmetry_int_tables_number       1

loop_
  _symmetry_equiv_pos_as_xyz
  'x, y, z'

loop_
  _atom_site_label
  _atom_site_occupancy
  _atom_site_fract_x
  _atom_site_fract_y
  _atom_site_fract_z
  _atom_site_thermal_displace_type
  _atom_site_B_iso_or_equiv
  _atom_site_type_symbol
  Cu1      1.0000 0.05382  0.85753  0.20925  Biso   1.000  Cu
  Cu2      1.0000 0.44618  0.35753  0.29075  Biso   1.000  Cu
  Cu3      1.0000 0.94618  0.14247  0.79075  Biso   1.000  Cu
  Cu4      1.0000 0.55382  0.64247  0.70925  Biso   1.000  Cu
  Cu5      1.0000 0.50000  0.50000  0.50000  Biso   1.000  Cu
  Cu6      1.0000 0.00000  0.00000  0.00000  Biso   1.000  Cu
  N1       1.0000 0.96820  0.93060  0.32340  Biso   1.000  N
  N2       1.0000 0.53180  0.43060  0.17660  Biso   1.000  N
  N3       1.0000 0.03180  0.06940  0.67660  Biso   1.000  N
  N4       1.0000 0.46820  0.56940  0.82340  Biso   1.000  N
  N5       1.0000 0.73930  0.81870  0.48760  Biso   1.000  N
  N6       1.0000 0.76070  0.31870  0.01240  Biso   1.000  N
  N7       1.0000 0.26070  0.18130  0.51240  Biso   1.000  N
  N8       1.0000 0.23930  0.68130  0.98760  Biso   1.000  N
  N9       1.0000 0.60540  0.66160  0.50890  Biso   1.000  N
  N10      1.0000 0.89460  0.16160  0.99110  Biso   1.000  N
  N11      1.0000 0.39460  0.33840  0.49110  Biso   1.000  N
  N12      1.0000 0.10540  0.83840  0.00890  Biso   1.000  N
  N13      1.0000 0.63230  0.72000  0.59390  Biso   1.000  N
  N14      1.0000 0.86770  0.22000  0.90610  Biso   1.000  N
  N15      1.0000 0.36770  0.28000  0.40610  Biso   1.000  N
  N16      1.0000 0.13230  0.78000  0.09390  Biso   1.000  N
  C1       1.0000 0.71140  0.81180  0.57880  Biso   1.000  C
  C2       1.0000 0.78860  0.31180  0.92120  Biso   1.000  C
  C3       1.0000 0.28860  0.18820  0.42120  Biso   1.000  C
  C4       1.0000 0.21140  0.68820  0.07880  Biso   1.000  C
  H1       1.0000 0.74510  0.86660  0.62480  Biso   1.000  H
  H2       1.0000 0.75490  0.36660  0.87520  Biso   1.000  H
  H3       1.0000 0.25490  0.13340  0.37520  Biso   1.000  H
  H4       1.0000 0.24510  0.63340  0.12480  Biso   1.000  H
  C5       1.0000 0.66950  0.72250  0.44740  Biso   1.000  C
  C6       1.0000 0.83050  0.22250  0.05260  Biso   1.000  C
  C7       1.0000 0.33050  0.27750  0.55260  Biso   1.000  C
  C8       1.0000 0.16950  0.77750  0.94740  Biso   1.000  C
  H5       1.0000 0.66790  0.70310  0.38400  Biso   1.000  H
  H6       1.0000 0.83210  0.20310  0.11600  Biso   1.000  H
  H7       1.0000 0.33210  0.29690  0.61600  Biso   1.000  H
  H8       1.0000 0.16790  0.79690  0.88400  Biso   1.000  H
  C9       1.0000 0.82340  0.90440  0.44310  Biso   1.000  C
  C10      1.0000 0.67660  0.40440  0.05690  Biso   1.000  C
  C11      1.0000 0.17660  0.09560  0.55690  Biso   1.000  C
  C12      1.0000 0.32340  0.59560  0.94310  Biso   1.000  C
  C13      1.0000 0.89340  0.85330  0.37210  Biso   1.000  C
  C14      1.0000 0.60660  0.35330  0.12790  Biso   1.000  C
  C15      1.0000 0.10660  0.14670  0.62790  Biso   1.000  C
  C16      1.0000 0.39340  0.64670  0.87210  Biso   1.000  C
  H9       1.0000 0.88820  0.76290  0.35800  Biso   1.000  H
  H10      1.0000 0.61180  0.26290  0.14200  Biso   1.000  H
  H11      1.0000 0.11180  0.23710  0.64200  Biso   1.000  H
  H12      1.0000 0.38820  0.73710  0.85800  Biso   1.000  H
  C17      1.0000 0.97910  0.05920  0.34650  Biso   1.000  C
  C18      1.0000 0.52090  0.55920  0.15350  Biso   1.000  C
  C19      1.0000 0.02090  0.94080  0.65350  Biso   1.000  C
  C20      1.0000 0.47910  0.44080  0.84650  Biso   1.000  C
  H13      1.0000 0.03120  0.11310  0.31240  Biso   1.000  H
  H14      1.0000 0.46880  0.61310  0.18760  Biso   1.000  H
  H15      1.0000 0.96880  0.88690  0.68760  Biso   1.000  H
  H16      1.0000 0.53120  0.38690  0.81240  Biso   1.000  H
  C21      1.0000 0.91490  0.11520  0.42010  Biso   1.000  C
  C22      1.0000 0.58510  0.61520  0.07990  Biso   1.000  C
  C23      1.0000 0.08510  0.88480  0.57990  Biso   1.000  C
  C24      1.0000 0.41490  0.38480  0.92010  Biso   1.000  C
  H17      1.0000 0.92590  0.20460  0.43560  Biso   1.000  H
  H18      1.0000 0.57410  0.70460  0.06440  Biso   1.000  H
  H19      1.0000 0.07410  0.79540  0.56440  Biso   1.000  H
  H20      1.0000 0.42590  0.29540  0.93560  Biso   1.000  H
  C25      1.0000 0.83540  0.03760  0.46960  Biso   1.000  C
  C26      1.0000 0.66460  0.53760  0.03040  Biso   1.000  C
  C27      1.0000 0.16460  0.96240  0.53040  Biso   1.000  C
  C28      1.0000 0.33540  0.46240  0.96960  Biso   1.000  C
  H21      1.0000 0.79120  0.07240  0.51880  Biso   1.000  H
  H22      1.0000 0.70880  0.57240  0.98120  Biso   1.000  H
  H23      1.0000 0.20880  0.92760  0.48120  Biso   1.000  H
  H24      1.0000 0.29120  0.42760  0.01880  Biso   1.000  H
  O1       1.0000 0.49460  0.51010  0.36470  Biso   1.000  O
  O2       1.0000 0.00540  0.01010  0.13530  Biso   1.000  O
  O3       1.0000 0.50540  0.48990  0.63530  Biso   1.000  O
  O4       1.0000 0.99460  0.98990  0.86470  Biso   1.000  O
  H25      1.0000 0.42800  0.55580  0.35480  Biso   1.000  H
  H26      1.0000 0.07200  0.05580  0.14520  Biso   1.000  H
  H27      1.0000 0.57200  0.44420  0.64520  Biso   1.000  H
  H28      1.0000 0.92800  0.94420  0.85480  Biso   1.000  H
  O5       1.0000 0.09490  0.69280  0.28110  Biso   1.000  O
  O6       1.0000 0.40510  0.19280  0.21890  Biso   1.000  O
  O7       1.0000 0.90510  0.30720  0.71890  Biso   1.000  O
  O8       1.0000 0.59490  0.80720  0.78110  Biso   1.000  O
  H29      1.0000 0.17570  0.69570  0.29470  Biso   1.000  H
  H30      1.0000 0.32430  0.19570  0.20530  Biso   1.000  H
  H31      1.0000 0.82430  0.30430  0.70530  Biso   1.000  H
  H32      1.0000 0.67570  0.80430  0.79470  Biso   1.000  H
  H33      1.0000 0.07610  0.62400  0.28560  Biso   1.000  H
  H34      1.0000 0.42390  0.12400  0.21440  Biso   1.000  H
  H35      1.0000 0.92390  0.37600  0.71440  Biso   1.000  H
  H36      1.0000 0.57610  0.87600  0.78560  Biso   1.000  H
  O9       1.0000 0.86220  0.73810  0.16640  Biso   1.000  O
  O10      1.0000 0.63780  0.23810  0.33360  Biso   1.000  O
  O11      1.0000 0.13780  0.26190  0.83360  Biso   1.000  O
  O12      1.0000 0.36220  0.76190  0.66640  Biso   1.000  O
  H37      1.0000 0.83160  0.81560  0.17270  Biso   1.000  H
  H38      1.0000 0.66840  0.31560  0.32730  Biso   1.000  H
  H39      1.0000 0.16840  0.18440  0.82730  Biso   1.000  H
  H40      1.0000 0.33160  0.68440  0.67270  Biso   1.000  H
  H41      1.0000 0.82880  0.67490  0.19620  Biso   1.000  H
  H42      1.0000 0.67120  0.17490  0.30380  Biso   1.000  H
  H43      1.0000 0.17120  0.32510  0.80380  Biso   1.000  H
  H44      1.0000 0.32880  0.82510  0.69620  Biso   1.000  H
  O13      1.0000 0.38820  0.95280  0.03350  Biso   1.000  O
  O14      1.0000 0.11180  0.45280  0.46650  Biso   1.000  O
  O15      1.0000 0.61180  0.04720  0.96650  Biso   1.000  O
  O16      1.0000 0.88820  0.54720  0.53350  Biso   1.000  O
  H45      1.0000 0.37620  0.91780  0.08640  Biso   1.000  H
  H46      1.0000 0.12380  0.41780  0.41360  Biso   1.000  H
  H47      1.0000 0.62380  0.08220  0.91360  Biso   1.000  H
  H48      1.0000 0.87620  0.58220  0.58640  Biso   1.000  H
  H49      1.0000 0.38800  0.03760  0.03080  Biso   1.000  H
  H50      1.0000 0.11200  0.53760  0.46920  Biso   1.000  H
  H51      1.0000 0.61200  0.96240  0.96920  Biso   1.000  H
  H52      1.0000 0.88800  0.46240  0.53080  Biso   1.000  H
  O17      1.0000 0.80600  0.51240  0.27810  Biso   1.000  O
  O18      1.0000 0.69400  0.01240  0.22190  Biso   1.000  O
  O19      1.0000 0.19400  0.48760  0.72190  Biso   1.000  O
  O20      1.0000 0.30600  0.98760  0.77810  Biso   1.000  O
  H53      1.0000 0.85570  0.51450  0.32430  Biso   1.000  H
  H54      1.0000 0.64430  0.01450  0.17570  Biso   1.000  H
  H55      1.0000 0.14430  0.48550  0.67570  Biso   1.000  H
  H56      1.0000 0.35570  0.98550  0.82430  Biso   1.000  H
  H57      1.0000 0.82060  0.45570  0.23570  Biso   1.000  H
  H58      1.0000 0.67940  0.95570  0.26430  Biso   1.000  H
  H59      1.0000 0.17940  0.54430  0.76430  Biso   1.000  H
  H60      1.0000 0.32060  0.04430  0.73570  Biso   1.000  H
  O21      1.0000 0.94860  0.55820  0.02500  Biso   1.000  O
  O22      1.0000 0.55140  0.05820  0.47500  Biso   1.000  O
  O23      1.0000 0.05140  0.44180  0.97500  Biso   1.000  O
  O24      1.0000 0.44860  0.94180  0.52500  Biso   1.000  O
  O25      1.0000 0.69720  0.35860  0.49870  Biso   1.000  O
  O26      1.0000 0.80280  0.85860  0.00130  Biso   1.000  O
  O27      1.0000 0.30280  0.64140  0.50130  Biso   1.000  O
  O28      1.0000 0.19720  0.14140  0.99870  Biso   1.000  O
  H61      1.0000 0.76630  0.38720  0.48020  Biso   1.000  H
  H62      1.0000 0.73370  0.88720  0.01980  Biso   1.000  H
  H63      1.0000 0.23370  0.61280  0.51980  Biso   1.000  H
  H64      1.0000 0.26630  0.11280  0.98020  Biso   1.000  H
  H65      1.0000 0.69760  0.30330  0.54360  Biso   1.000  H
  H66      1.0000 0.80240  0.80330  0.95640  Biso   1.000  H
  H67      1.0000 0.30240  0.69670  0.45640  Biso   1.000  H
  H68      1.0000 0.19760  0.19670  0.04360  Biso   1.000  H
  S1       1.0000 0.35808  0.86882  0.29017  Biso   1.000  S
  S2       1.0000 0.14192  0.36882  0.20983  Biso   1.000  S
  S3       1.0000 0.64192  0.13118  0.70983  Biso   1.000  S
  S4       1.0000 0.85808  0.63118  0.79017  Biso   1.000  S
  O29      1.0000 0.24280  0.94000  0.27580  Biso   1.000  O
  O30      1.0000 0.25720  0.44000  0.22420  Biso   1.000  O
  O31      1.0000 0.75720  0.06000  0.72420  Biso   1.000  O
  O32      1.0000 0.74280  0.56000  0.77580  Biso   1.000  O
  O33      1.0000 0.44990  0.95460  0.33500  Biso   1.000  O
  O34      1.0000 0.05010  0.45460  0.16500  Biso   1.000  O
  O35      1.0000 0.55010  0.04540  0.66500  Biso   1.000  O
  O36      1.0000 0.94990  0.54540  0.83500  Biso   1.000  O
  O37      1.0000 0.40890  0.84270  0.19250  Biso   1.000  O
  O38      1.0000 0.09110  0.34270  0.30750  Biso   1.000  O
  O39      1.0000 0.59110  0.15730  0.80750  Biso   1.000  O
  O40      1.0000 0.90890  0.65730  0.69250  Biso   1.000  O
  O41      1.0000 0.34310  0.73960  0.33170  Biso   1.000  O
  O42      1.0000 0.15690  0.23960  0.16830  Biso   1.000  O
  O43      1.0000 0.65690  0.26040  0.66830  Biso   1.000  O
  O44      1.0000 0.84310  0.76040  0.83170  Biso   1.000  O
  O45      1.0000 0.04420  0.42260  0.26270  Biso   1.000  O
  O46      1.0000 0.45580  0.92260  0.23730  Biso   1.000  O
  O47      1.0000 0.95580  0.57740  0.73730  Biso   1.000  O
  O48      1.0000 0.54420  0.07740  0.76270  Biso   1.000  O
  O49      1.0000 0.16230  0.22480  0.22250  Biso   1.000  O
  O50      1.0000 0.33770  0.72480  0.27750  Biso   1.000  O
  O51      1.0000 0.83770  0.77520  0.77750  Biso   1.000  O
  O52      1.0000 0.66230  0.27520  0.72250  Biso   1.000  O
  O53      1.0000 0.10950  0.38260  0.10620  Biso   1.000  O
  O54      1.0000 0.39050  0.88260  0.39380  Biso   1.000  O
  O55      1.0000 0.89050  0.61740  0.89380  Biso   1.000  O
  O56      1.0000 0.60950  0.11740  0.60620  Biso   1.000  O
