data_image0
_cell_length_a       18.924
_cell_length_b       18.028
_cell_length_c       18.484
_cell_angle_alpha    90
_cell_angle_beta     109.975
_cell_angle_gamma    90

_symmetry_space_group_name_H-M    "P 1"
_symmetry_int_tables_number       1

loop_
  _symmetry_equiv_pos_as_xyz
  'x, y, z'

loop_
  _atom_site_label
  _atom_site_occupancy
  _atom_site_fract_x
  _atom_site_fract_y
  _atom_site_fract_z
  _atom_site_thermal_displace_type
  _atom_site_B_iso_or_equiv
  _atom_site_type_symbol
  Cu1      1.0000 0.42242  0.57470  0.76229  Biso   1.000  Cu
  Cu2      1.0000 0.57758  0.07470  0.73771  Biso   1.000  Cu
  Cu3      1.0000 0.57758  0.42530  0.23771  Biso   1.000  Cu
  Cu4      1.0000 0.42242  0.92530  0.26229  Biso   1.000  Cu
  Cu5      1.0000 0.31203  0.45480  0.63327  Biso   1.000  Cu
  Cu6      1.0000 0.68797  0.95480  0.86673  Biso   1.000  Cu
  Cu7      1.0000 0.68797  0.54520  0.36673  Biso   1.000  Cu
  Cu8      1.0000 0.31203  0.04520  0.13327  Biso   1.000  Cu
  Cu9      1.0000 0.77156  0.59453  0.56234  Biso   1.000  Cu
  Cu10     1.0000 0.22844  0.09453  0.93766  Biso   1.000  Cu
  Cu11     1.0000 0.22844  0.40547  0.43766  Biso   1.000  Cu
  Cu12     1.0000 0.77156  0.90547  0.06234  Biso   1.000  Cu
  Cu13     1.0000 0.91059  0.60885  0.72425  Biso   1.000  Cu
  Cu14     1.0000 0.08941  0.10885  0.77575  Biso   1.000  Cu
  Cu15     1.0000 0.08941  0.39115  0.27575  Biso   1.000  Cu
  Cu16     1.0000 0.91059  0.89115  0.22425  Biso   1.000  Cu
  Si1      1.0000 0.79810  0.44530  0.09240  Biso   1.000  Si
  Si2      1.0000 0.20190  0.94530  0.40760  Biso   1.000  Si
  Si3      1.0000 0.20190  0.55470  0.90760  Biso   1.000  Si
  Si4      1.0000 0.79810  0.05470  0.59240  Biso   1.000  Si
  F1       1.0000 0.74840  0.47730  0.13990  Biso   1.000  F
  F2       1.0000 0.25160  0.97730  0.36010  Biso   1.000  F
  F3       1.0000 0.25160  0.52270  0.86010  Biso   1.000  F
  F4       1.0000 0.74840  0.02270  0.63990  Biso   1.000  F
  F5       1.0000 0.81860  0.36630  0.13420  Biso   1.000  F
  F6       1.0000 0.18140  0.86630  0.36580  Biso   1.000  F
  F7       1.0000 0.18140  0.63370  0.86580  Biso   1.000  F
  F8       1.0000 0.81860  0.13370  0.63420  Biso   1.000  F
  F9       1.0000 0.87540  0.48370  0.14250  Biso   1.000  F
  F10      1.0000 0.12460  0.98370  0.35750  Biso   1.000  F
  F11      1.0000 0.12460  0.51630  0.85750  Biso   1.000  F
  F12      1.0000 0.87540  0.01630  0.64250  Biso   1.000  F
  F13      1.0000 0.83820  0.42060  0.02910  Biso   1.000  F
  F14      1.0000 0.16180  0.92060  0.47090  Biso   1.000  F
  F15      1.0000 0.16180  0.57940  0.97090  Biso   1.000  F
  F16      1.0000 0.83820  0.07940  0.52910  Biso   1.000  F
  F17      1.0000 0.77840  0.52510  0.04170  Biso   1.000  F
  F18      1.0000 0.22160  0.02510  0.45830  Biso   1.000  F
  F19      1.0000 0.22160  0.47490  0.95830  Biso   1.000  F
  F20      1.0000 0.77840  0.97490  0.54170  Biso   1.000  F
  F21      1.0000 0.72860  0.39800  0.03130  Biso   1.000  F
  F22      1.0000 0.27140  0.89800  0.46870  Biso   1.000  F
  F23      1.0000 0.27140  0.60200  0.96870  Biso   1.000  F
  F24      1.0000 0.72860  0.10200  0.53130  Biso   1.000  F
  Si5      1.0000 0.36932  0.27448  0.78653  Biso   1.000  Si
  Si6      1.0000 0.63068  0.77448  0.71347  Biso   1.000  Si
  Si7      1.0000 0.63068  0.72552  0.21347  Biso   1.000  Si
  Si8      1.0000 0.36932  0.22552  0.28653  Biso   1.000  Si
  F25      1.0000 0.37270  0.23430  0.70700  Biso   1.000  F
  F26      1.0000 0.62730  0.73430  0.79300  Biso   1.000  F
  F27      1.0000 0.62730  0.76570  0.29300  Biso   1.000  F
  F28      1.0000 0.37270  0.26570  0.20700  Biso   1.000  F
  F29      1.0000 0.40280  0.19670  0.83600  Biso   1.000  F
  F30      1.0000 0.59720  0.69670  0.66400  Biso   1.000  F
  F31      1.0000 0.59720  0.80330  0.16400  Biso   1.000  F
  F32      1.0000 0.40280  0.30330  0.33600  Biso   1.000  F
  F33      1.0000 0.45720  0.30530  0.80390  Biso   1.000  F
  F34      1.0000 0.54280  0.80530  0.69610  Biso   1.000  F
  F35      1.0000 0.54280  0.69470  0.19610  Biso   1.000  F
  F36      1.0000 0.45720  0.19470  0.30390  Biso   1.000  F
  F37      1.0000 0.36990  0.31320  0.86740  Biso   1.000  F
  F38      1.0000 0.63010  0.81320  0.63260  Biso   1.000  F
  F39      1.0000 0.63010  0.68680  0.13260  Biso   1.000  F
  F40      1.0000 0.36990  0.18680  0.36740  Biso   1.000  F
  F41      1.0000 0.28210  0.24420  0.76860  Biso   1.000  F
  F42      1.0000 0.71790  0.74420  0.73140  Biso   1.000  F
  F43      1.0000 0.71790  0.75580  0.23140  Biso   1.000  F
  F44      1.0000 0.28210  0.25580  0.26860  Biso   1.000  F
  F45      1.0000 0.33830  0.35430  0.73910  Biso   1.000  F
  F46      1.0000 0.66170  0.85430  0.76090  Biso   1.000  F
  F47      1.0000 0.66170  0.64570  0.26090  Biso   1.000  F
  F48      1.0000 0.33830  0.14570  0.23910  Biso   1.000  F
  Si9      1.0000 0.00000  0.50000  0.50000  Biso   1.000  Si
  Si10     1.0000 0.00000  0.00000  0.00000  Biso   1.000  Si
  F49      1.0000 0.08060  0.51770  0.48630  Biso   1.000  F
  F50      1.0000 0.91940  0.01770  0.01370  Biso   1.000  F
  F51      1.0000 0.91940  0.48230  0.51370  Biso   1.000  F
  F52      1.0000 0.08060  0.98230  0.98630  Biso   1.000  F
  F53      1.0000 0.99380  0.41850  0.45800  Biso   1.000  F
  F54      1.0000 0.00620  0.91850  0.04200  Biso   1.000  F
  F55      1.0000 0.00620  0.58150  0.54200  Biso   1.000  F
  F56      1.0000 0.99380  0.08150  0.95800  Biso   1.000  F
  F57      1.0000 0.95170  0.53860  0.41490  Biso   1.000  F
  F58      1.0000 0.04830  0.03860  0.08510  Biso   1.000  F
  F59      1.0000 0.04830  0.46140  0.58510  Biso   1.000  F
  F60      1.0000 0.95170  0.96140  0.91490  Biso   1.000  F
  Si11     1.0000 0.50000  0.00000  0.00000  Biso   1.000  Si
  Si12     1.0000 0.50000  0.50000  0.50000  Biso   1.000  Si
  F61      1.0000 0.50930  0.01100  0.09400  Biso   1.000  F
  F62      1.0000 0.49070  0.51100  0.40600  Biso   1.000  F
  F63      1.0000 0.49070  0.98900  0.90600  Biso   1.000  F
  F64      1.0000 0.50930  0.48900  0.59400  Biso   1.000  F
  F65      1.0000 0.50570  0.90960  0.01250  Biso   1.000  F
  F66      1.0000 0.49430  0.40960  0.48750  Biso   1.000  F
  F67      1.0000 0.49430  0.09040  0.98750  Biso   1.000  F
  F68      1.0000 0.50570  0.59040  0.51250  Biso   1.000  F
  F69      1.0000 0.59360  0.00560  0.02240  Biso   1.000  F
  F70      1.0000 0.40640  0.50560  0.47760  Biso   1.000  F
  F71      1.0000 0.40640  0.99440  0.97760  Biso   1.000  F
  F72      1.0000 0.59360  0.49440  0.52240  Biso   1.000  F
  O1       1.0000 0.40380  0.50590  0.67910  Biso   1.000  O
  O2       1.0000 0.59620  0.00590  0.82090  Biso   1.000  O
  O3       1.0000 0.59620  0.49410  0.32090  Biso   1.000  O
  O4       1.0000 0.40380  0.99410  0.17910  Biso   1.000  O
  H1       1.0000 0.44250  0.49690  0.65990  Biso   1.000  H
  H2       1.0000 0.55750  0.99690  0.84010  Biso   1.000  H
  H3       1.0000 0.55750  0.50310  0.34010  Biso   1.000  H
  H4       1.0000 0.44250  0.00310  0.15990  Biso   1.000  H
  O5       1.0000 0.26810  0.51520  0.50620  Biso   1.000  O
  O6       1.0000 0.73190  0.01520  0.99380  Biso   1.000  O
  O7       1.0000 0.73190  0.48480  0.49380  Biso   1.000  O
  O8       1.0000 0.26810  0.98480  0.00620  Biso   1.000  O
  H5       1.0000 0.31120  0.51760  0.54110  Biso   1.000  H
  H6       1.0000 0.68880  0.01760  0.95890  Biso   1.000  H
  H7       1.0000 0.68880  0.48240  0.45890  Biso   1.000  H
  H8       1.0000 0.31120  0.98240  0.04110  Biso   1.000  H
  H9       1.0000 0.23930  0.55280  0.49640  Biso   1.000  H
  H10      1.0000 0.76070  0.05280  0.00360  Biso   1.000  H
  H11      1.0000 0.76070  0.44720  0.50360  Biso   1.000  H
  H12      1.0000 0.23930  0.94720  0.99640  Biso   1.000  H
  O9       1.0000 0.87040  0.56560  0.62530  Biso   1.000  O
  O10      1.0000 0.12960  0.06560  0.87470  Biso   1.000  O
  O11      1.0000 0.12960  0.43440  0.37470  Biso   1.000  O
  O12      1.0000 0.87040  0.93440  0.12530  Biso   1.000  O
  H13      1.0000 0.89790  0.53150  0.60800  Biso   1.000  H
  H14      1.0000 0.10210  0.03150  0.89200  Biso   1.000  H
  H15      1.0000 0.10210  0.46850  0.39200  Biso   1.000  H
  H16      1.0000 0.89790  0.96850  0.10800  Biso   1.000  H
  O13      1.0000 0.96400  0.50460  0.78050  Biso   1.000  O
  O14      1.0000 0.03600  0.00460  0.71950  Biso   1.000  O
  O15      1.0000 0.03600  0.49540  0.21950  Biso   1.000  O
  O16      1.0000 0.96400  0.99540  0.28050  Biso   1.000  O
  H17      1.0000 0.00980  0.49590  0.78650  Biso   1.000  H
  H18      1.0000 0.99020  0.99590  0.71350  Biso   1.000  H
  H19      1.0000 0.99020  0.50410  0.21350  Biso   1.000  H
  H20      1.0000 0.00980  0.00410  0.28650  Biso   1.000  H
  H21      1.0000 0.93870  0.47320  0.79580  Biso   1.000  H
  H22      1.0000 0.06130  0.97320  0.70420  Biso   1.000  H
  H23      1.0000 0.06130  0.52680  0.20420  Biso   1.000  H
  H24      1.0000 0.93870  0.02680  0.29580  Biso   1.000  H
  N1       1.0000 0.53240  0.54610  0.80250  Biso   1.000  N
  N2       1.0000 0.46760  0.04610  0.69750  Biso   1.000  N
  N3       1.0000 0.46760  0.45390  0.19750  Biso   1.000  N
  N4       1.0000 0.53240  0.95390  0.30250  Biso   1.000  N
  N5       1.0000 0.70370  0.55980  0.75140  Biso   1.000  N
  N6       1.0000 0.29630  0.05980  0.74860  Biso   1.000  N
  N7       1.0000 0.29630  0.44020  0.24860  Biso   1.000  N
  N8       1.0000 0.70370  0.94020  0.25140  Biso   1.000  N
  N9       1.0000 0.74640  0.58050  0.65870  Biso   1.000  N
  N10      1.0000 0.25360  0.08050  0.84130  Biso   1.000  N
  N11      1.0000 0.25360  0.41950  0.34130  Biso   1.000  N
  N12      1.0000 0.74640  0.91950  0.15870  Biso   1.000  N
  N13      1.0000 0.80460  0.58830  0.72760  Biso   1.000  N
  N14      1.0000 0.19540  0.08830  0.77240  Biso   1.000  N
  N15      1.0000 0.19540  0.41170  0.27240  Biso   1.000  N
  N16      1.0000 0.80460  0.91170  0.22760  Biso   1.000  N
  N17      1.0000 0.21810  0.39360  0.59640  Biso   1.000  N
  N18      1.0000 0.78190  0.89360  0.90360  Biso   1.000  N
  N19      1.0000 0.78190  0.60640  0.40360  Biso   1.000  N
  N20      1.0000 0.21810  0.10640  0.09640  Biso   1.000  N
  N21      1.0000 0.18840  0.37380  0.52010  Biso   1.000  N
  N22      1.0000 0.81160  0.87380  0.97990  Biso   1.000  N
  N23      1.0000 0.81160  0.62620  0.47990  Biso   1.000  N
  N24      1.0000 0.18840  0.12620  0.02010  Biso   1.000  N
  N25      1.0000 0.12890  0.31370  0.58310  Biso   1.000  N
  N26      1.0000 0.87110  0.81370  0.91690  Biso   1.000  N
  N27      1.0000 0.87110  0.68630  0.41690  Biso   1.000  N
  N28      1.0000 0.12890  0.18630  0.08310  Biso   1.000  N
  N29      1.0000 0.05780  0.16680  0.67660  Biso   1.000  N
  N30      1.0000 0.94220  0.66680  0.82340  Biso   1.000  N
  N31      1.0000 0.94220  0.83320  0.32340  Biso   1.000  N
  N32      1.0000 0.05780  0.33320  0.17660  Biso   1.000  N
  N33      1.0000 0.64100  0.88290  0.91950  Biso   1.000  N
  N34      1.0000 0.35900  0.38290  0.58050  Biso   1.000  N
  N35      1.0000 0.35900  0.11710  0.08050  Biso   1.000  N
  N36      1.0000 0.64100  0.61710  0.41950  Biso   1.000  N
  N37      1.0000 0.67100  0.86520  0.99690  Biso   1.000  N
  N38      1.0000 0.32900  0.36520  0.50310  Biso   1.000  N
  N39      1.0000 0.32900  0.13480  0.00310  Biso   1.000  N
  N40      1.0000 0.67100  0.63480  0.49690  Biso   1.000  N
  N41      1.0000 0.57240  0.79560  0.94280  Biso   1.000  N
  N42      1.0000 0.42760  0.29560  0.55720  Biso   1.000  N
  N43      1.0000 0.42760  0.20440  0.05720  Biso   1.000  N
  N44      1.0000 0.57240  0.70440  0.44280  Biso   1.000  N
  N45      1.0000 0.44060  0.64560  0.85330  Biso   1.000  N
  N46      1.0000 0.55940  0.14560  0.64670  Biso   1.000  N
  N47      1.0000 0.55940  0.35440  0.14670  Biso   1.000  N
  N48      1.0000 0.44060  0.85440  0.35330  Biso   1.000  N
  N49      1.0000 0.00090  0.65610  0.70300  Biso   1.000  N
  N50      1.0000 0.99910  0.15610  0.79700  Biso   1.000  N
  N51      1.0000 0.99910  0.34390  0.29700  Biso   1.000  N
  N52      1.0000 0.00090  0.84390  0.20300  Biso   1.000  N
  N53      1.0000 0.18950  0.61610  0.69810  Biso   1.000  N
  N54      1.0000 0.81050  0.11610  0.80190  Biso   1.000  N
  N55      1.0000 0.81050  0.38390  0.30190  Biso   1.000  N
  N56      1.0000 0.18950  0.88390  0.19810  Biso   1.000  N
  N57      1.0000 0.26490  0.53250  0.68070  Biso   1.000  N
  N58      1.0000 0.73510  0.03250  0.81930  Biso   1.000  N
  N59      1.0000 0.73510  0.46750  0.31930  Biso   1.000  N
  N60      1.0000 0.26490  0.96750  0.18070  Biso   1.000  N
  N61      1.0000 0.30820  0.58890  0.72440  Biso   1.000  N
  N62      1.0000 0.69180  0.08890  0.77560  Biso   1.000  N
  N63      1.0000 0.69180  0.41110  0.27560  Biso   1.000  N
  N64      1.0000 0.30820  0.91110  0.22440  Biso   1.000  N
  C1       1.0000 0.55960  0.51050  0.86940  Biso   1.000  C
  C2       1.0000 0.44040  0.01050  0.63060  Biso   1.000  C
  C3       1.0000 0.44040  0.48950  0.13060  Biso   1.000  C
  C4       1.0000 0.55960  0.98950  0.36940  Biso   1.000  C
  H25      1.0000 0.52690  0.49880  0.89560  Biso   1.000  H
  H26      1.0000 0.47310  0.99880  0.60440  Biso   1.000  H
  H27      1.0000 0.47310  0.50120  0.10440  Biso   1.000  H
  H28      1.0000 0.52690  0.00120  0.39560  Biso   1.000  H
  C5       1.0000 0.63410  0.49010  0.90170  Biso   1.000  C
  C6       1.0000 0.36590  0.99010  0.59830  Biso   1.000  C
  C7       1.0000 0.36590  0.50990  0.09830  Biso   1.000  C
  C8       1.0000 0.63410  0.00990  0.40170  Biso   1.000  C
  H29      1.0000 0.65150  0.46730  0.94970  Biso   1.000  H
  H30      1.0000 0.34850  0.96730  0.55030  Biso   1.000  H
  H31      1.0000 0.34850  0.53270  0.05030  Biso   1.000  H
  H32      1.0000 0.65150  0.03270  0.44970  Biso   1.000  H
  C9       1.0000 0.68150  0.50380  0.86260  Biso   1.000  C
  C10      1.0000 0.31850  0.00380  0.63740  Biso   1.000  C
  C11      1.0000 0.31850  0.49620  0.13740  Biso   1.000  C
  C12      1.0000 0.68150  0.99620  0.36260  Biso   1.000  C
  H33      1.0000 0.73150  0.48870  0.88200  Biso   1.000  H
  H34      1.0000 0.26850  0.98870  0.61800  Biso   1.000  H
  H35      1.0000 0.26850  0.51130  0.11800  Biso   1.000  H
  H36      1.0000 0.73150  0.01130  0.38200  Biso   1.000  H
  C13      1.0000 0.65410  0.54060  0.79350  Biso   1.000  C
  C14      1.0000 0.34590  0.04060  0.70650  Biso   1.000  C
  C15      1.0000 0.34590  0.45940  0.20650  Biso   1.000  C
  C16      1.0000 0.65410  0.95940  0.29350  Biso   1.000  C
  C17      1.0000 0.57970  0.56230  0.76500  Biso   1.000  C
  C18      1.0000 0.42030  0.06230  0.73500  Biso   1.000  C
  C19      1.0000 0.42030  0.43770  0.23500  Biso   1.000  C
  C20      1.0000 0.57970  0.93770  0.26500  Biso   1.000  C
  H37      1.0000 0.56220  0.58860  0.71890  Biso   1.000  H
  H38      1.0000 0.43780  0.08860  0.78110  Biso   1.000  H
  H39      1.0000 0.43780  0.41140  0.28110  Biso   1.000  H
  H40      1.0000 0.56220  0.91140  0.21890  Biso   1.000  H
  C21      1.0000 0.68610  0.56420  0.67320  Biso   1.000  C
  C22      1.0000 0.31390  0.06420  0.82680  Biso   1.000  C
  C23      1.0000 0.31390  0.43580  0.32680  Biso   1.000  C
  C24      1.0000 0.68610  0.93580  0.17320  Biso   1.000  C
  H41      1.0000 0.63860  0.55680  0.63670  Biso   1.000  H
  H42      1.0000 0.36140  0.05680  0.86330  Biso   1.000  H
  H43      1.0000 0.36140  0.44320  0.36330  Biso   1.000  H
  H44      1.0000 0.63860  0.94320  0.13670  Biso   1.000  H
  C25      1.0000 0.77780  0.57560  0.78250  Biso   1.000  C
  C26      1.0000 0.22220  0.07560  0.71750  Biso   1.000  C
  C27      1.0000 0.22220  0.42440  0.21750  Biso   1.000  C
  C28      1.0000 0.77780  0.92440  0.28250  Biso   1.000  C
  H45      1.0000 0.80520  0.57720  0.83490  Biso   1.000  H
  H46      1.0000 0.19480  0.07720  0.66510  Biso   1.000  H
  H47      1.0000 0.19480  0.42280  0.16510  Biso   1.000  H
  H48      1.0000 0.80520  0.92280  0.33490  Biso   1.000  H
  C29      1.0000 0.18100  0.35700  0.63230  Biso   1.000  C
  C30      1.0000 0.81900  0.85700  0.86770  Biso   1.000  C
  C31      1.0000 0.81900  0.64300  0.36770  Biso   1.000  C
  C32      1.0000 0.18100  0.14300  0.13230  Biso   1.000  C
  H49      1.0000 0.18940  0.36040  0.68480  Biso   1.000  H
  H50      1.0000 0.81060  0.86040  0.81520  Biso   1.000  H
  H51      1.0000 0.81060  0.63960  0.31520  Biso   1.000  H
  H52      1.0000 0.18940  0.13960  0.18480  Biso   1.000  H
  C33      1.0000 0.13540  0.32550  0.51360  Biso   1.000  C
  C34      1.0000 0.86460  0.82550  0.98640  Biso   1.000  C
  C35      1.0000 0.86460  0.67450  0.48640  Biso   1.000  C
  C36      1.0000 0.13540  0.17450  0.01360  Biso   1.000  C
  H53      1.0000 0.10650  0.30260  0.46790  Biso   1.000  H
  H54      1.0000 0.89350  0.80260  0.03210  Biso   1.000  H
  H55      1.0000 0.89350  0.69740  0.53210  Biso   1.000  H
  H56      1.0000 0.10650  0.19740  0.96790  Biso   1.000  H
  C37      1.0000 0.07810  0.26220  0.59800  Biso   1.000  C
  C38      1.0000 0.92190  0.76220  0.90200  Biso   1.000  C
  C39      1.0000 0.92190  0.73780  0.40200  Biso   1.000  C
  C40      1.0000 0.07810  0.23780  0.09800  Biso   1.000  C
  C41      1.0000 0.00580  0.25580  0.54690  Biso   1.000  C
  C42      1.0000 0.99420  0.75580  0.95310  Biso   1.000  C
  C43      1.0000 0.99420  0.74420  0.45310  Biso   1.000  C
  C44      1.0000 0.00580  0.24420  0.04690  Biso   1.000  C
  H57      1.0000 0.98800  0.28640  0.50400  Biso   1.000  H
  H58      1.0000 0.01200  0.78640  0.99600  Biso   1.000  H
  H59      1.0000 0.01200  0.71360  0.49600  Biso   1.000  H
  H60      1.0000 0.98800  0.21360  0.00400  Biso   1.000  H
  C45      1.0000 0.96090  0.20220  0.56200  Biso   1.000  C
  C46      1.0000 0.03910  0.70220  0.93800  Biso   1.000  C
  C47      1.0000 0.03910  0.79780  0.43800  Biso   1.000  C
  C48      1.0000 0.96090  0.29780  0.06200  Biso   1.000  C
  H61      1.0000 0.91180  0.19550  0.52870  Biso   1.000  H
  H62      1.0000 0.08820  0.69550  0.97130  Biso   1.000  H
  H63      1.0000 0.08820  0.80450  0.47130  Biso   1.000  H
  H64      1.0000 0.91180  0.30450  0.02870  Biso   1.000  H
  C49      1.0000 0.98850  0.15910  0.62580  Biso   1.000  C
  C50      1.0000 0.01150  0.65910  0.87420  Biso   1.000  C
  C51      1.0000 0.01150  0.84090  0.37420  Biso   1.000  C
  C52      1.0000 0.98850  0.34090  0.12580  Biso   1.000  C
  H65      1.0000 0.95770  0.12250  0.63450  Biso   1.000  H
  H66      1.0000 0.04230  0.62250  0.86550  Biso   1.000  H
  H67      1.0000 0.04230  0.87750  0.36550  Biso   1.000  H
  H68      1.0000 0.95770  0.37750  0.13450  Biso   1.000  H
  C53      1.0000 0.10340  0.21780  0.66220  Biso   1.000  C
  C54      1.0000 0.89660  0.71780  0.83780  Biso   1.000  C
  C55      1.0000 0.89660  0.78220  0.33780  Biso   1.000  C
  C56      1.0000 0.10340  0.28220  0.16220  Biso   1.000  C
  H69      1.0000 0.15240  0.22300  0.69600  Biso   1.000  H
  H70      1.0000 0.84760  0.72300  0.80400  Biso   1.000  H
  H71      1.0000 0.84760  0.77700  0.30400  Biso   1.000  H
  H72      1.0000 0.15240  0.27700  0.19600  Biso   1.000  H
  C57      1.0000 0.58180  0.84070  0.88780  Biso   1.000  C
  C58      1.0000 0.41820  0.34070  0.61220  Biso   1.000  C
  C59      1.0000 0.41820  0.15930  0.11220  Biso   1.000  C
  C60      1.0000 0.58180  0.65930  0.38780  Biso   1.000  C
  H73      1.0000 0.55130  0.84160  0.83630  Biso   1.000  H
  H74      1.0000 0.44870  0.34160  0.66370  Biso   1.000  H
  H75      1.0000 0.44870  0.15840  0.16370  Biso   1.000  H
  H76      1.0000 0.55130  0.65840  0.33630  Biso   1.000  H
  C61      1.0000 0.62840  0.81310  0.00950  Biso   1.000  C
  C62      1.0000 0.37160  0.31310  0.49050  Biso   1.000  C
  C63      1.0000 0.37160  0.18690  0.99050  Biso   1.000  C
  C64      1.0000 0.62840  0.68690  0.50950  Biso   1.000  C
  H77      1.0000 0.63540  0.79130  0.05700  Biso   1.000  H
  H78      1.0000 0.36460  0.29130  0.44300  Biso   1.000  H
  H79      1.0000 0.36460  0.20870  0.94300  Biso   1.000  H
  H80      1.0000 0.63540  0.70870  0.55700  Biso   1.000  H
  C65      1.0000 0.51540  0.74110  0.93260  Biso   1.000  C
  C66      1.0000 0.48460  0.24110  0.56740  Biso   1.000  C
  C67      1.0000 0.48460  0.25890  0.06740  Biso   1.000  C
  C68      1.0000 0.51540  0.75890  0.43260  Biso   1.000  C
  C69      1.0000 0.48280  0.73040  0.98700  Biso   1.000  C
  C70      1.0000 0.51720  0.23040  0.51300  Biso   1.000  C
  C71      1.0000 0.51720  0.26960  0.01300  Biso   1.000  C
  C72      1.0000 0.48280  0.76960  0.48700  Biso   1.000  C
  H81      1.0000 0.49700  0.75810  0.03210  Biso   1.000  H
  H82      1.0000 0.50300  0.25810  0.46790  Biso   1.000  H
  H83      1.0000 0.50300  0.24190  0.96790  Biso   1.000  H
  H84      1.0000 0.49700  0.74190  0.53210  Biso   1.000  H
  C73      1.0000 0.42830  0.67740  0.97220  Biso   1.000  C
  C74      1.0000 0.57170  0.17740  0.52780  Biso   1.000  C
  C75      1.0000 0.57170  0.32260  0.02780  Biso   1.000  C
  C76      1.0000 0.42830  0.82260  0.47220  Biso   1.000  C
  H85      1.0000 0.40460  0.66870  0.00790  Biso   1.000  H
  H86      1.0000 0.59540  0.16870  0.49210  Biso   1.000  H
  H87      1.0000 0.59540  0.33130  0.99210  Biso   1.000  H
  H88      1.0000 0.40460  0.83130  0.50790  Biso   1.000  H
  C77      1.0000 0.40790  0.63680  0.90590  Biso   1.000  C
  C78      1.0000 0.59210  0.13680  0.59410  Biso   1.000  C
  C79      1.0000 0.59210  0.36320  0.09410  Biso   1.000  C
  C80      1.0000 0.40790  0.86320  0.40590  Biso   1.000  C
  H89      1.0000 0.36980  0.60180  0.89730  Biso   1.000  H
  H90      1.0000 0.63020  0.10180  0.60270  Biso   1.000  H
  H91      1.0000 0.63020  0.39820  0.10270  Biso   1.000  H
  H92      1.0000 0.36980  0.89820  0.39730  Biso   1.000  H
  C81      1.0000 0.49390  0.69800  0.86670  Biso   1.000  C
  C82      1.0000 0.50610  0.19800  0.63330  Biso   1.000  C
  C83      1.0000 0.50610  0.30200  0.13330  Biso   1.000  C
  C84      1.0000 0.49390  0.80200  0.36670  Biso   1.000  C
  H93      1.0000 0.51720  0.70560  0.83040  Biso   1.000  H
  H94      1.0000 0.48280  0.20560  0.66960  Biso   1.000  H
  H95      1.0000 0.48280  0.29440  0.16960  Biso   1.000  H
  H96      1.0000 0.51720  0.79440  0.33040  Biso   1.000  H
  C85      1.0000 0.99640  0.72730  0.68700  Biso   1.000  C
  C86      1.0000 0.00360  0.22730  0.81300  Biso   1.000  C
  C87      1.0000 0.00360  0.27270  0.31300  Biso   1.000  C
  C88      1.0000 0.99640  0.77270  0.18700  Biso   1.000  C
  H97      1.0000 0.95230  0.75200  0.68390  Biso   1.000  H
  H98      1.0000 0.04770  0.25200  0.81610  Biso   1.000  H
  H99      1.0000 0.04770  0.24800  0.31610  Biso   1.000  H
  H100     1.0000 0.95230  0.74800  0.18390  Biso   1.000  H
  C89      1.0000 0.05280  0.76750  0.67460  Biso   1.000  C
  C90      1.0000 0.94720  0.26750  0.82540  Biso   1.000  C
  C91      1.0000 0.94720  0.23250  0.32540  Biso   1.000  C
  C92      1.0000 0.05280  0.73250  0.17460  Biso   1.000  C
  H101     1.0000 0.04710  0.81800  0.66430  Biso   1.000  H
  H102     1.0000 0.95290  0.31800  0.83570  Biso   1.000  H
  H103     1.0000 0.95290  0.18200  0.33570  Biso   1.000  H
  H104     1.0000 0.04710  0.68200  0.16430  Biso   1.000  H
  C93      1.0000 0.11850  0.73100  0.67770  Biso   1.000  C
  C94      1.0000 0.88150  0.23100  0.82230  Biso   1.000  C
  C95      1.0000 0.88150  0.26900  0.32230  Biso   1.000  C
  C96      1.0000 0.11850  0.76900  0.17770  Biso   1.000  C
  H105     1.0000 0.15790  0.75620  0.66930  Biso   1.000  H
  H106     1.0000 0.84210  0.25620  0.83070  Biso   1.000  H
  H107     1.0000 0.84210  0.24380  0.33070  Biso   1.000  H
  H108     1.0000 0.15790  0.74380  0.16930  Biso   1.000  H
  C97      1.0000 0.12290  0.65690  0.69350  Biso   1.000  C
  C98      1.0000 0.87710  0.15690  0.80650  Biso   1.000  C
  C99      1.0000 0.87710  0.34310  0.30650  Biso   1.000  C
  C100     1.0000 0.12290  0.84310  0.19350  Biso   1.000  C
  C101     1.0000 0.06300  0.62010  0.70620  Biso   1.000  C
  C102     1.0000 0.93700  0.12010  0.79380  Biso   1.000  C
  C103     1.0000 0.93700  0.37990  0.29380  Biso   1.000  C
  C104     1.0000 0.06300  0.87990  0.20620  Biso   1.000  C
  H109     1.0000 0.06670  0.56950  0.71690  Biso   1.000  H
  H110     1.0000 0.93330  0.06950  0.78310  Biso   1.000  H
  H111     1.0000 0.93330  0.43050  0.28310  Biso   1.000  H
  H112     1.0000 0.06670  0.93050  0.21690  Biso   1.000  H
  C105     1.0000 0.19420  0.55050  0.66580  Biso   1.000  C
  C106     1.0000 0.80580  0.05050  0.83420  Biso   1.000  C
  C107     1.0000 0.80580  0.44950  0.33420  Biso   1.000  C
  C108     1.0000 0.19420  0.94950  0.16580  Biso   1.000  C
  H113     1.0000 0.15330  0.52200  0.63710  Biso   1.000  H
  H114     1.0000 0.84670  0.02200  0.86290  Biso   1.000  H
  H115     1.0000 0.84670  0.47800  0.36290  Biso   1.000  H
  H116     1.0000 0.15330  0.97800  0.13710  Biso   1.000  H
  C109     1.0000 0.26260  0.63700  0.73500  Biso   1.000  C
  C110     1.0000 0.73740  0.13700  0.76500  Biso   1.000  C
  C111     1.0000 0.73740  0.36300  0.26500  Biso   1.000  C
  C112     1.0000 0.26260  0.86300  0.23500  Biso   1.000  C
  H117     1.0000 0.27730  0.68020  0.76370  Biso   1.000  H
  H118     1.0000 0.72270  0.18020  0.73630  Biso   1.000  H
  H119     1.0000 0.72270  0.31980  0.23630  Biso   1.000  H
  H120     1.0000 0.27730  0.81980  0.26370  Biso   1.000  H
  O17      1.0000 0.85800  0.62090  0.21640  Biso   1.000  O
  O18      1.0000 0.14200  0.12090  0.28360  Biso   1.000  O
  O19      1.0000 0.14200  0.37910  0.78360  Biso   1.000  O
  O20      1.0000 0.85800  0.87910  0.71640  Biso   1.000  O
  O21      1.0000 0.72930  0.22290  0.13100  Biso   1.000  O
  O22      1.0000 0.27070  0.72290  0.36900  Biso   1.000  O
  O23      1.0000 0.27070  0.77710  0.86900  Biso   1.000  O
  O24      1.0000 0.72930  0.27710  0.63100  Biso   1.000  O
  O25      1.0000 0.61790  0.12180  0.17220  Biso   1.000  O
  O26      1.0000 0.38210  0.62180  0.32780  Biso   1.000  O
  O27      1.0000 0.38210  0.87820  0.82780  Biso   1.000  O
  O28      1.0000 0.61790  0.37820  0.67220  Biso   1.000  O
  O29      1.0000 0.25880  0.30500  0.07400  Biso   1.000  O
  O30      1.0000 0.74120  0.80500  0.42600  Biso   1.000  O
  O31      1.0000 0.74120  0.69500  0.92600  Biso   1.000  O
  O32      1.0000 0.25880  0.19500  0.57400  Biso   1.000  O
  O33      1.0000 0.15450  0.58920  0.14370  Biso   1.000  O
  O34      1.0000 0.84550  0.08920  0.35630  Biso   1.000  O
  O35      1.0000 0.84550  0.41080  0.85630  Biso   1.000  O
  O36      1.0000 0.15450  0.91080  0.64370  Biso   1.000  O
  O37      1.0000 0.39070  0.47520  0.84520  Biso   1.000  O
  O38      1.0000 0.60930  0.97520  0.65480  Biso   1.000  O
  O39      1.0000 0.60930  0.52480  0.15480  Biso   1.000  O
  O40      1.0000 0.39070  0.02480  0.34520  Biso   1.000  O
  O41      1.0000 0.43760  0.67820  0.68030  Biso   1.000  O
  O42      1.0000 0.56240  0.17820  0.81970  Biso   1.000  O
  O43      1.0000 0.56240  0.32180  0.31970  Biso   1.000  O
  O44      1.0000 0.43760  0.82180  0.18030  Biso   1.000  O
  O45      1.0000 0.33390  0.79110  0.70100  Biso   1.000  O
  O46      1.0000 0.66610  0.29110  0.79900  Biso   1.000  O
  O47      1.0000 0.66610  0.20890  0.29900  Biso   1.000  O
  O48      1.0000 0.33390  0.70890  0.20100  Biso   1.000  O
  O49      1.0000 0.36760  0.64640  0.52570  Biso   1.000  O
  O50      1.0000 0.63240  0.14640  0.97430  Biso   1.000  O
  O51      1.0000 0.63240  0.35360  0.47430  Biso   1.000  O
  O52      1.0000 0.36760  0.85360  0.02570  Biso   1.000  O
  O53      1.0000 0.23610  0.80500  0.57880  Biso   1.000  O
  O54      1.0000 0.76390  0.30500  0.92120  Biso   1.000  O
  O55      1.0000 0.76390  0.19500  0.42120  Biso   1.000  O
  O56      1.0000 0.23610  0.69500  0.07880  Biso   1.000  O
  O57      1.0000 0.01050  0.60830  0.31340  Biso   1.000  O
  O58      1.0000 0.98950  0.10830  0.18660  Biso   1.000  O
  O59      1.0000 0.98950  0.39170  0.68660  Biso   1.000  O
  O60      1.0000 0.01050  0.89170  0.81340  Biso   1.000  O
  O61      1.0000 0.33340  0.13030  0.48350  Biso   1.000  O
  O62      1.0000 0.66660  0.63030  0.01650  Biso   1.000  O
  O63      1.0000 0.66660  0.86970  0.51650  Biso   1.000  O
  O64      1.0000 0.33340  0.36970  0.98350  Biso   1.000  O
  O65      1.0000 0.80490  0.73130  0.63020  Biso   1.000  O
  O66      1.0000 0.19510  0.23130  0.86980  Biso   1.000  O
  O67      1.0000 0.19510  0.26870  0.36980  Biso   1.000  O
  O68      1.0000 0.80490  0.76870  0.13020  Biso   1.000  O
  O69      1.0000 0.17820  0.63750  0.51340  Biso   1.000  O
  O70      1.0000 0.82180  0.13750  0.98660  Biso   1.000  O
  O71      1.0000 0.82180  0.36250  0.48660  Biso   1.000  O
  O72      1.0000 0.17820  0.86250  0.01340  Biso   1.000  O
  O73      1.0000 0.15900  0.59900  0.34000  Biso   1.000  O
  O74      1.0000 0.84100  0.09900  0.16000  Biso   1.000  O
  O75      1.0000 0.84100  0.40100  0.66000  Biso   1.000  O
  O76      1.0000 0.15900  0.90100  0.84000  Biso   1.000  O
  F73      1.0000 0.87530  0.59650  0.95290  Biso   1.000  F
  F74      1.0000 0.12470  0.09650  0.54710  Biso   1.000  F
  F75      1.0000 0.12470  0.40350  0.04710  Biso   1.000  F
  F76      1.0000 0.87530  0.90350  0.45290  Biso   1.000  F
  F77      1.0000 0.89410  0.65820  0.05720  Biso   1.000  F
  F78      1.0000 0.10590  0.15820  0.44280  Biso   1.000  F
  F79      1.0000 0.10590  0.34180  0.94280  Biso   1.000  F
  F80      1.0000 0.89410  0.84180  0.55720  Biso   1.000  F
  F81      1.0000 0.97570  0.56460  0.05670  Biso   1.000  F
  F82      1.0000 0.02430  0.06460  0.44330  Biso   1.000  F
  F83      1.0000 0.02430  0.43540  0.94330  Biso   1.000  F
  F84      1.0000 0.97570  0.93540  0.55670  Biso   1.000  F
  F85      1.0000 0.90520  0.55060  0.12530  Biso   1.000  F
  F86      1.0000 0.09480  0.05060  0.37470  Biso   1.000  F
  F87      1.0000 0.09480  0.44940  0.87470  Biso   1.000  F
  F88      1.0000 0.90520  0.94940  0.62530  Biso   1.000  F
  F89      1.0000 0.88060  0.48990  0.00630  Biso   1.000  F
  F90      1.0000 0.11940  0.98990  0.49370  Biso   1.000  F
  F91      1.0000 0.11940  0.51010  0.99370  Biso   1.000  F
  F92      1.0000 0.88060  0.01010  0.50630  Biso   1.000  F
  F93      1.0000 0.79930  0.58090  0.02170  Biso   1.000  F
  F94      1.0000 0.20070  0.08090  0.47830  Biso   1.000  F
  F95      1.0000 0.20070  0.41910  0.97830  Biso   1.000  F
  F96      1.0000 0.79930  0.91910  0.52170  Biso   1.000  F
  O77      1.0000 0.20100  0.59700  0.29500  Biso   1.000  O
  O78      1.0000 0.79900  0.09700  0.20500  Biso   1.000  O
  O79      1.0000 0.79900  0.40300  0.70500  Biso   1.000  O
  O80      1.0000 0.20100  0.90300  0.79500  Biso   1.000  O
  Si13     1.0000 0.88720  0.57280  0.03780  Biso   1.000  Si
  Si14     1.0000 0.11280  0.07280  0.46220  Biso   1.000  Si
  Si15     1.0000 0.11280  0.42720  0.96220  Biso   1.000  Si
  Si16     1.0000 0.88720  0.92720  0.53780  Biso   1.000  Si
