data_image0
_cell_length_a       6.921
_cell_length_b       10.454
_cell_length_c       18.448
_cell_angle_alpha    90
_cell_angle_beta     97.579
_cell_angle_gamma    90

_symmetry_space_group_name_H-M    "P 1"
_symmetry_int_tables_number       1

loop_
  _symmetry_equiv_pos_as_xyz
  'x, y, z'

loop_
  _atom_site_label
  _atom_site_occupancy
  _atom_site_fract_x
  _atom_site_fract_y
  _atom_site_fract_z
  _atom_site_thermal_displace_type
  _atom_site_B_iso_or_equiv
  _atom_site_type_symbol
  Cu1      1.0000 0.62943  0.18487  0.92552  Biso   1.000  Cu
  Cu2      1.0000 0.87057  0.68487  0.57448  Biso   1.000  Cu
  Cu3      1.0000 0.37057  0.81513  0.07448  Biso   1.000  Cu
  Cu4      1.0000 0.12943  0.31513  0.42552  Biso   1.000  Cu
  Cu5      1.0000 0.00000  0.00000  0.00000  Biso   1.000  Cu
  Cu6      1.0000 0.50000  0.50000  0.50000  Biso   1.000  Cu
  O1       1.0000 0.83490  0.06560  0.91882  Biso   1.000  O
  O2       1.0000 0.66510  0.56560  0.58118  Biso   1.000  O
  O3       1.0000 0.16510  0.93440  0.08118  Biso   1.000  O
  O4       1.0000 0.33490  0.43440  0.41882  Biso   1.000  O
  H1       1.0000 0.89620  0.08300  0.88310  Biso   1.000  H
  H2       1.0000 0.60380  0.58300  0.61690  Biso   1.000  H
  H3       1.0000 0.10380  0.91700  0.11690  Biso   1.000  H
  H4       1.0000 0.39620  0.41700  0.38310  Biso   1.000  H
  O5       1.0000 0.79650  0.35510  0.88700  Biso   1.000  O
  O6       1.0000 0.70350  0.85510  0.61300  Biso   1.000  O
  O7       1.0000 0.20350  0.64490  0.11300  Biso   1.000  O
  O8       1.0000 0.29650  0.14490  0.38700  Biso   1.000  O
  H5       1.0000 0.73430  0.41410  0.86220  Biso   1.000  H
  H6       1.0000 0.76570  0.91410  0.63780  Biso   1.000  H
  H7       1.0000 0.26570  0.58590  0.13780  Biso   1.000  H
  H8       1.0000 0.23430  0.08590  0.36220  Biso   1.000  H
  H9       1.0000 0.86390  0.37750  0.92690  Biso   1.000  H
  H10      1.0000 0.63610  0.87750  0.57310  Biso   1.000  H
  H11      1.0000 0.13610  0.62250  0.07310  Biso   1.000  H
  H12      1.0000 0.36390  0.12250  0.42690  Biso   1.000  H
  O9       1.0000 0.40920  0.30160  0.93663  Biso   1.000  O
  O10      1.0000 0.09080  0.80160  0.56337  Biso   1.000  O
  O11      1.0000 0.59080  0.69840  0.06337  Biso   1.000  O
  O12      1.0000 0.90920  0.19840  0.43663  Biso   1.000  O
  O13      1.0000 0.29980  0.12810  0.97247  Biso   1.000  O
  O14      1.0000 0.20020  0.62810  0.52753  Biso   1.000  O
  O15      1.0000 0.70020  0.87190  0.02753  Biso   1.000  O
  O16      1.0000 0.79980  0.37190  0.47247  Biso   1.000  O
  N1       1.0000 0.09220  0.85590  0.94127  Biso   1.000  N
  N2       1.0000 0.40780  0.35590  0.55873  Biso   1.000  N
  N3       1.0000 0.90780  0.14410  0.05873  Biso   1.000  N
  N4       1.0000 0.59220  0.64410  0.44127  Biso   1.000  N
  N5       1.0000 0.25090  0.78380  0.96921  Biso   1.000  N
  N6       1.0000 0.24910  0.28380  0.53079  Biso   1.000  N
  N7       1.0000 0.74910  0.21620  0.03079  Biso   1.000  N
  N8       1.0000 0.75090  0.71620  0.46921  Biso   1.000  N
  N9       1.0000 0.13530  0.70770  0.86236  Biso   1.000  N
  N10      1.0000 0.36470  0.20770  0.63764  Biso   1.000  N
  N11      1.0000 0.86470  0.29230  0.13764  Biso   1.000  N
  N12      1.0000 0.63530  0.79230  0.36236  Biso   1.000  N
  N13      1.0000 0.00040  0.61510  0.67110  Biso   1.000  N
  N14      1.0000 0.49960  0.11510  0.82890  Biso   1.000  N
  N15      1.0000 0.99960  0.38490  0.32890  Biso   1.000  N
  N16      1.0000 0.50040  0.88490  0.17110  Biso   1.000  N
  N17      1.0000 0.26920  0.24240  0.96067  Biso   1.000  N
  N18      1.0000 0.23080  0.74240  0.53933  Biso   1.000  N
  N19      1.0000 0.73080  0.75760  0.03933  Biso   1.000  N
  N20      1.0000 0.76920  0.25760  0.46067  Biso   1.000  N
  C1       1.0000 0.02550  0.80880  0.87792  Biso   1.000  C
  C2       1.0000 0.47450  0.30880  0.62208  Biso   1.000  C
  C3       1.0000 0.97450  0.19120  0.12208  Biso   1.000  C
  C4       1.0000 0.52550  0.69120  0.37792  Biso   1.000  C
  H13      1.0000 0.91780  0.83990  0.84760  Biso   1.000  H
  H14      1.0000 0.58220  0.33990  0.65240  Biso   1.000  H
  H15      1.0000 0.08220  0.16010  0.15240  Biso   1.000  H
  H16      1.0000 0.41780  0.66010  0.34760  Biso   1.000  H
  C5       1.0000 0.27420  0.69570  0.92134  Biso   1.000  C
  C6       1.0000 0.22580  0.19570  0.57866  Biso   1.000  C
  C7       1.0000 0.72580  0.30430  0.07866  Biso   1.000  C
  C8       1.0000 0.77420  0.80430  0.42134  Biso   1.000  C
  H17      1.0000 0.37140  0.63370  0.92670  Biso   1.000  H
  H18      1.0000 0.12860  0.13370  0.57330  Biso   1.000  H
  H19      1.0000 0.62860  0.36630  0.07330  Biso   1.000  H
  H20      1.0000 0.87140  0.86630  0.42670  Biso   1.000  H
  C9       1.0000 0.10590  0.62880  0.79839  Biso   1.000  C
  C10      1.0000 0.39410  0.12880  0.70161  Biso   1.000  C
  C11      1.0000 0.89410  0.37120  0.20161  Biso   1.000  C
  C12      1.0000 0.60590  0.87120  0.29839  Biso   1.000  C
  C13      1.0000 0.14360  0.49950  0.80291  Biso   1.000  C
  C14      1.0000 0.35640  0.99950  0.69709  Biso   1.000  C
  C15      1.0000 0.85640  0.50050  0.19709  Biso   1.000  C
  C16      1.0000 0.64360  0.00050  0.30291  Biso   1.000  C
  H21      1.0000 0.19190  0.46110  0.84710  Biso   1.000  H
  H22      1.0000 0.30810  0.96110  0.65290  Biso   1.000  H
  H23      1.0000 0.80810  0.53890  0.15290  Biso   1.000  H
  H24      1.0000 0.69190  0.03890  0.34710  Biso   1.000  H
  C17      1.0000 0.10710  0.42940  0.73952  Biso   1.000  C
  C18      1.0000 0.39290  0.92940  0.76048  Biso   1.000  C
  C19      1.0000 0.89290  0.57060  0.26048  Biso   1.000  C
  C20      1.0000 0.60710  0.07060  0.23952  Biso   1.000  C
  H25      1.0000 0.13110  0.34190  0.74020  Biso   1.000  H
  H26      1.0000 0.36890  0.84190  0.75980  Biso   1.000  H
  H27      1.0000 0.86890  0.65810  0.25980  Biso   1.000  H
  H28      1.0000 0.63110  0.15810  0.24020  Biso   1.000  H
  C21      1.0000 0.03490  0.48890  0.67510  Biso   1.000  C
  C22      1.0000 0.46510  0.98890  0.82490  Biso   1.000  C
  C23      1.0000 0.96510  0.51110  0.32490  Biso   1.000  C
  C24      1.0000 0.53490  0.01110  0.17510  Biso   1.000  C
  H29      1.0000 0.00910  0.43980  0.63290  Biso   1.000  H
  H30      1.0000 0.49090  0.93980  0.86710  Biso   1.000  H
  H31      1.0000 0.99090  0.56020  0.36710  Biso   1.000  H
  H32      1.0000 0.50910  0.06020  0.13290  Biso   1.000  H
  C25      1.0000 0.03640  0.68420  0.73215  Biso   1.000  C
  C26      1.0000 0.46360  0.18420  0.76785  Biso   1.000  C
  C27      1.0000 0.96360  0.31580  0.26785  Biso   1.000  C
  C28      1.0000 0.53640  0.81580  0.23215  Biso   1.000  C
  H33      1.0000 0.01410  0.77190  0.73000  Biso   1.000  H
  H34      1.0000 0.48590  0.27190  0.77000  Biso   1.000  H
  H35      1.0000 0.98590  0.22810  0.27000  Biso   1.000  H
  H36      1.0000 0.51410  0.72810  0.23000  Biso   1.000  H
  N21      1.0000 0.08210  0.90940  0.26546  Biso   1.000  N
  N22      1.0000 0.41790  0.40940  0.23454  Biso   1.000  N
  N23      1.0000 0.91790  0.09060  0.73454  Biso   1.000  N
  N24      1.0000 0.58210  0.59060  0.76546  Biso   1.000  N
  O17      1.0000 0.14010  0.02170  0.26025  Biso   1.000  O
  O18      1.0000 0.35990  0.52170  0.23975  Biso   1.000  O
  O19      1.0000 0.85990  0.97830  0.73975  Biso   1.000  O
  O20      1.0000 0.64010  0.47830  0.76025  Biso   1.000  O
  O21      1.0000 0.10250  0.85570  0.32490  Biso   1.000  O
  O22      1.0000 0.39750  0.35570  0.17510  Biso   1.000  O
  O23      1.0000 0.89750  0.14430  0.67510  Biso   1.000  O
  O24      1.0000 0.60250  0.64430  0.82490  Biso   1.000  O
  O25      1.0000 0.00030  0.85660  0.20880  Biso   1.000  O
  O26      1.0000 0.49970  0.35660  0.29120  Biso   1.000  O
  O27      1.0000 0.99970  0.14340  0.79120  Biso   1.000  O
  O28      1.0000 0.50030  0.64340  0.70880  Biso   1.000  O
  O29      1.0000 0.00000  0.50000  0.00000  Biso   1.000  O
  O30      1.0000 0.50000  0.00000  0.50000  Biso   1.000  O
