data_image0
_cell_length_a       5.211
_cell_length_b       16.405
_cell_length_c       18.524
_cell_angle_alpha    90
_cell_angle_beta     92.79
_cell_angle_gamma    90

_symmetry_space_group_name_H-M    "P 1"
_symmetry_int_tables_number       1

loop_
  _symmetry_equiv_pos_as_xyz
  'x, y, z'

loop_
  _atom_site_label
  _atom_site_occupancy
  _atom_site_fract_x
  _atom_site_fract_y
  _atom_site_fract_z
  _atom_site_thermal_displace_type
  _atom_site_B_iso_or_equiv
  _atom_site_type_symbol
  Cu1      1.0000 0.40950  0.16940  0.23120  Biso   1.000  Cu
  Cu2      1.0000 0.59050  0.66940  0.26880  Biso   1.000  Cu
  Cu3      1.0000 0.59050  0.83060  0.76880  Biso   1.000  Cu
  Cu4      1.0000 0.40950  0.33060  0.73120  Biso   1.000  Cu
  O1       1.0000 0.07470  0.20410  0.13670  Biso   1.000  O
  O2       1.0000 0.92530  0.70410  0.36330  Biso   1.000  O
  O3       1.0000 0.92530  0.79590  0.86330  Biso   1.000  O
  O4       1.0000 0.07470  0.29590  0.63670  Biso   1.000  O
  O5       1.0000 0.39380  0.27260  0.28850  Biso   1.000  O
  O6       1.0000 0.60620  0.77260  0.21150  Biso   1.000  O
  O7       1.0000 0.60620  0.72740  0.71150  Biso   1.000  O
  O8       1.0000 0.39380  0.22740  0.78850  Biso   1.000  O
  O9       1.0000 0.59250  0.39060  0.30930  Biso   1.000  O
  O10      1.0000 0.40750  0.89060  0.19070  Biso   1.000  O
  O11      1.0000 0.40750  0.60940  0.69070  Biso   1.000  O
  O12      1.0000 0.59250  0.10940  0.80930  Biso   1.000  O
  O13      1.0000 0.47630  0.88910  0.52750  Biso   1.000  O
  O14      1.0000 0.52370  0.38910  0.97250  Biso   1.000  O
  O15      1.0000 0.52370  0.11090  0.47250  Biso   1.000  O
  O16      1.0000 0.47630  0.61090  0.02750  Biso   1.000  O
  O17      1.0000 0.74590  0.95990  0.98690  Biso   1.000  O
  O18      1.0000 0.25410  0.45990  0.51310  Biso   1.000  O
  O19      1.0000 0.25410  0.04010  0.01310  Biso   1.000  O
  O20      1.0000 0.74590  0.54010  0.48690  Biso   1.000  O
  O21      1.0000 0.91730  0.87780  0.10960  Biso   1.000  O
  O22      1.0000 0.08270  0.37780  0.39040  Biso   1.000  O
  O23      1.0000 0.08270  0.12220  0.89040  Biso   1.000  O
  O24      1.0000 0.91730  0.62220  0.60960  Biso   1.000  O
  N1       1.0000 0.51110  0.07700  0.16410  Biso   1.000  N
  N2       1.0000 0.48890  0.57700  0.33590  Biso   1.000  N
  N3       1.0000 0.48890  0.92300  0.83590  Biso   1.000  N
  N4       1.0000 0.51110  0.42300  0.66410  Biso   1.000  N
  N5       1.0000 0.69100  0.22290  0.19120  Biso   1.000  N
  N6       1.0000 0.30900  0.72290  0.30880  Biso   1.000  N
  N7       1.0000 0.30900  0.77710  0.80880  Biso   1.000  N
  N8       1.0000 0.69100  0.27710  0.69120  Biso   1.000  N
  N9       1.0000 0.16960  0.11320  0.29220  Biso   1.000  N
  N10      1.0000 0.83040  0.61320  0.20780  Biso   1.000  N
  N11      1.0000 0.83040  0.88680  0.70780  Biso   1.000  N
  N12      1.0000 0.16960  0.38680  0.79220  Biso   1.000  N
  N13      1.0000 0.87170  0.09750  0.37120  Biso   1.000  N
  N14      1.0000 0.12830  0.59750  0.12880  Biso   1.000  N
  N15      1.0000 0.12830  0.90250  0.62880  Biso   1.000  N
  N16      1.0000 0.87170  0.40250  0.87120  Biso   1.000  N
  N17      1.0000 0.74570  0.83620  0.45000  Biso   1.000  N
  N18      1.0000 0.25430  0.33620  0.05000  Biso   1.000  N
  N19      1.0000 0.25430  0.16380  0.55000  Biso   1.000  N
  N20      1.0000 0.74570  0.66380  0.95000  Biso   1.000  N
  C1       1.0000 0.76280  0.09610  0.13370  Biso   1.000  C
  C2       1.0000 0.23720  0.59610  0.36630  Biso   1.000  C
  C3       1.0000 0.23720  0.90390  0.86630  Biso   1.000  C
  C4       1.0000 0.76280  0.40390  0.63370  Biso   1.000  C
  C5       1.0000 0.85580  0.18170  0.15450  Biso   1.000  C
  C6       1.0000 0.14420  0.68170  0.34550  Biso   1.000  C
  C7       1.0000 0.14420  0.81830  0.84550  Biso   1.000  C
  C8       1.0000 0.85580  0.31830  0.65450  Biso   1.000  C
  C9       1.0000 0.75740  0.30280  0.21950  Biso   1.000  C
  C10      1.0000 0.24260  0.80280  0.28050  Biso   1.000  C
  C11      1.0000 0.24260  0.69720  0.78050  Biso   1.000  C
  C12      1.0000 0.75740  0.19720  0.71950  Biso   1.000  C
  C13      1.0000 0.56810  0.32460  0.27690  Biso   1.000  C
  C14      1.0000 0.43190  0.82460  0.22310  Biso   1.000  C
  C15      1.0000 0.43190  0.67540  0.72310  Biso   1.000  C
  C16      1.0000 0.56810  0.17540  0.77690  Biso   1.000  C
  C17      1.0000 0.08660  0.03220  0.29030  Biso   1.000  C
  C18      1.0000 0.91340  0.53220  0.20970  Biso   1.000  C
  C19      1.0000 0.91340  0.96780  0.70970  Biso   1.000  C
  C20      1.0000 0.08660  0.46780  0.79030  Biso   1.000  C
  C21      1.0000 0.03460  0.14920  0.34140  Biso   1.000  C
  C22      1.0000 0.96540  0.64920  0.15860  Biso   1.000  C
  C23      1.0000 0.96540  0.85080  0.65860  Biso   1.000  C
  C24      1.0000 0.03460  0.35080  0.84140  Biso   1.000  C
  C25      1.0000 0.90300  0.02310  0.33960  Biso   1.000  C
  C26      1.0000 0.09700  0.52310  0.16040  Biso   1.000  C
  C27      1.0000 0.09700  0.97690  0.66040  Biso   1.000  C
  C28      1.0000 0.90300  0.47690  0.83960  Biso   1.000  C
  C29      1.0000 0.75940  0.94800  0.36160  Biso   1.000  C
  C30      1.0000 0.24060  0.44800  0.13840  Biso   1.000  C
  C31      1.0000 0.24060  0.05200  0.63840  Biso   1.000  C
  C32      1.0000 0.75940  0.55200  0.86160  Biso   1.000  C
  C33      1.0000 0.86230  0.91380  0.43380  Biso   1.000  C
  C34      1.0000 0.13770  0.41380  0.06620  Biso   1.000  C
  C35      1.0000 0.13770  0.08620  0.56620  Biso   1.000  C
  C36      1.0000 0.86230  0.58620  0.93380  Biso   1.000  C
  C37      1.0000 0.56060  0.82930  0.49670  Biso   1.000  C
  C38      1.0000 0.43940  0.32930  0.00330  Biso   1.000  C
  C39      1.0000 0.43940  0.17070  0.50330  Biso   1.000  C
  C40      1.0000 0.56060  0.67070  0.99670  Biso   1.000  C
  C41      1.0000 0.46110  0.74530  0.50900  Biso   1.000  C
  C42      1.0000 0.53890  0.24530  0.99100  Biso   1.000  C
  C43      1.0000 0.53890  0.25470  0.49100  Biso   1.000  C
  C44      1.0000 0.46110  0.75470  0.00900  Biso   1.000  C
  H1       1.0000 0.52100  0.03380  0.17850  Biso   1.000  H
  H2       1.0000 0.47900  0.53380  0.32150  Biso   1.000  H
  H3       1.0000 0.47900  0.96620  0.82150  Biso   1.000  H
  H4       1.0000 0.52100  0.46620  0.67850  Biso   1.000  H
  H5       1.0000 0.38600  0.06820  0.13590  Biso   1.000  H
  H6       1.0000 0.61400  0.56820  0.36410  Biso   1.000  H
  H7       1.0000 0.61400  0.93180  0.86410  Biso   1.000  H
  H8       1.0000 0.38600  0.43180  0.63590  Biso   1.000  H
  H9       1.0000 0.77100  0.09300  0.08020  Biso   1.000  H
  H10      1.0000 0.22900  0.59300  0.41980  Biso   1.000  H
  H11      1.0000 0.22900  0.90700  0.91980  Biso   1.000  H
  H12      1.0000 0.77100  0.40700  0.58020  Biso   1.000  H
  H13      1.0000 0.88300  0.05820  0.15230  Biso   1.000  H
  H14      1.0000 0.11700  0.55820  0.34770  Biso   1.000  H
  H15      1.0000 0.11700  0.94180  0.84770  Biso   1.000  H
  H16      1.0000 0.88300  0.44180  0.65230  Biso   1.000  H
  H17      1.0000 0.71500  0.34770  0.17900  Biso   1.000  H
  H18      1.0000 0.28500  0.84770  0.32100  Biso   1.000  H
  H19      1.0000 0.28500  0.65230  0.82100  Biso   1.000  H
  H20      1.0000 0.71500  0.15230  0.67900  Biso   1.000  H
  H21      1.0000 0.92800  0.30890  0.23560  Biso   1.000  H
  H22      1.0000 0.07200  0.80890  0.26440  Biso   1.000  H
  H23      1.0000 0.07200  0.69110  0.76440  Biso   1.000  H
  H24      1.0000 0.92800  0.19110  0.73560  Biso   1.000  H
  H25      1.0000 0.74400  0.10940  0.40330  Biso   1.000  H
  H26      1.0000 0.25600  0.60940  0.09670  Biso   1.000  H
  H27      1.0000 0.25600  0.89060  0.59670  Biso   1.000  H
  H28      1.0000 0.74400  0.39060  0.90330  Biso   1.000  H
  H29      1.0000 0.78800  0.79030  0.42490  Biso   1.000  H
  H30      1.0000 0.21200  0.29030  0.07510  Biso   1.000  H
  H31      1.0000 0.21200  0.20970  0.57510  Biso   1.000  H
  H32      1.0000 0.78800  0.70970  0.92490  Biso   1.000  H
  H33      1.0000 0.12800  0.98890  0.25190  Biso   1.000  H
  H34      1.0000 0.87200  0.48890  0.24810  Biso   1.000  H
  H35      1.0000 0.87200  0.01110  0.74810  Biso   1.000  H
  H36      1.0000 0.12800  0.51110  0.75190  Biso   1.000  H
  H37      1.0000 0.05200  0.19700  0.35600  Biso   1.000  H
  H38      1.0000 0.94800  0.69700  0.14400  Biso   1.000  H
  H39      1.0000 0.94800  0.80300  0.64400  Biso   1.000  H
  H40      1.0000 0.05200  0.30300  0.85600  Biso   1.000  H
  H41      1.0000 0.56800  0.96340  0.36240  Biso   1.000  H
  H42      1.0000 0.43200  0.46340  0.13760  Biso   1.000  H
  H43      1.0000 0.43200  0.03660  0.63760  Biso   1.000  H
  H44      1.0000 0.56800  0.53660  0.86240  Biso   1.000  H
  H45      1.0000 0.75600  0.90830  0.32390  Biso   1.000  H
  H46      1.0000 0.24400  0.40830  0.17610  Biso   1.000  H
  H47      1.0000 0.24400  0.09170  0.67610  Biso   1.000  H
  H48      1.0000 0.75600  0.59170  0.82390  Biso   1.000  H
  H49      1.0000 0.07000  0.90670  0.43040  Biso   1.000  H
  H50      1.0000 0.93000  0.40670  0.06960  Biso   1.000  H
  H51      1.0000 0.93000  0.09330  0.56960  Biso   1.000  H
  H52      1.0000 0.07000  0.59330  0.93040  Biso   1.000  H
  H53      1.0000 0.84100  0.95530  0.47500  Biso   1.000  H
  H54      1.0000 0.15900  0.45530  0.02500  Biso   1.000  H
  H55      1.0000 0.15900  0.04470  0.52500  Biso   1.000  H
  H56      1.0000 0.84100  0.54470  0.97500  Biso   1.000  H
  H57      1.0000 0.53800  0.70530  0.47780  Biso   1.000  H
  H58      1.0000 0.46200  0.20530  0.02220  Biso   1.000  H
  H59      1.0000 0.46200  0.29470  0.52220  Biso   1.000  H
  H60      1.0000 0.53800  0.79470  0.97780  Biso   1.000  H
  H61      1.0000 0.47200  0.73900  0.55260  Biso   1.000  H
  H62      1.0000 0.52800  0.23900  0.94740  Biso   1.000  H
  H63      1.0000 0.52800  0.26100  0.44740  Biso   1.000  H
  H64      1.0000 0.47200  0.76100  0.05260  Biso   1.000  H
  H65      1.0000 0.27800  0.74750  0.49750  Biso   1.000  H
  H66      1.0000 0.72200  0.24750  0.00250  Biso   1.000  H
  H67      1.0000 0.72200  0.25250  0.50250  Biso   1.000  H
  H68      1.0000 0.27800  0.75250  0.99750  Biso   1.000  H
