data_image0
_cell_length_a       9.721
_cell_length_b       10.931
_cell_length_c       11.646
_cell_angle_alpha    90
_cell_angle_beta     90
_cell_angle_gamma    90

_symmetry_space_group_name_H-M    "P 1"
_symmetry_int_tables_number       1

loop_
  _symmetry_equiv_pos_as_xyz
  'x, y, z'

loop_
  _atom_site_label
  _atom_site_occupancy
  _atom_site_fract_x
  _atom_site_fract_y
  _atom_site_fract_z
  _atom_site_thermal_displace_type
  _atom_site_B_iso_or_equiv
  _atom_site_type_symbol
  Cu1      1.0000 0.15057  0.22698  0.07524  Biso   1.000  Cu
  Cu2      1.0000 0.34943  0.77302  0.57524  Biso   1.000  Cu
  Cu3      1.0000 0.65057  0.27302  0.92476  Biso   1.000  Cu
  Cu4      1.0000 0.84943  0.72698  0.42476  Biso   1.000  Cu
  O1       1.0000 0.19140  0.29910  0.92380  Biso   1.000  O
  O2       1.0000 0.30860  0.70090  0.42380  Biso   1.000  O
  O3       1.0000 0.69140  0.20090  0.07620  Biso   1.000  O
  O4       1.0000 0.80860  0.79910  0.57620  Biso   1.000  O
  O5       1.0000 0.31470  0.50780  0.87530  Biso   1.000  O
  O6       1.0000 0.18530  0.49220  0.37530  Biso   1.000  O
  O7       1.0000 0.81470  0.99220  0.12470  Biso   1.000  O
  O8       1.0000 0.68530  0.00780  0.62470  Biso   1.000  O
  O9       1.0000 0.32810  0.56100  0.64700  Biso   1.000  O
  O10      1.0000 0.17190  0.43900  0.14700  Biso   1.000  O
  O11      1.0000 0.82810  0.93900  0.35300  Biso   1.000  O
  O12      1.0000 0.67190  0.06100  0.85300  Biso   1.000  O
  O13      1.0000 0.20180  0.34470  0.55930  Biso   1.000  O
  O14      1.0000 0.29820  0.65530  0.05930  Biso   1.000  O
  O15      1.0000 0.70180  0.15530  0.44070  Biso   1.000  O
  O16      1.0000 0.79820  0.84470  0.94070  Biso   1.000  O
  O17      1.0000 0.08240  0.17540  0.22690  Biso   1.000  O
  O18      1.0000 0.41760  0.82460  0.72690  Biso   1.000  O
  O19      1.0000 0.58240  0.32460  0.77310  Biso   1.000  O
  O20      1.0000 0.91760  0.67540  0.27310  Biso   1.000  O
  O21      1.0000 0.83500  0.30590  0.87390  Biso   1.000  O
  O22      1.0000 0.66500  0.69410  0.37390  Biso   1.000  O
  O23      1.0000 0.33500  0.19410  0.12610  Biso   1.000  O
  O24      1.0000 0.16500  0.80590  0.62610  Biso   1.000  O
  O25      1.0000 0.96260  0.24420  0.02080  Biso   1.000  O
  O26      1.0000 0.53740  0.75580  0.52080  Biso   1.000  O
  O27      1.0000 0.46260  0.25580  0.97920  Biso   1.000  O
  O28      1.0000 0.03740  0.74420  0.47920  Biso   1.000  O
  O29      1.0000 0.14090  0.00530  0.02070  Biso   1.000  O
  O30      1.0000 0.35910  0.99470  0.52070  Biso   1.000  O
  O31      1.0000 0.64090  0.49470  0.97930  Biso   1.000  O
  O32      1.0000 0.85910  0.50530  0.47930  Biso   1.000  O
  O33      1.0000 0.19120  0.02680  0.84440  Biso   1.000  O
  O34      1.0000 0.30880  0.97320  0.34440  Biso   1.000  O
  O35      1.0000 0.69120  0.47320  0.15560  Biso   1.000  O
  O36      1.0000 0.80880  0.52680  0.65560  Biso   1.000  O
  O37      1.0000 0.25970  0.86800  0.93350  Biso   1.000  O
  O38      1.0000 0.24030  0.13200  0.43350  Biso   1.000  O
  O39      1.0000 0.75970  0.63200  0.06650  Biso   1.000  O
  O40      1.0000 0.74030  0.36800  0.56650  Biso   1.000  O
  N1       1.0000 0.19920  0.96630  0.93500  Biso   1.000  N
  N2       1.0000 0.30080  0.03370  0.43500  Biso   1.000  N
  N3       1.0000 0.69920  0.53370  0.06500  Biso   1.000  N
  N4       1.0000 0.80080  0.46630  0.56500  Biso   1.000  N
  C1       1.0000 0.07400  0.34830  0.86340  Biso   1.000  C
  C2       1.0000 0.42600  0.65170  0.36340  Biso   1.000  C
  C3       1.0000 0.57400  0.15170  0.13660  Biso   1.000  C
  C4       1.0000 0.92600  0.84830  0.63660  Biso   1.000  C
  C5       1.0000 0.06620  0.48740  0.87490  Biso   1.000  C
  C6       1.0000 0.43380  0.51260  0.37490  Biso   1.000  C
  C7       1.0000 0.56620  0.01260  0.12510  Biso   1.000  C
  C8       1.0000 0.93380  0.98740  0.62510  Biso   1.000  C
  C9       1.0000 0.19020  0.54660  0.81920  Biso   1.000  C
  C10      1.0000 0.30980  0.45340  0.31920  Biso   1.000  C
  C11      1.0000 0.69020  0.95340  0.18080  Biso   1.000  C
  C12      1.0000 0.80980  0.04660  0.68080  Biso   1.000  C
  C13      1.0000 0.20580  0.50850  0.69270  Biso   1.000  C
  C14      1.0000 0.29420  0.49150  0.19270  Biso   1.000  C
  C15      1.0000 0.70580  0.99150  0.30730  Biso   1.000  C
  C16      1.0000 0.79420  0.00850  0.80730  Biso   1.000  C
  C17      1.0000 0.20440  0.37050  0.67940  Biso   1.000  C
  C18      1.0000 0.29560  0.62950  0.17940  Biso   1.000  C
  C19      1.0000 0.70440  0.12950  0.32060  Biso   1.000  C
  C20      1.0000 0.79560  0.87050  0.82060  Biso   1.000  C
  C21      1.0000 0.08180  0.31220  0.73810  Biso   1.000  C
  C22      1.0000 0.41820  0.68780  0.23810  Biso   1.000  C
  C23      1.0000 0.58180  0.18780  0.26190  Biso   1.000  C
  C24      1.0000 0.91820  0.81220  0.76190  Biso   1.000  C
  C25      1.0000 0.94700  0.29290  0.92550  Biso   1.000  C
  C26      1.0000 0.55300  0.70710  0.42550  Biso   1.000  C
  C27      1.0000 0.44700  0.20710  0.07450  Biso   1.000  C
  C28      1.0000 0.05300  0.79290  0.57450  Biso   1.000  C
  H1       1.0000 0.97700  0.51500  0.84200  Biso   1.000  H
  H2       1.0000 0.52300  0.48500  0.34200  Biso   1.000  H
  H3       1.0000 0.47700  0.98500  0.15800  Biso   1.000  H
  H4       1.0000 0.02300  0.01500  0.65800  Biso   1.000  H
  H5       1.0000 0.06200  0.51100  0.95400  Biso   1.000  H
  H6       1.0000 0.43800  0.48900  0.45400  Biso   1.000  H
  H7       1.0000 0.56200  0.98900  0.04600  Biso   1.000  H
  H8       1.0000 0.93800  0.01100  0.54600  Biso   1.000  H
  H9       1.0000 0.17900  0.63800  0.82200  Biso   1.000  H
  H10      1.0000 0.32100  0.36200  0.32200  Biso   1.000  H
  H11      1.0000 0.67900  0.86200  0.17800  Biso   1.000  H
  H12      1.0000 0.82100  0.13800  0.67800  Biso   1.000  H
  H13      1.0000 0.31100  0.53700  0.91700  Biso   1.000  H
  H14      1.0000 0.18900  0.46300  0.41700  Biso   1.000  H
  H15      1.0000 0.81100  0.96300  0.08300  Biso   1.000  H
  H16      1.0000 0.68900  0.03700  0.58300  Biso   1.000  H
  H17      1.0000 0.12900  0.54400  0.65100  Biso   1.000  H
  H18      1.0000 0.37100  0.45600  0.15100  Biso   1.000  H
  H19      1.0000 0.62900  0.95600  0.34900  Biso   1.000  H
  H20      1.0000 0.87100  0.04400  0.84900  Biso   1.000  H
  H21      1.0000 0.37900  0.53900  0.68100  Biso   1.000  H
  H22      1.0000 0.12100  0.46100  0.18100  Biso   1.000  H
  H23      1.0000 0.87900  0.96100  0.31900  Biso   1.000  H
  H24      1.0000 0.62100  0.03900  0.81900  Biso   1.000  H
  H25      1.0000 0.27900  0.34300  0.70600  Biso   1.000  H
  H26      1.0000 0.22100  0.65700  0.20600  Biso   1.000  H
  H27      1.0000 0.77900  0.15700  0.29400  Biso   1.000  H
  H28      1.0000 0.72100  0.84300  0.79400  Biso   1.000  H
  H29      1.0000 0.22000  0.29700  0.54400  Biso   1.000  H
  H30      1.0000 0.28000  0.70300  0.04400  Biso   1.000  H
  H31      1.0000 0.72000  0.20300  0.45600  Biso   1.000  H
  H32      1.0000 0.78000  0.79700  0.95600  Biso   1.000  H
  H33      1.0000 0.99900  0.32900  0.70300  Biso   1.000  H
  H34      1.0000 0.50100  0.67100  0.20300  Biso   1.000  H
  H35      1.0000 0.49900  0.17100  0.29700  Biso   1.000  H
  H36      1.0000 0.00100  0.82900  0.79700  Biso   1.000  H
  H37      1.0000 0.07700  0.21600  0.72400  Biso   1.000  H
  H38      1.0000 0.42300  0.78400  0.22400  Biso   1.000  H
  H39      1.0000 0.57700  0.28400  0.27600  Biso   1.000  H
  H40      1.0000 0.92300  0.71600  0.77600  Biso   1.000  H
  H41      1.0000 0.13600  0.15400  0.27800  Biso   1.000  H
  H42      1.0000 0.36400  0.84600  0.77800  Biso   1.000  H
  H43      1.0000 0.63600  0.34600  0.72200  Biso   1.000  H
  H44      1.0000 0.86400  0.65400  0.22200  Biso   1.000  H
  H45      1.0000 0.02500  0.22000  0.25800  Biso   1.000  H
  H46      1.0000 0.47500  0.78000  0.75800  Biso   1.000  H
  H47      1.0000 0.52500  0.28000  0.74200  Biso   1.000  H
  H48      1.0000 0.97500  0.72000  0.24200  Biso   1.000  H
  O41      1.0000 0.41940  0.13090  0.72370  Biso   1.000  O
  O42      1.0000 0.08060  0.86910  0.22370  Biso   1.000  O
  O43      1.0000 0.91940  0.36910  0.27630  Biso   1.000  O
  O44      1.0000 0.58060  0.63090  0.77630  Biso   1.000  O
  H49      1.0000 0.40100  0.12900  0.66200  Biso   1.000  H
  H50      1.0000 0.09900  0.87100  0.16200  Biso   1.000  H
  H51      1.0000 0.90100  0.37100  0.33800  Biso   1.000  H
  H52      1.0000 0.59900  0.62900  0.83800  Biso   1.000  H
  H53      1.0000 0.37400  0.10400  0.76100  Biso   1.000  H
  H54      1.0000 0.12600  0.89600  0.26100  Biso   1.000  H
  H55      1.0000 0.87400  0.39600  0.23900  Biso   1.000  H
  H56      1.0000 0.62600  0.60400  0.73900  Biso   1.000  H
  H57      1.0000 0.02100  0.34200  0.89500  Biso   1.000  H
  H58      1.0000 0.47900  0.65800  0.39500  Biso   1.000  H
  H59      1.0000 0.52100  0.15800  0.10500  Biso   1.000  H
  H60      1.0000 0.97900  0.84200  0.60500  Biso   1.000  H
