data_image0
_cell_length_a       9.7309
_cell_length_b       10.942
_cell_length_c       11.665
_cell_angle_alpha    90
_cell_angle_beta     90
_cell_angle_gamma    90

_symmetry_space_group_name_H-M    "P 1"
_symmetry_int_tables_number       1

loop_
  _symmetry_equiv_pos_as_xyz
  'x, y, z'

loop_
  _atom_site_label
  _atom_site_occupancy
  _atom_site_fract_x
  _atom_site_fract_y
  _atom_site_fract_z
  _atom_site_thermal_displace_type
  _atom_site_B_iso_or_equiv
  _atom_site_type_symbol
  Cu1      1.0000 0.34926  0.77302  0.07528  Biso   1.000  Cu
  Cu2      1.0000 0.15074  0.22698  0.57528  Biso   1.000  Cu
  Cu3      1.0000 0.65074  0.27302  0.42472  Biso   1.000  Cu
  Cu4      1.0000 0.84926  0.72698  0.92472  Biso   1.000  Cu
  O1       1.0000 0.53710  0.75680  0.02050  Biso   1.000  O
  O2       1.0000 0.96290  0.24320  0.52050  Biso   1.000  O
  O3       1.0000 0.46290  0.25680  0.47950  Biso   1.000  O
  O4       1.0000 0.03710  0.74320  0.97950  Biso   1.000  O
  O5       1.0000 0.66460  0.69430  0.87360  Biso   1.000  O
  O6       1.0000 0.83540  0.30570  0.37360  Biso   1.000  O
  O7       1.0000 0.33540  0.19430  0.62640  Biso   1.000  O
  O8       1.0000 0.16460  0.80570  0.12640  Biso   1.000  O
  O9       1.0000 0.30930  0.70050  0.92370  Biso   1.000  O
  O10      1.0000 0.19070  0.29950  0.42370  Biso   1.000  O
  O11      1.0000 0.69070  0.20050  0.57630  Biso   1.000  O
  O12      1.0000 0.80930  0.79950  0.07630  Biso   1.000  O
  H1       1.0000 0.22930  0.73490  0.92150  Biso   1.000  H
  H2       1.0000 0.27070  0.26510  0.42150  Biso   1.000  H
  H3       1.0000 0.77070  0.23490  0.57850  Biso   1.000  H
  H4       1.0000 0.72930  0.76510  0.07850  Biso   1.000  H
  O13      1.0000 0.18550  0.49030  0.87560  Biso   1.000  O
  O14      1.0000 0.31450  0.50970  0.37560  Biso   1.000  O
  O15      1.0000 0.81450  0.99030  0.62440  Biso   1.000  O
  O16      1.0000 0.68550  0.00970  0.12440  Biso   1.000  O
  H5       1.0000 0.18850  0.56500  0.88900  Biso   1.000  H
  H6       1.0000 0.31150  0.43500  0.38900  Biso   1.000  H
  H7       1.0000 0.81150  0.06500  0.61100  Biso   1.000  H
  H8       1.0000 0.68850  0.93500  0.11100  Biso   1.000  H
  O17      1.0000 0.17130  0.43910  0.64660  Biso   1.000  O
  O18      1.0000 0.32870  0.56090  0.14660  Biso   1.000  O
  O19      1.0000 0.82870  0.93910  0.85340  Biso   1.000  O
  O20      1.0000 0.67130  0.06090  0.35340  Biso   1.000  O
  H9       1.0000 0.10990  0.42490  0.69660  Biso   1.000  H
  H10      1.0000 0.39010  0.57510  0.19660  Biso   1.000  H
  H11      1.0000 0.89010  0.92490  0.80340  Biso   1.000  H
  H12      1.0000 0.60990  0.07510  0.30340  Biso   1.000  H
  O21      1.0000 0.29790  0.65730  0.55990  Biso   1.000  O
  O22      1.0000 0.20210  0.34270  0.05990  Biso   1.000  O
  O23      1.0000 0.70210  0.15730  0.94010  Biso   1.000  O
  O24      1.0000 0.79790  0.84270  0.44010  Biso   1.000  O
  H13      1.0000 0.30350  0.59370  0.52310  Biso   1.000  H
  H14      1.0000 0.19650  0.40630  0.02310  Biso   1.000  H
  H15      1.0000 0.69650  0.09370  0.97690  Biso   1.000  H
  H16      1.0000 0.80350  0.90630  0.47690  Biso   1.000  H
  C1       1.0000 0.55220  0.70780  0.92450  Biso   1.000  C
  C2       1.0000 0.94780  0.29220  0.42450  Biso   1.000  C
  C3       1.0000 0.44780  0.20780  0.57550  Biso   1.000  C
  C4       1.0000 0.05220  0.79220  0.07550  Biso   1.000  C
  C5       1.0000 0.42660  0.65140  0.86400  Biso   1.000  C
  C6       1.0000 0.07340  0.34860  0.36400  Biso   1.000  C
  C7       1.0000 0.57340  0.15140  0.63600  Biso   1.000  C
  C8       1.0000 0.92660  0.84860  0.13600  Biso   1.000  C
  C9       1.0000 0.43400  0.51400  0.87500  Biso   1.000  C
  C10      1.0000 0.06600  0.48600  0.37500  Biso   1.000  C
  C11      1.0000 0.56600  0.01400  0.62500  Biso   1.000  C
  C12      1.0000 0.93400  0.98600  0.12500  Biso   1.000  C
  H17      1.0000 0.43760  0.49190  0.95540  Biso   1.000  H
  H18      1.0000 0.06240  0.50810  0.45540  Biso   1.000  H
  H19      1.0000 0.56240  0.99190  0.54460  Biso   1.000  H
  H20      1.0000 0.93760  0.00810  0.04460  Biso   1.000  H
  H21      1.0000 0.51750  0.48480  0.83870  Biso   1.000  H
  H22      1.0000 0.98250  0.51520  0.33870  Biso   1.000  H
  H23      1.0000 0.48250  0.98480  0.66130  Biso   1.000  H
  H24      1.0000 0.01750  0.01520  0.16130  Biso   1.000  H
  C13      1.0000 0.31020  0.45290  0.81930  Biso   1.000  C
  C14      1.0000 0.18980  0.54710  0.31930  Biso   1.000  C
  C15      1.0000 0.68980  0.95290  0.68070  Biso   1.000  C
  C16      1.0000 0.81020  0.04710  0.18070  Biso   1.000  C
  H25      1.0000 0.31980  0.36380  0.82410  Biso   1.000  H
  H26      1.0000 0.18020  0.63620  0.32410  Biso   1.000  H
  H27      1.0000 0.68020  0.86380  0.67590  Biso   1.000  H
  H28      1.0000 0.81980  0.13620  0.17590  Biso   1.000  H
  C17      1.0000 0.29440  0.49140  0.69310  Biso   1.000  C
  C18      1.0000 0.20560  0.50860  0.19310  Biso   1.000  C
  C19      1.0000 0.70560  0.99140  0.80690  Biso   1.000  C
  C20      1.0000 0.79440  0.00860  0.30690  Biso   1.000  C
  H29      1.0000 0.37270  0.45840  0.65030  Biso   1.000  H
  H30      1.0000 0.12730  0.54160  0.15030  Biso   1.000  H
  H31      1.0000 0.62730  0.95840  0.84970  Biso   1.000  H
  H32      1.0000 0.87270  0.04160  0.34970  Biso   1.000  H
  C21      1.0000 0.29530  0.62970  0.67960  Biso   1.000  C
  C22      1.0000 0.20470  0.37030  0.17960  Biso   1.000  C
  C23      1.0000 0.70470  0.12970  0.82040  Biso   1.000  C
  C24      1.0000 0.79530  0.87030  0.32040  Biso   1.000  C
  H33      1.0000 0.21060  0.66280  0.71280  Biso   1.000  H
  H34      1.0000 0.28940  0.33720  0.21280  Biso   1.000  H
  H35      1.0000 0.78940  0.16280  0.78720  Biso   1.000  H
  H36      1.0000 0.71060  0.83720  0.28720  Biso   1.000  H
  C25      1.0000 0.41840  0.68920  0.73900  Biso   1.000  C
  C26      1.0000 0.08160  0.31080  0.23900  Biso   1.000  C
  C27      1.0000 0.58160  0.18920  0.76100  Biso   1.000  C
  C28      1.0000 0.91840  0.81080  0.26100  Biso   1.000  C
  H37      1.0000 0.50230  0.66540  0.70010  Biso   1.000  H
  H38      1.0000 0.99770  0.33460  0.20010  Biso   1.000  H
  H39      1.0000 0.49770  0.16540  0.79990  Biso   1.000  H
  H40      1.0000 0.00230  0.83460  0.29990  Biso   1.000  H
  H41      1.0000 0.41010  0.77740  0.73410  Biso   1.000  H
  H42      1.0000 0.08990  0.22260  0.23410  Biso   1.000  H
  H43      1.0000 0.58990  0.27740  0.76590  Biso   1.000  H
  H44      1.0000 0.91010  0.72260  0.26590  Biso   1.000  H
  O25      1.0000 0.35980  0.99400  0.02030  Biso   1.000  O
  O26      1.0000 0.14020  0.00600  0.52030  Biso   1.000  O
  O27      1.0000 0.64020  0.49400  0.47970  Biso   1.000  O
  O28      1.0000 0.85980  0.50600  0.97970  Biso   1.000  O
  O29      1.0000 0.30860  0.97390  0.84490  Biso   1.000  O
  O30      1.0000 0.19140  0.02610  0.34490  Biso   1.000  O
  O31      1.0000 0.69140  0.47390  0.65510  Biso   1.000  O
  O32      1.0000 0.80860  0.52610  0.15510  Biso   1.000  O
  O33      1.0000 0.23990  0.13160  0.93230  Biso   1.000  O
  O34      1.0000 0.26010  0.86840  0.43230  Biso   1.000  O
  O35      1.0000 0.76010  0.63160  0.56770  Biso   1.000  O
  O36      1.0000 0.73990  0.36840  0.06770  Biso   1.000  O
  N1       1.0000 0.30080  0.03300  0.93560  Biso   1.000  N
  N2       1.0000 0.19920  0.96700  0.43560  Biso   1.000  N
  N3       1.0000 0.69920  0.53300  0.56440  Biso   1.000  N
  N4       1.0000 0.80080  0.46700  0.06440  Biso   1.000  N
  O37      1.0000 0.41780  0.82490  0.22730  Biso   1.000  O
  O38      1.0000 0.08220  0.17510  0.72730  Biso   1.000  O
  O39      1.0000 0.58220  0.32490  0.27270  Biso   1.000  O
  O40      1.0000 0.91780  0.67510  0.77270  Biso   1.000  O
  H45      1.0000 0.46060  0.76210  0.24610  Biso   1.000  H
  H46      1.0000 0.03940  0.23790  0.74610  Biso   1.000  H
  H47      1.0000 0.53940  0.26210  0.25390  Biso   1.000  H
  H48      1.0000 0.96060  0.73790  0.75390  Biso   1.000  H
  H49      1.0000 0.37570  0.85850  0.28330  Biso   1.000  H
  H50      1.0000 0.12430  0.14150  0.78330  Biso   1.000  H
  H51      1.0000 0.62430  0.35850  0.21670  Biso   1.000  H
  H52      1.0000 0.87570  0.64150  0.71670  Biso   1.000  H
  O41      1.0000 0.08130  0.86870  0.72390  Biso   1.000  O
  O42      1.0000 0.41870  0.13130  0.22390  Biso   1.000  O
  O43      1.0000 0.91870  0.36870  0.77610  Biso   1.000  O
  O44      1.0000 0.58130  0.63130  0.27610  Biso   1.000  O
  H53      1.0000 0.12490  0.90590  0.77480  Biso   1.000  H
  H54      1.0000 0.37510  0.09410  0.27480  Biso   1.000  H
  H55      1.0000 0.87510  0.40590  0.72520  Biso   1.000  H
  H56      1.0000 0.62490  0.59410  0.22520  Biso   1.000  H
  H57      1.0000 0.08810  0.91680  0.66740  Biso   1.000  H
  H58      1.0000 0.41190  0.08320  0.16740  Biso   1.000  H
  H59      1.0000 0.91190  0.41680  0.83260  Biso   1.000  H
  H60      1.0000 0.58810  0.58320  0.33260  Biso   1.000  H
