data_image0
_cell_length_a       9.4842
_cell_length_b       9.0628
_cell_length_c       25.8018
_cell_angle_alpha    90
_cell_angle_beta     97.704
_cell_angle_gamma    90

_symmetry_space_group_name_H-M    "P 1"
_symmetry_int_tables_number       1

loop_
  _symmetry_equiv_pos_as_xyz
  'x, y, z'

loop_
  _atom_site_label
  _atom_site_occupancy
  _atom_site_fract_x
  _atom_site_fract_y
  _atom_site_fract_z
  _atom_site_thermal_displace_type
  _atom_site_B_iso_or_equiv
  _atom_site_type_symbol
  Cu1      1.0000 0.22454  0.99522  0.14899  Biso   1.000  Cu
  Cu2      1.0000 0.27546  0.49522  0.35101  Biso   1.000  Cu
  Cu3      1.0000 0.77546  0.00478  0.85101  Biso   1.000  Cu
  Cu4      1.0000 0.72454  0.50478  0.64899  Biso   1.000  Cu
  C1       1.0000 0.41610  0.74930  0.18310  Biso   1.000  C
  C2       1.0000 0.08390  0.24930  0.31690  Biso   1.000  C
  C3       1.0000 0.58390  0.25070  0.81690  Biso   1.000  C
  C4       1.0000 0.91610  0.75070  0.68310  Biso   1.000  C
  C5       1.0000 0.45850  0.63970  0.22110  Biso   1.000  C
  C6       1.0000 0.04150  0.13970  0.27890  Biso   1.000  C
  C7       1.0000 0.54150  0.36030  0.77890  Biso   1.000  C
  C8       1.0000 0.95850  0.86030  0.72110  Biso   1.000  C
  C9       1.0000 0.58860  0.56830  0.22254  Biso   1.000  C
  C10      1.0000 0.91140  0.06830  0.27746  Biso   1.000  C
  C11      1.0000 0.41140  0.43170  0.77746  Biso   1.000  C
  C12      1.0000 0.08860  0.93170  0.72254  Biso   1.000  C
  H1       1.0000 0.61350  0.49460  0.24830  Biso   1.000  H
  H2       1.0000 0.88650  0.99460  0.25170  Biso   1.000  H
  H3       1.0000 0.38650  0.50540  0.75170  Biso   1.000  H
  H4       1.0000 0.11350  0.00540  0.74830  Biso   1.000  H
  C13      1.0000 0.68390  0.60100  0.18741  Biso   1.000  C
  C14      1.0000 0.81610  0.10100  0.31259  Biso   1.000  C
  C15      1.0000 0.31610  0.39900  0.81259  Biso   1.000  C
  C16      1.0000 0.18390  0.89900  0.68741  Biso   1.000  C
  C17      1.0000 0.64230  0.70930  0.15030  Biso   1.000  C
  C18      1.0000 0.85770  0.20930  0.34970  Biso   1.000  C
  C19      1.0000 0.35770  0.29070  0.84970  Biso   1.000  C
  C20      1.0000 0.14230  0.79070  0.65030  Biso   1.000  C
  H5       1.0000 0.70490  0.73360  0.12580  Biso   1.000  H
  H6       1.0000 0.79510  0.23360  0.37420  Biso   1.000  H
  H7       1.0000 0.29510  0.26640  0.87420  Biso   1.000  H
  H8       1.0000 0.20490  0.76640  0.62580  Biso   1.000  H
  C21      1.0000 0.51220  0.78420  0.14740  Biso   1.000  C
  C22      1.0000 0.98780  0.28420  0.35260  Biso   1.000  C
  C23      1.0000 0.48780  0.21580  0.85260  Biso   1.000  C
  C24      1.0000 0.01220  0.71580  0.64740  Biso   1.000  C
  C25      1.0000 0.36860  0.60850  0.26223  Biso   1.000  C
  C26      1.0000 0.13140  0.10850  0.23777  Biso   1.000  C
  C27      1.0000 0.63140  0.39150  0.73777  Biso   1.000  C
  C28      1.0000 0.86860  0.89150  0.76223  Biso   1.000  C
  O1       1.0000 0.24620  0.67569  0.26004  Biso   1.000  O
  O2       1.0000 0.25380  0.17569  0.23996  Biso   1.000  O
  O3       1.0000 0.75380  0.32431  0.73996  Biso   1.000  O
  O4       1.0000 0.74620  0.82431  0.76004  Biso   1.000  O
  O5       1.0000 0.40729  0.52255  0.29879  Biso   1.000  O
  O6       1.0000 0.09271  0.02255  0.20121  Biso   1.000  O
  O7       1.0000 0.59271  0.47745  0.70121  Biso   1.000  O
  O8       1.0000 0.90729  0.97745  0.79879  Biso   1.000  O
  C29      1.0000 0.82790  0.52150  0.19136  Biso   1.000  C
  C30      1.0000 0.67210  0.02150  0.30864  Biso   1.000  C
  C31      1.0000 0.17210  0.47850  0.80864  Biso   1.000  C
  C32      1.0000 0.32790  0.97850  0.69136  Biso   1.000  C
  C33      1.0000 0.92190  0.58610  0.15348  Biso   1.000  C
  C34      1.0000 0.57810  0.08610  0.34652  Biso   1.000  C
  C35      1.0000 0.07810  0.41390  0.84652  Biso   1.000  C
  C36      1.0000 0.42190  0.91390  0.65348  Biso   1.000  C
  H9       1.0000 0.87350  0.57720  0.11760  Biso   1.000  H
  H10      1.0000 0.62650  0.07720  0.38240  Biso   1.000  H
  H11      1.0000 0.12650  0.42280  0.88240  Biso   1.000  H
  H12      1.0000 0.37350  0.92280  0.61760  Biso   1.000  H
  H13      1.0000 0.01220  0.53220  0.15670  Biso   1.000  H
  H14      1.0000 0.48780  0.03220  0.34330  Biso   1.000  H
  H15      1.0000 0.98780  0.46780  0.84330  Biso   1.000  H
  H16      1.0000 0.51220  0.96780  0.65670  Biso   1.000  H
  H17      1.0000 0.94040  0.69040  0.16180  Biso   1.000  H
  H18      1.0000 0.55960  0.19040  0.33820  Biso   1.000  H
  H19      1.0000 0.05960  0.30960  0.83820  Biso   1.000  H
  H20      1.0000 0.44040  0.80960  0.66180  Biso   1.000  H
  C37      1.0000 0.90630  0.53900  0.24682  Biso   1.000  C
  C38      1.0000 0.59370  0.03900  0.25318  Biso   1.000  C
  C39      1.0000 0.09370  0.46100  0.75318  Biso   1.000  C
  C40      1.0000 0.40630  0.96100  0.74682  Biso   1.000  C
  H21      1.0000 0.99850  0.48880  0.24940  Biso   1.000  H
  H22      1.0000 0.50150  0.98880  0.25060  Biso   1.000  H
  H23      1.0000 0.00150  0.51120  0.75060  Biso   1.000  H
  H24      1.0000 0.49850  0.01120  0.74940  Biso   1.000  H
  H25      1.0000 0.84930  0.49530  0.27190  Biso   1.000  H
  H26      1.0000 0.65070  0.99530  0.22810  Biso   1.000  H
  H27      1.0000 0.15070  0.50470  0.72810  Biso   1.000  H
  H28      1.0000 0.34930  0.00470  0.77190  Biso   1.000  H
  H29      1.0000 0.92130  0.64410  0.25470  Biso   1.000  H
  H30      1.0000 0.57870  0.14410  0.24530  Biso   1.000  H
  H31      1.0000 0.07870  0.35590  0.74530  Biso   1.000  H
  H32      1.0000 0.42130  0.85590  0.75470  Biso   1.000  H
  C41      1.0000 0.80050  0.35760  0.18003  Biso   1.000  C
  C42      1.0000 0.69950  0.85760  0.31997  Biso   1.000  C
  C43      1.0000 0.19950  0.64240  0.81997  Biso   1.000  C
  C44      1.0000 0.30050  0.14240  0.68003  Biso   1.000  C
  H33      1.0000 0.75010  0.34580  0.14460  Biso   1.000  H
  H34      1.0000 0.74990  0.84580  0.35540  Biso   1.000  H
  H35      1.0000 0.24990  0.65420  0.85540  Biso   1.000  H
  H36      1.0000 0.25010  0.15420  0.64460  Biso   1.000  H
  H37      1.0000 0.74250  0.31700  0.20530  Biso   1.000  H
  H38      1.0000 0.75750  0.81700  0.29470  Biso   1.000  H
  H39      1.0000 0.25750  0.68300  0.79470  Biso   1.000  H
  H40      1.0000 0.24250  0.18300  0.70530  Biso   1.000  H
  H41      1.0000 0.89150  0.30500  0.18300  Biso   1.000  H
  H42      1.0000 0.60850  0.80500  0.31700  Biso   1.000  H
  H43      1.0000 0.10850  0.69500  0.81700  Biso   1.000  H
  H44      1.0000 0.39150  0.19500  0.68300  Biso   1.000  H
  C45      1.0000 0.49080  0.90570  0.11115  Biso   1.000  C
  C46      1.0000 0.00920  0.40570  0.38885  Biso   1.000  C
  C47      1.0000 0.50920  0.09430  0.88885  Biso   1.000  C
  C48      1.0000 0.99080  0.59430  0.61115  Biso   1.000  C
  H45      1.0000 0.55760  0.92020  0.08730  Biso   1.000  H
  H46      1.0000 0.94240  0.42020  0.41270  Biso   1.000  H
  H47      1.0000 0.44240  0.07980  0.91270  Biso   1.000  H
  H48      1.0000 0.05760  0.57980  0.58730  Biso   1.000  H
  N1       1.0000 0.38517  0.99553  0.10973  Biso   1.000  N
  N2       1.0000 0.11483  0.49553  0.39027  Biso   1.000  N
  N3       1.0000 0.61483  0.00447  0.89027  Biso   1.000  N
  N4       1.0000 0.88517  0.50447  0.60973  Biso   1.000  N
  N5       1.0000 0.38117  0.11740  0.07723  Biso   1.000  N
  N6       1.0000 0.11883  0.61740  0.42277  Biso   1.000  N
  N7       1.0000 0.61883  0.88260  0.92277  Biso   1.000  N
  N8       1.0000 0.88117  0.38260  0.57723  Biso   1.000  N
  C49      1.0000 0.27930  0.21610  0.08287  Biso   1.000  C
  C50      1.0000 0.22070  0.71610  0.41713  Biso   1.000  C
  C51      1.0000 0.72070  0.78390  0.91713  Biso   1.000  C
  C52      1.0000 0.77930  0.28390  0.58287  Biso   1.000  C
  O9       1.0000 0.19487  0.19125  0.11516  Biso   1.000  O
  O10      1.0000 0.30513  0.69125  0.38484  Biso   1.000  O
  O11      1.0000 0.80513  0.80875  0.88484  Biso   1.000  O
  O12      1.0000 0.69487  0.30875  0.61516  Biso   1.000  O
  C53      1.0000 0.27290  0.35600  0.05063  Biso   1.000  C
  C54      1.0000 0.22710  0.85600  0.44937  Biso   1.000  C
  C55      1.0000 0.72710  0.64400  0.94937  Biso   1.000  C
  C56      1.0000 0.77290  0.14400  0.55063  Biso   1.000  C
  O13      1.0000 0.29152  0.81544  0.18325  Biso   1.000  O
  O14      1.0000 0.20848  0.31544  0.31675  Biso   1.000  O
  O15      1.0000 0.70848  0.18456  0.81675  Biso   1.000  O
  O16      1.0000 0.79152  0.68456  0.68325  Biso   1.000  O
  O17      1.0000 0.04838  0.89890  0.09523  Biso   1.000  O
  O18      1.0000 0.45162  0.39890  0.40477  Biso   1.000  O
  O19      1.0000 0.95162  0.10110  0.90477  Biso   1.000  O
  O20      1.0000 0.54838  0.60110  0.59523  Biso   1.000  O
  C57      1.0000 0.41750  0.43820  0.06600  Biso   1.000  C
  C58      1.0000 0.08250  0.93820  0.43400  Biso   1.000  C
  C59      1.0000 0.58250  0.56180  0.93400  Biso   1.000  C
  C60      1.0000 0.91750  0.06180  0.56600  Biso   1.000  C
  H49      1.0000 0.42570  0.46870  0.10270  Biso   1.000  H
  H50      1.0000 0.07430  0.96870  0.39730  Biso   1.000  H
  H51      1.0000 0.57430  0.53130  0.89730  Biso   1.000  H
  H52      1.0000 0.92570  0.03130  0.60270  Biso   1.000  H
  H53      1.0000 0.42100  0.52550  0.04380  Biso   1.000  H
  H54      1.0000 0.07900  0.02550  0.45620  Biso   1.000  H
  H55      1.0000 0.57900  0.47450  0.95620  Biso   1.000  H
  H56      1.0000 0.92100  0.97450  0.54380  Biso   1.000  H
  H57      1.0000 0.49630  0.37190  0.06110  Biso   1.000  H
  H58      1.0000 0.00370  0.87190  0.43890  Biso   1.000  H
  H59      1.0000 0.50370  0.62810  0.93890  Biso   1.000  H
  H60      1.0000 0.99630  0.12810  0.56110  Biso   1.000  H
  C61      1.0000 0.15890  0.45670  0.06700  Biso   1.000  C
  C62      1.0000 0.34110  0.95670  0.43300  Biso   1.000  C
  C63      1.0000 0.84110  0.54330  0.93300  Biso   1.000  C
  C64      1.0000 0.65890  0.04330  0.56700  Biso   1.000  C
  H61      1.0000 0.17280  0.46730  0.10520  Biso   1.000  H
  H62      1.0000 0.32720  0.96730  0.39480  Biso   1.000  H
  H63      1.0000 0.82720  0.53270  0.89480  Biso   1.000  H
  H64      1.0000 0.67280  0.03270  0.60520  Biso   1.000  H
  H65      1.0000 0.06490  0.41410  0.05560  Biso   1.000  H
  H66      1.0000 0.43510  0.91410  0.44440  Biso   1.000  H
  H67      1.0000 0.93510  0.58590  0.94440  Biso   1.000  H
  H68      1.0000 0.56490  0.08590  0.55560  Biso   1.000  H
  H69      1.0000 0.16550  0.55390  0.05080  Biso   1.000  H
  H70      1.0000 0.33450  0.05390  0.44920  Biso   1.000  H
  H71      1.0000 0.83450  0.44610  0.94920  Biso   1.000  H
  H72      1.0000 0.66550  0.94610  0.55080  Biso   1.000  H
  C65      1.0000 0.25690  0.32170  0.99440  Biso   1.000  C
  C66      1.0000 0.24310  0.82170  0.50560  Biso   1.000  C
  C67      1.0000 0.74310  0.67830  0.00560  Biso   1.000  C
  C68      1.0000 0.75690  0.17830  0.49440  Biso   1.000  C
  H73      1.0000 0.25280  0.41370  0.97430  Biso   1.000  H
  H74      1.0000 0.24720  0.91370  0.52570  Biso   1.000  H
  H75      1.0000 0.74720  0.58630  0.02570  Biso   1.000  H
  H76      1.0000 0.75280  0.08630  0.47430  Biso   1.000  H
  H77      1.0000 0.16890  0.26570  0.98470  Biso   1.000  H
  H78      1.0000 0.33110  0.76570  0.51530  Biso   1.000  H
  H79      1.0000 0.83110  0.73430  0.01530  Biso   1.000  H
  H80      1.0000 0.66890  0.23430  0.48470  Biso   1.000  H
  H81      1.0000 0.33830  0.26280  0.98680  Biso   1.000  H
  H82      1.0000 0.16170  0.76280  0.51320  Biso   1.000  H
  H83      1.0000 0.66170  0.73720  0.01320  Biso   1.000  H
  H84      1.0000 0.83830  0.23720  0.48680  Biso   1.000  H
  H85      1.0000 0.06900  0.88900  0.06580  Biso   1.000  H
  H86      1.0000 0.43100  0.38900  0.43420  Biso   1.000  H
  H87      1.0000 0.93100  0.11100  0.93420  Biso   1.000  H
  H88      1.0000 0.56900  0.61100  0.56580  Biso   1.000  H
  H89      1.0000 0.97700  0.95000  0.09370  Biso   1.000  H
  H90      1.0000 0.52300  0.45000  0.40630  Biso   1.000  H
  H91      1.0000 0.02300  0.05000  0.90630  Biso   1.000  H
  H92      1.0000 0.47700  0.55000  0.59370  Biso   1.000  H
  H93      1.0000 0.24300  0.73900  0.23580  Biso   1.000  H
  H94      1.0000 0.25700  0.23900  0.26420  Biso   1.000  H
  H95      1.0000 0.75700  0.26100  0.76420  Biso   1.000  H
  H96      1.0000 0.74300  0.76100  0.73580  Biso   1.000  H
  H97      1.0000 0.44400  0.12600  0.05620  Biso   1.000  H
  H98      1.0000 0.05600  0.62600  0.44380  Biso   1.000  H
  H99      1.0000 0.55600  0.87400  0.94380  Biso   1.000  H
  H100     1.0000 0.94400  0.37400  0.55620  Biso   1.000  H
  C69      1.0000 0.33100  0.47650  0.08330  Biso   1.000  C
  C70      1.0000 0.16900  0.97650  0.41670  Biso   1.000  C
  C71      1.0000 0.66900  0.52350  0.91670  Biso   1.000  C
  C72      1.0000 0.83100  0.02350  0.58330  Biso   1.000  C
  H101     1.0000 0.27480  0.48990  0.11210  Biso   1.000  H
  H102     1.0000 0.22520  0.98990  0.38790  Biso   1.000  H
  H103     1.0000 0.72520  0.51010  0.88790  Biso   1.000  H
  H104     1.0000 0.77480  0.01010  0.61210  Biso   1.000  H
  H105     1.0000 0.32800  0.56710  0.06240  Biso   1.000  H
  H106     1.0000 0.17200  0.06710  0.43760  Biso   1.000  H
  H107     1.0000 0.67200  0.43290  0.93760  Biso   1.000  H
  H108     1.0000 0.82800  0.93290  0.56240  Biso   1.000  H
  H109     1.0000 0.42980  0.45420  0.09740  Biso   1.000  H
  H110     1.0000 0.07020  0.95420  0.40260  Biso   1.000  H
  H111     1.0000 0.57020  0.54580  0.90260  Biso   1.000  H
  H112     1.0000 0.92980  0.04580  0.59740  Biso   1.000  H
  C73      1.0000 0.11360  0.38490  0.02960  Biso   1.000  C
  C74      1.0000 0.38640  0.88490  0.47040  Biso   1.000  C
  C75      1.0000 0.88640  0.61510  0.97040  Biso   1.000  C
  C76      1.0000 0.61360  0.11510  0.52960  Biso   1.000  C
  H113     1.0000 0.05690  0.38140  0.05860  Biso   1.000  H
  H114     1.0000 0.44310  0.88140  0.44140  Biso   1.000  H
  H115     1.0000 0.94310  0.61860  0.94140  Biso   1.000  H
  H116     1.0000 0.55690  0.11860  0.55860  Biso   1.000  H
  H117     1.0000 0.07970  0.30910  0.00380  Biso   1.000  H
  H118     1.0000 0.42030  0.80910  0.49620  Biso   1.000  H
  H119     1.0000 0.92030  0.69090  0.99620  Biso   1.000  H
  H120     1.0000 0.57970  0.19090  0.50380  Biso   1.000  H
  H121     1.0000 0.10390  0.48240  0.01300  Biso   1.000  H
  H122     1.0000 0.39610  0.98240  0.48700  Biso   1.000  H
  H123     1.0000 0.89610  0.51760  0.98700  Biso   1.000  H
  H124     1.0000 0.60390  0.01760  0.51300  Biso   1.000  H
  C77      1.0000 0.34800  0.33940  0.00190  Biso   1.000  C
  C78      1.0000 0.15200  0.83940  0.49810  Biso   1.000  C
  C79      1.0000 0.65200  0.66060  0.99810  Biso   1.000  C
  C80      1.0000 0.84800  0.16060  0.50190  Biso   1.000  C
  H125     1.0000 0.30990  0.25260  0.98200  Biso   1.000  H
  H126     1.0000 0.19010  0.75260  0.51800  Biso   1.000  H
  H127     1.0000 0.69010  0.74740  0.01800  Biso   1.000  H
  H128     1.0000 0.80990  0.24740  0.48200  Biso   1.000  H
  H129     1.0000 0.45000  0.32720  0.01250  Biso   1.000  H
  H130     1.0000 0.05000  0.82720  0.48750  Biso   1.000  H
  H131     1.0000 0.55000  0.67280  0.98750  Biso   1.000  H
  H132     1.0000 0.95000  0.17280  0.51250  Biso   1.000  H
  H133     1.0000 0.33050  0.42760  0.98010  Biso   1.000  H
  H134     1.0000 0.16950  0.92760  0.51990  Biso   1.000  H
  H135     1.0000 0.66950  0.57240  0.01990  Biso   1.000  H
  H136     1.0000 0.83050  0.07240  0.48010  Biso   1.000  H
  Cl1      1.0000 0.25660  0.36093  0.53551  Biso   1.000  Cl
  Cl2      1.0000 0.24340  0.86093  0.96449  Biso   1.000  Cl
  Cl3      1.0000 0.74340  0.63907  0.46449  Biso   1.000  Cl
  Cl4      1.0000 0.75660  0.13907  0.03551  Biso   1.000  Cl
  O21      1.0000 0.27370  0.20630  0.53962  Biso   1.000  O
  O22      1.0000 0.22630  0.70630  0.96038  Biso   1.000  O
  O23      1.0000 0.72630  0.79370  0.46038  Biso   1.000  O
  O24      1.0000 0.77370  0.29370  0.03962  Biso   1.000  O
  O25      1.0000 0.35220  0.42400  0.50286  Biso   1.000  O
  O26      1.0000 0.14780  0.92400  0.99714  Biso   1.000  O
  O27      1.0000 0.64780  0.57600  0.49714  Biso   1.000  O
  O28      1.0000 0.85220  0.07600  0.00286  Biso   1.000  O
  O29      1.0000 0.28475  0.42860  0.58638  Biso   1.000  O
  O30      1.0000 0.21525  0.92860  0.91362  Biso   1.000  O
  O31      1.0000 0.71525  0.57140  0.41362  Biso   1.000  O
  O32      1.0000 0.78475  0.07140  0.08638  Biso   1.000  O
  O33      1.0000 0.11235  0.39550  0.51330  Biso   1.000  O
  O34      1.0000 0.38765  0.89550  0.98670  Biso   1.000  O
  O35      1.0000 0.88765  0.60450  0.48670  Biso   1.000  O
  O36      1.0000 0.61235  0.10450  0.01330  Biso   1.000  O
