data_image0
_cell_length_a       16.798
_cell_length_b       11.1363
_cell_length_c       13.4707
_cell_angle_alpha    90
_cell_angle_beta     126.939
_cell_angle_gamma    90

_symmetry_space_group_name_H-M    "P 1"
_symmetry_int_tables_number       1

loop_
  _symmetry_equiv_pos_as_xyz
  'x, y, z'

loop_
  _atom_site_label
  _atom_site_occupancy
  _atom_site_fract_x
  _atom_site_fract_y
  _atom_site_fract_z
  _atom_site_thermal_displace_type
  _atom_site_B_iso_or_equiv
  _atom_site_type_symbol
  Cu1      1.0000 0.50000  0.73427  0.75000  Biso   1.000  Cu
  Cu2      1.0000 0.00000  0.23427  0.75000  Biso   1.000  Cu
  Cu3      1.0000 0.50000  0.26572  0.25000  Biso   1.000  Cu
  Cu4      1.0000 0.00000  0.76572  0.25000  Biso   1.000  Cu
  O1       1.0000 0.66976  0.69447  0.63008  Biso   1.000  O
  O2       1.0000 0.33024  0.69447  0.86992  Biso   1.000  O
  O3       1.0000 0.16976  0.19447  0.63008  Biso   1.000  O
  O4       1.0000 0.83024  0.19447  0.86992  Biso   1.000  O
  O5       1.0000 0.33024  0.30553  0.36992  Biso   1.000  O
  O6       1.0000 0.66976  0.30553  0.13008  Biso   1.000  O
  O7       1.0000 0.83024  0.80553  0.36992  Biso   1.000  O
  O8       1.0000 0.16976  0.80553  0.13008  Biso   1.000  O
  O9       1.0000 0.70163  0.88887  0.63638  Biso   1.000  O
  O10      1.0000 0.29837  0.88887  0.86362  Biso   1.000  O
  O11      1.0000 0.20163  0.38887  0.63638  Biso   1.000  O
  O12      1.0000 0.79837  0.38887  0.86362  Biso   1.000  O
  O13      1.0000 0.29837  0.11113  0.36362  Biso   1.000  O
  O14      1.0000 0.70163  0.11113  0.13638  Biso   1.000  O
  O15      1.0000 0.79837  0.61113  0.36362  Biso   1.000  O
  O16      1.0000 0.20163  0.61113  0.13638  Biso   1.000  O
  C1       1.0000 0.69992  0.78378  0.60518  Biso   1.000  C
  C2       1.0000 0.30008  0.78378  0.89482  Biso   1.000  C
  C3       1.0000 0.19992  0.28378  0.60518  Biso   1.000  C
  C4       1.0000 0.80008  0.28378  0.89482  Biso   1.000  C
  C5       1.0000 0.30008  0.21622  0.39482  Biso   1.000  C
  C6       1.0000 0.69992  0.21622  0.10518  Biso   1.000  C
  C7       1.0000 0.80008  0.71622  0.39482  Biso   1.000  C
  C8       1.0000 0.19992  0.71622  0.10518  Biso   1.000  C
  C9       1.0000 0.73526  0.76010  0.52969  Biso   1.000  C
  C10      1.0000 0.26474  0.76010  0.97031  Biso   1.000  C
  C11      1.0000 0.23526  0.26010  0.52969  Biso   1.000  C
  C12      1.0000 0.76474  0.26010  0.97031  Biso   1.000  C
  C13      1.0000 0.26474  0.23990  0.47031  Biso   1.000  C
  C14      1.0000 0.73526  0.23990  0.02969  Biso   1.000  C
  C15      1.0000 0.76474  0.73990  0.47031  Biso   1.000  C
  C16      1.0000 0.23526  0.73990  0.02969  Biso   1.000  C
  N1       1.0000 0.50000  0.55273  0.75000  Biso   1.000  N
  N2       1.0000 0.00000  0.05273  0.75000  Biso   1.000  N
  N3       1.0000 0.50000  0.44727  0.25000  Biso   1.000  N
  N4       1.0000 0.00000  0.94727  0.25000  Biso   1.000  N
  N5       1.0000 0.50000  0.91561  0.75000  Biso   1.000  N
  N6       1.0000 0.00000  0.41561  0.75000  Biso   1.000  N
  N7       1.0000 0.50000  0.08439  0.25000  Biso   1.000  N
  N8       1.0000 0.00000  0.58439  0.25000  Biso   1.000  N
  C17      1.0000 0.47943  0.49064  0.81715  Biso   1.000  C
  C18      1.0000 0.52057  0.49064  0.68285  Biso   1.000  C
  C19      1.0000 0.97943  0.99064  0.81715  Biso   1.000  C
  C20      1.0000 0.02057  0.99064  0.68285  Biso   1.000  C
  C21      1.0000 0.52057  0.50936  0.18285  Biso   1.000  C
  C22      1.0000 0.47943  0.50936  0.31715  Biso   1.000  C
  C23      1.0000 0.02057  0.00936  0.18285  Biso   1.000  C
  C24      1.0000 0.97943  0.00936  0.31715  Biso   1.000  C
  H1       1.0000 0.46450  0.53280  0.86370  Biso   1.000  H
  H2       1.0000 0.53550  0.53280  0.63630  Biso   1.000  H
  H3       1.0000 0.96450  0.03280  0.86370  Biso   1.000  H
  H4       1.0000 0.03550  0.03280  0.63630  Biso   1.000  H
  H5       1.0000 0.53550  0.46720  0.13630  Biso   1.000  H
  H6       1.0000 0.46450  0.46720  0.36370  Biso   1.000  H
  H7       1.0000 0.03550  0.96720  0.13630  Biso   1.000  H
  H8       1.0000 0.96450  0.96720  0.36370  Biso   1.000  H
  C25      1.0000 0.47940  0.36620  0.82024  Biso   1.000  C
  C26      1.0000 0.52060  0.36620  0.67976  Biso   1.000  C
  C27      1.0000 0.97940  0.86620  0.82024  Biso   1.000  C
  C28      1.0000 0.02060  0.86620  0.67976  Biso   1.000  C
  C29      1.0000 0.52060  0.63380  0.17976  Biso   1.000  C
  C30      1.0000 0.47940  0.63380  0.32024  Biso   1.000  C
  C31      1.0000 0.02060  0.13380  0.17976  Biso   1.000  C
  C32      1.0000 0.97940  0.13380  0.32024  Biso   1.000  C
  H9       1.0000 0.46570  0.32650  0.86910  Biso   1.000  H
  H10      1.0000 0.53430  0.32650  0.63090  Biso   1.000  H
  H11      1.0000 0.96570  0.82650  0.86910  Biso   1.000  H
  H12      1.0000 0.03430  0.82650  0.63090  Biso   1.000  H
  H13      1.0000 0.53430  0.67350  0.13090  Biso   1.000  H
  H14      1.0000 0.46570  0.67350  0.36910  Biso   1.000  H
  H15      1.0000 0.03430  0.17350  0.13090  Biso   1.000  H
  H16      1.0000 0.96570  0.17350  0.36910  Biso   1.000  H
  C33      1.0000 0.50000  0.30084  0.75000  Biso   1.000  C
  C34      1.0000 0.00000  0.80084  0.75000  Biso   1.000  C
  C35      1.0000 0.50000  0.69916  0.25000  Biso   1.000  C
  C36      1.0000 0.00000  0.19916  0.25000  Biso   1.000  C
  C37      1.0000 0.50000  0.16740  0.75000  Biso   1.000  C
  C38      1.0000 0.00000  0.66740  0.75000  Biso   1.000  C
  C39      1.0000 0.50000  0.83260  0.25000  Biso   1.000  C
  C40      1.0000 0.00000  0.33260  0.25000  Biso   1.000  C
  C41      1.0000 0.46846  0.10201  0.80867  Biso   1.000  C
  C42      1.0000 0.53154  0.10201  0.69133  Biso   1.000  C
  C43      1.0000 0.96846  0.60201  0.80867  Biso   1.000  C
  C44      1.0000 0.03154  0.60201  0.69133  Biso   1.000  C
  C45      1.0000 0.53154  0.89799  0.19133  Biso   1.000  C
  C46      1.0000 0.46846  0.89799  0.30867  Biso   1.000  C
  C47      1.0000 0.03154  0.39799  0.19133  Biso   1.000  C
  C48      1.0000 0.96846  0.39799  0.30867  Biso   1.000  C
  H17      1.0000 0.44710  0.14170  0.84950  Biso   1.000  H
  H18      1.0000 0.55290  0.14170  0.65050  Biso   1.000  H
  H19      1.0000 0.94710  0.64170  0.84950  Biso   1.000  H
  H20      1.0000 0.05290  0.64170  0.65050  Biso   1.000  H
  H21      1.0000 0.55290  0.85830  0.15050  Biso   1.000  H
  H22      1.0000 0.44710  0.85830  0.34950  Biso   1.000  H
  H23      1.0000 0.05290  0.35830  0.15050  Biso   1.000  H
  H24      1.0000 0.94710  0.35830  0.34950  Biso   1.000  H
  C49      1.0000 0.46903  0.97756  0.80614  Biso   1.000  C
  C50      1.0000 0.53097  0.97756  0.69386  Biso   1.000  C
  C51      1.0000 0.96903  0.47756  0.80614  Biso   1.000  C
  C52      1.0000 0.03097  0.47756  0.69386  Biso   1.000  C
  C53      1.0000 0.53097  0.02244  0.19386  Biso   1.000  C
  C54      1.0000 0.46903  0.02244  0.30614  Biso   1.000  C
  C55      1.0000 0.03097  0.52244  0.19386  Biso   1.000  C
  C56      1.0000 0.96903  0.52244  0.30614  Biso   1.000  C
  H25      1.0000 0.44700  0.93540  0.84500  Biso   1.000  H
  H26      1.0000 0.55300  0.93540  0.65500  Biso   1.000  H
  H27      1.0000 0.94700  0.43540  0.84500  Biso   1.000  H
  H28      1.0000 0.05300  0.43540  0.65500  Biso   1.000  H
  H29      1.0000 0.55300  0.06460  0.15500  Biso   1.000  H
  H30      1.0000 0.44700  0.06460  0.34500  Biso   1.000  H
  H31      1.0000 0.05300  0.56460  0.15500  Biso   1.000  H
  H32      1.0000 0.94700  0.56460  0.34500  Biso   1.000  H
  O17      1.0000 0.63493  0.73641  0.79195  Biso   1.000  O
  O18      1.0000 0.36507  0.73641  0.70805  Biso   1.000  O
  O19      1.0000 0.13493  0.23641  0.79195  Biso   1.000  O
  O20      1.0000 0.86507  0.23641  0.70805  Biso   1.000  O
  O21      1.0000 0.36507  0.26359  0.20805  Biso   1.000  O
  O22      1.0000 0.63493  0.26359  0.29195  Biso   1.000  O
  O23      1.0000 0.86507  0.76359  0.20805  Biso   1.000  O
  O24      1.0000 0.13493  0.76359  0.29195  Biso   1.000  O
  H33      1.0000 0.64430  0.72700  0.73230  Biso   1.000  H
  H34      1.0000 0.35570  0.72700  0.76770  Biso   1.000  H
  H35      1.0000 0.14430  0.22700  0.73230  Biso   1.000  H
  H36      1.0000 0.85570  0.22700  0.76770  Biso   1.000  H
  H37      1.0000 0.35570  0.27300  0.26770  Biso   1.000  H
  H38      1.0000 0.64430  0.27300  0.23230  Biso   1.000  H
  H39      1.0000 0.85570  0.77300  0.26770  Biso   1.000  H
  H40      1.0000 0.14430  0.77300  0.23230  Biso   1.000  H
  H41      1.0000 0.67860  0.68020  0.85110  Biso   1.000  H
  H42      1.0000 0.32140  0.68020  0.64890  Biso   1.000  H
  H43      1.0000 0.17860  0.18020  0.85110  Biso   1.000  H
  H44      1.0000 0.82140  0.18020  0.64890  Biso   1.000  H
  H45      1.0000 0.32140  0.31980  0.14890  Biso   1.000  H
  H46      1.0000 0.67860  0.31980  0.35110  Biso   1.000  H
  H47      1.0000 0.82140  0.81980  0.14890  Biso   1.000  H
  H48      1.0000 0.17860  0.81980  0.35110  Biso   1.000  H
  O25      1.0000 0.58245  0.74214  0.97322  Biso   1.000  O
  O26      1.0000 0.41755  0.74214  0.52678  Biso   1.000  O
  O27      1.0000 0.08245  0.24214  0.97322  Biso   1.000  O
  O28      1.0000 0.91755  0.24214  0.52678  Biso   1.000  O
  O29      1.0000 0.41755  0.25786  0.02678  Biso   1.000  O
  O30      1.0000 0.58245  0.25786  0.47322  Biso   1.000  O
  O31      1.0000 0.91755  0.75786  0.02678  Biso   1.000  O
  O32      1.0000 0.08245  0.75786  0.47322  Biso   1.000  O
  H49      1.0000 0.63240  0.79700  0.00100  Biso   1.000  H
  H50      1.0000 0.36760  0.79700  0.49900  Biso   1.000  H
  H51      1.0000 0.13240  0.29700  0.00100  Biso   1.000  H
  H52      1.0000 0.86760  0.29700  0.49900  Biso   1.000  H
  H53      1.0000 0.36760  0.20300  0.99900  Biso   1.000  H
  H54      1.0000 0.63240  0.20300  0.50100  Biso   1.000  H
  H55      1.0000 0.86760  0.70300  0.99900  Biso   1.000  H
  H56      1.0000 0.13240  0.70300  0.50100  Biso   1.000  H
  H57      1.0000 0.62430  0.68100  0.02100  Biso   1.000  H
  H58      1.0000 0.37570  0.68100  0.47900  Biso   1.000  H
  H59      1.0000 0.12430  0.18100  0.02100  Biso   1.000  H
  H60      1.0000 0.87570  0.18100  0.47900  Biso   1.000  H
  H61      1.0000 0.37570  0.31900  0.97900  Biso   1.000  H
  H62      1.0000 0.62430  0.31900  0.52100  Biso   1.000  H
  H63      1.0000 0.87570  0.81900  0.97900  Biso   1.000  H
  H64      1.0000 0.12430  0.81900  0.52100  Biso   1.000  H
  O33      1.0000 0.77247  0.58263  0.96584  Biso   1.000  O
  O34      1.0000 0.22753  0.58263  0.53416  Biso   1.000  O
  O35      1.0000 0.27247  0.08263  0.96584  Biso   1.000  O
  O36      1.0000 0.72753  0.08263  0.53416  Biso   1.000  O
  O37      1.0000 0.22753  0.41737  0.03416  Biso   1.000  O
  O38      1.0000 0.77247  0.41737  0.46584  Biso   1.000  O
  O39      1.0000 0.72753  0.91737  0.03416  Biso   1.000  O
  O40      1.0000 0.27247  0.91737  0.46584  Biso   1.000  O
  H65      1.0000 0.77800  0.51040  0.93600  Biso   1.000  H
  H66      1.0000 0.22200  0.51040  0.56400  Biso   1.000  H
  H67      1.0000 0.27800  0.01040  0.93600  Biso   1.000  H
  H68      1.0000 0.72200  0.01040  0.56400  Biso   1.000  H
  H69      1.0000 0.22200  0.48960  0.06400  Biso   1.000  H
  H70      1.0000 0.77800  0.48960  0.43600  Biso   1.000  H
  H71      1.0000 0.72200  0.98960  0.06400  Biso   1.000  H
  H72      1.0000 0.27800  0.98960  0.43600  Biso   1.000  H
  H73      1.0000 0.75880  0.56600  0.02210  Biso   1.000  H
  H74      1.0000 0.24120  0.56600  0.47790  Biso   1.000  H
  H75      1.0000 0.25880  0.06600  0.02210  Biso   1.000  H
  H76      1.0000 0.74120  0.06600  0.47790  Biso   1.000  H
  H77      1.0000 0.24120  0.43400  0.97790  Biso   1.000  H
  H78      1.0000 0.75880  0.43400  0.52210  Biso   1.000  H
  H79      1.0000 0.74120  0.93400  0.97790  Biso   1.000  H
  H80      1.0000 0.25880  0.93400  0.52210  Biso   1.000  H
  O41      1.0000 0.70576  0.45734  0.61172  Biso   1.000  O
  O42      1.0000 0.29424  0.45734  0.88828  Biso   1.000  O
  O43      1.0000 0.20576  0.95734  0.61172  Biso   1.000  O
  O44      1.0000 0.79424  0.95734  0.88828  Biso   1.000  O
  O45      1.0000 0.29424  0.54266  0.38828  Biso   1.000  O
  O46      1.0000 0.70576  0.54266  0.11172  Biso   1.000  O
  O47      1.0000 0.79424  0.04266  0.38828  Biso   1.000  O
  O48      1.0000 0.20576  0.04266  0.11172  Biso   1.000  O
  H81      1.0000 0.73990  0.43500  0.69430  Biso   1.000  H
  H82      1.0000 0.26010  0.43500  0.80570  Biso   1.000  H
  H83      1.0000 0.23990  0.93500  0.69430  Biso   1.000  H
  H84      1.0000 0.76010  0.93500  0.80570  Biso   1.000  H
  H85      1.0000 0.26010  0.56500  0.30570  Biso   1.000  H
  H86      1.0000 0.73990  0.56500  0.19430  Biso   1.000  H
  H87      1.0000 0.76010  0.06500  0.30570  Biso   1.000  H
  H88      1.0000 0.23990  0.06500  0.19430  Biso   1.000  H
  H89      1.0000 0.69200  0.53740  0.61300  Biso   1.000  H
  H90      1.0000 0.30800  0.53740  0.88700  Biso   1.000  H
  H91      1.0000 0.19200  0.03740  0.61300  Biso   1.000  H
  H92      1.0000 0.80800  0.03740  0.88700  Biso   1.000  H
  H93      1.0000 0.30800  0.46260  0.38700  Biso   1.000  H
  H94      1.0000 0.69200  0.46260  0.11300  Biso   1.000  H
  H95      1.0000 0.80800  0.96260  0.38700  Biso   1.000  H
  H96      1.0000 0.19200  0.96260  0.11300  Biso   1.000  H
