data_image0
_cell_length_a       8.135
_cell_length_b       8.834
_cell_length_c       10.015
_cell_angle_alpha    70.545
_cell_angle_beta     71.103
_cell_angle_gamma    75.785

_symmetry_space_group_name_H-M    "P 1"
_symmetry_int_tables_number       1

loop_
  _symmetry_equiv_pos_as_xyz
  'x, y, z'

loop_
  _atom_site_label
  _atom_site_occupancy
  _atom_site_fract_x
  _atom_site_fract_y
  _atom_site_fract_z
  _atom_site_thermal_displace_type
  _atom_site_B_iso_or_equiv
  _atom_site_type_symbol
  Cu1      1.0000 0.04022  0.15036  0.87984  Biso   1.000  Cu
  Cu2      1.0000 0.95978  0.84964  0.12016  Biso   1.000  Cu
  N1       1.0000 0.91710  0.30710  0.73310  Biso   1.000  N
  N2       1.0000 0.08290  0.69290  0.26690  Biso   1.000  N
  N3       1.0000 0.94700  0.53750  0.78690  Biso   1.000  N
  N4       1.0000 0.05300  0.46250  0.21310  Biso   1.000  N
  H1       1.0000 0.88200  0.62160  0.81190  Biso   1.000  H
  H2       1.0000 0.11800  0.37840  0.18810  Biso   1.000  H
  N5       1.0000 0.17370  0.32850  0.85520  Biso   1.000  N
  N6       1.0000 0.82630  0.67150  0.14480  Biso   1.000  N
  O1       1.0000 0.23100  0.04420  0.70600  Biso   1.000  O
  O2       1.0000 0.76900  0.95580  0.29400  Biso   1.000  O
  C1       1.0000 0.52040  0.98950  0.56100  Biso   1.000  C
  C2       1.0000 0.47960  0.01050  0.43900  Biso   1.000  C
  H3       1.0000 0.63870  0.97580  0.55730  Biso   1.000  H
  H4       1.0000 0.36130  0.02420  0.44270  Biso   1.000  H
  O3       1.0000 0.19700  0.13990  0.22340  Biso   1.000  O
  O4       1.0000 0.80300  0.86010  0.77660  Biso   1.000  O
  O5       1.0000 0.13680  0.99690  0.04007  Biso   1.000  O
  O6       1.0000 0.86320  0.00310  0.95993  Biso   1.000  O
  C3       1.0000 0.85960  0.24570  0.65180  Biso   1.000  C
  C4       1.0000 0.14040  0.75430  0.34820  Biso   1.000  C
  H5       1.0000 0.88770  0.13470  0.66150  Biso   1.000  H
  H6       1.0000 0.11230  0.86530  0.33850  Biso   1.000  H
  C5       1.0000 0.76250  0.33930  0.55650  Biso   1.000  C
  C6       1.0000 0.23750  0.66070  0.44350  Biso   1.000  C
  H7       1.0000 0.72420  0.29280  0.50330  Biso   1.000  H
  H8       1.0000 0.27580  0.70720  0.49670  Biso   1.000  H
  C7       1.0000 0.72210  0.50550  0.54060  Biso   1.000  C
  C8       1.0000 0.27790  0.49450  0.45940  Biso   1.000  C
  H9       1.0000 0.65450  0.57160  0.47740  Biso   1.000  H
  H10      1.0000 0.34550  0.42840  0.52260  Biso   1.000  H
  C9       1.0000 0.78210  0.57110  0.61790  Biso   1.000  C
  C10      1.0000 0.21790  0.42890  0.38210  Biso   1.000  C
  H11      1.0000 0.75690  0.68230  0.60760  Biso   1.000  H
  H12      1.0000 0.24310  0.31770  0.39240  Biso   1.000  H
  C11      1.0000 0.88220  0.46860  0.71330  Biso   1.000  C
  C12      1.0000 0.11780  0.53140  0.28670  Biso   1.000  C
  C13      1.0000 0.10460  0.48700  0.82520  Biso   1.000  C
  C14      1.0000 0.89540  0.51300  0.17480  Biso   1.000  C
  C15      1.0000 0.18780  0.60620  0.82970  Biso   1.000  C
  C16      1.0000 0.81220  0.39380  0.17030  Biso   1.000  C
  H13      1.0000 0.13500  0.71440  0.81240  Biso   1.000  H
  H14      1.0000 0.86500  0.28560  0.18760  Biso   1.000  H
  C17      1.0000 0.34770  0.56000  0.85990  Biso   1.000  C
  C18      1.0000 0.65230  0.44000  0.14010  Biso   1.000  C
  H15      1.0000 0.40490  0.63670  0.86410  Biso   1.000  H
  H16      1.0000 0.59510  0.36330  0.13590  Biso   1.000  H
  C19      1.0000 0.42470  0.39760  0.88420  Biso   1.000  C
  C20      1.0000 0.57530  0.60240  0.11580  Biso   1.000  C
  H17      1.0000 0.53520  0.36460  0.90200  Biso   1.000  H
  H18      1.0000 0.46480  0.63540  0.09800  Biso   1.000  H
  C21      1.0000 0.33450  0.28750  0.88130  Biso   1.000  C
  C22      1.0000 0.66550  0.71250  0.11870  Biso   1.000  C
  H19      1.0000 0.38610  0.17900  0.89810  Biso   1.000  H
  H20      1.0000 0.61390  0.82100  0.10190  Biso   1.000  H
  C23      1.0000 0.38770  0.98650  0.70630  Biso   1.000  C
  C24      1.0000 0.61230  0.01350  0.29370  Biso   1.000  C
  O7       1.0000 0.44350  0.92390  0.81960  Biso   1.000  O
  O8       1.0000 0.55650  0.07610  0.18040  Biso   1.000  O
  H21      1.0000 0.17000  0.09800  0.17200  Biso   1.000  H
  H22      1.0000 0.83000  0.90200  0.82800  Biso   1.000  H
  H23      1.0000 0.30510  0.12500  0.20700  Biso   1.000  H
  H24      1.0000 0.69490  0.87500  0.79300  Biso   1.000  H
  H25      1.0000 0.22900  0.95600  0.99400  Biso   1.000  H
  H26      1.0000 0.77100  0.04400  0.00600  Biso   1.000  H
