data_image0
_cell_length_a       6.81
_cell_length_b       17.9628
_cell_length_c       12.0159
_cell_angle_alpha    90
_cell_angle_beta     111.17
_cell_angle_gamma    90

_symmetry_space_group_name_H-M    "P 1"
_symmetry_int_tables_number       1

loop_
  _symmetry_equiv_pos_as_xyz
  'x, y, z'

loop_
  _atom_site_label
  _atom_site_occupancy
  _atom_site_fract_x
  _atom_site_fract_y
  _atom_site_fract_z
  _atom_site_thermal_displace_type
  _atom_site_B_iso_or_equiv
  _atom_site_type_symbol
  Cu1      1.0000 0.80132  0.89838  0.36428  Biso   1.000  Cu
  Cu2      1.0000 0.19868  0.39838  0.13572  Biso   1.000  Cu
  Cu3      1.0000 0.19868  0.10162  0.63572  Biso   1.000  Cu
  Cu4      1.0000 0.80132  0.60162  0.86428  Biso   1.000  Cu
  S1       1.0000 0.20906  0.72643  0.31497  Biso   1.000  S
  S2       1.0000 0.79094  0.22643  0.18503  Biso   1.000  S
  S3       1.0000 0.79094  0.27357  0.68503  Biso   1.000  S
  S4       1.0000 0.20906  0.77357  0.81497  Biso   1.000  S
  S5       1.0000 0.73422  0.05390  0.02169  Biso   1.000  S
  S6       1.0000 0.26578  0.55390  0.47831  Biso   1.000  S
  S7       1.0000 0.26578  0.94610  0.97831  Biso   1.000  S
  S8       1.0000 0.73422  0.44610  0.52169  Biso   1.000  S
  O1       1.0000 0.79640  0.95963  0.22829  Biso   1.000  O
  O2       1.0000 0.20360  0.45963  0.27171  Biso   1.000  O
  O3       1.0000 0.20360  0.04037  0.77171  Biso   1.000  O
  O4       1.0000 0.79640  0.54037  0.72829  Biso   1.000  O
  O5       1.0000 0.45270  0.88044  0.29161  Biso   1.000  O
  O6       1.0000 0.54730  0.38044  0.20839  Biso   1.000  O
  O7       1.0000 0.54730  0.11956  0.70839  Biso   1.000  O
  O8       1.0000 0.45270  0.61956  0.79161  Biso   1.000  O
  H1       1.0000 0.34370  0.87610  0.22880  Biso   1.000  H
  H2       1.0000 0.65630  0.37610  0.27120  Biso   1.000  H
  H3       1.0000 0.65630  0.12390  0.77120  Biso   1.000  H
  H4       1.0000 0.34370  0.62390  0.72880  Biso   1.000  H
  H5       1.0000 0.39060  0.91290  0.31860  Biso   1.000  H
  H6       1.0000 0.60940  0.41290  0.18140  Biso   1.000  H
  H7       1.0000 0.60940  0.08710  0.68140  Biso   1.000  H
  H8       1.0000 0.39060  0.58710  0.81860  Biso   1.000  H
  O9       1.0000 0.13940  0.98157  0.32275  Biso   1.000  O
  O10      1.0000 0.86060  0.48157  0.17725  Biso   1.000  O
  O11      1.0000 0.86060  0.01843  0.67725  Biso   1.000  O
  O12      1.0000 0.13940  0.51843  0.82275  Biso   1.000  O
  O13      1.0000 0.74190  0.98961  0.43897  Biso   1.000  O
  O14      1.0000 0.25810  0.48961  0.06103  Biso   1.000  O
  O15      1.0000 0.25810  0.01039  0.56103  Biso   1.000  O
  O16      1.0000 0.74190  0.51039  0.93897  Biso   1.000  O
  H9       1.0000 0.78430  0.03060  0.42020  Biso   1.000  H
  H10      1.0000 0.21570  0.53060  0.07980  Biso   1.000  H
  H11      1.0000 0.21570  0.96940  0.57980  Biso   1.000  H
  H12      1.0000 0.78430  0.46940  0.92020  Biso   1.000  H
  H13      1.0000 0.78750  0.98850  0.51480  Biso   1.000  H
  H14      1.0000 0.21250  0.48850  0.98520  Biso   1.000  H
  H15      1.0000 0.21250  0.01150  0.48520  Biso   1.000  H
  H16      1.0000 0.78750  0.51150  0.01480  Biso   1.000  H
  O17      1.0000 0.82490  0.66033  0.00460  Biso   1.000  O
  O18      1.0000 0.17510  0.16033  0.49540  Biso   1.000  O
  O19      1.0000 0.17510  0.33967  0.99540  Biso   1.000  O
  O20      1.0000 0.82490  0.83967  0.50460  Biso   1.000  O
  O21      1.0000 0.14380  0.62120  0.12604  Biso   1.000  O
  O22      1.0000 0.85620  0.12120  0.37396  Biso   1.000  O
  O23      1.0000 0.85620  0.37880  0.87396  Biso   1.000  O
  O24      1.0000 0.14380  0.87880  0.62604  Biso   1.000  O
  N1       1.0000 0.84370  0.11470  0.95650  Biso   1.000  N
  N2       1.0000 0.15630  0.61470  0.54350  Biso   1.000  N
  N3       1.0000 0.15630  0.88530  0.04350  Biso   1.000  N
  N4       1.0000 0.84370  0.38530  0.45650  Biso   1.000  N
  N5       1.0000 0.04040  0.12630  0.02030  Biso   1.000  N
  N6       1.0000 0.95960  0.62630  0.47970  Biso   1.000  N
  N7       1.0000 0.95960  0.87370  0.97970  Biso   1.000  N
  N8       1.0000 0.04040  0.37370  0.52030  Biso   1.000  N
  N9       1.0000 0.11280  0.79282  0.37289  Biso   1.000  N
  N10      1.0000 0.88720  0.29282  0.12711  Biso   1.000  N
  N11      1.0000 0.88720  0.20718  0.62711  Biso   1.000  N
  N12      1.0000 0.11280  0.70718  0.87289  Biso   1.000  N
  N13      1.0000 0.92150  0.81077  0.30092  Biso   1.000  N
  N14      1.0000 0.07850  0.31077  0.19908  Biso   1.000  N
  N15      1.0000 0.07850  0.18923  0.69908  Biso   1.000  N
  N16      1.0000 0.92150  0.68923  0.80092  Biso   1.000  N
  C1       1.0000 0.96070  0.04208  0.13990  Biso   1.000  C
  C2       1.0000 0.03930  0.54208  0.36010  Biso   1.000  C
  C3       1.0000 0.03930  0.95792  0.86010  Biso   1.000  C
  C4       1.0000 0.96070  0.45792  0.63990  Biso   1.000  C
  C5       1.0000 0.11210  0.08641  0.12420  Biso   1.000  C
  C6       1.0000 0.88790  0.58641  0.37580  Biso   1.000  C
  C7       1.0000 0.88790  0.91359  0.87580  Biso   1.000  C
  C8       1.0000 0.11210  0.41359  0.62420  Biso   1.000  C
  C9       1.0000 0.96990  0.99062  0.23920  Biso   1.000  C
  C10      1.0000 0.03010  0.49062  0.26080  Biso   1.000  C
  C11      1.0000 0.03010  0.00938  0.76080  Biso   1.000  C
  C12      1.0000 0.96990  0.50938  0.73920  Biso   1.000  C
  C13      1.0000 0.33550  0.09534  0.20510  Biso   1.000  C
  C14      1.0000 0.66450  0.59534  0.29490  Biso   1.000  C
  C15      1.0000 0.66450  0.90466  0.79490  Biso   1.000  C
  C16      1.0000 0.33550  0.40466  0.70510  Biso   1.000  C
  H17      1.0000 0.39390  0.13890  0.18270  Biso   1.000  H
  H18      1.0000 0.60610  0.63890  0.31730  Biso   1.000  H
  H19      1.0000 0.60610  0.86110  0.81730  Biso   1.000  H
  H20      1.0000 0.39390  0.36110  0.68270  Biso   1.000  H
  H21      1.0000 0.41470  0.05230  0.19900  Biso   1.000  H
  H22      1.0000 0.58530  0.55230  0.30100  Biso   1.000  H
  H23      1.0000 0.58530  0.94770  0.80100  Biso   1.000  H
  H24      1.0000 0.41470  0.44770  0.69900  Biso   1.000  H
  H25      1.0000 0.34190  0.10050  0.28590  Biso   1.000  H
  H26      1.0000 0.65810  0.60050  0.21410  Biso   1.000  H
  H27      1.0000 0.65810  0.89950  0.71410  Biso   1.000  H
  H28      1.0000 0.34190  0.39950  0.78590  Biso   1.000  H
  C17      1.0000 0.99140  0.71951  0.18970  Biso   1.000  C
  C18      1.0000 0.00860  0.21951  0.31030  Biso   1.000  C
  C19      1.0000 0.00860  0.28049  0.81030  Biso   1.000  C
  C20      1.0000 0.99140  0.78049  0.68970  Biso   1.000  C
  C21      1.0000 0.63310  0.78468  0.10730  Biso   1.000  C
  C22      1.0000 0.36690  0.28468  0.39270  Biso   1.000  C
  C23      1.0000 0.36690  0.21532  0.89270  Biso   1.000  C
  C24      1.0000 0.63310  0.71532  0.60730  Biso   1.000  C
  H29      1.0000 0.62230  0.83550  0.08100  Biso   1.000  H
  H30      1.0000 0.37770  0.33550  0.41900  Biso   1.000  H
  H31      1.0000 0.37770  0.16450  0.91900  Biso   1.000  H
  H32      1.0000 0.62230  0.66450  0.58100  Biso   1.000  H
  H33      1.0000 0.53010  0.77530  0.14300  Biso   1.000  H
  H34      1.0000 0.46990  0.27530  0.35700  Biso   1.000  H
  H35      1.0000 0.46990  0.22470  0.85700  Biso   1.000  H
  H36      1.0000 0.53010  0.72470  0.64300  Biso   1.000  H
  H37      1.0000 0.60860  0.75210  0.04030  Biso   1.000  H
  H38      1.0000 0.39140  0.25210  0.45970  Biso   1.000  H
  H39      1.0000 0.39140  0.24790  0.95970  Biso   1.000  H
  H40      1.0000 0.60860  0.74790  0.54030  Biso   1.000  H
  C25      1.0000 0.84870  0.77095  0.19720  Biso   1.000  C
  C26      1.0000 0.15130  0.27095  0.30280  Biso   1.000  C
  C27      1.0000 0.15130  0.22905  0.80280  Biso   1.000  C
  C28      1.0000 0.84870  0.72905  0.69720  Biso   1.000  C
  C29      1.0000 0.98680  0.66175  0.09870  Biso   1.000  C
  C30      1.0000 0.01320  0.16175  0.40130  Biso   1.000  C
  C31      1.0000 0.01320  0.33825  0.90130  Biso   1.000  C
  C32      1.0000 0.98680  0.83825  0.59870  Biso   1.000  C
