data_image0
_cell_length_a       7.0995
_cell_length_b       7.137
_cell_length_c       10.7711
_cell_angle_alpha    98.415
_cell_angle_beta     102.911
_cell_angle_gamma    100.685

_symmetry_space_group_name_H-M    "P 1"
_symmetry_int_tables_number       1

loop_
  _symmetry_equiv_pos_as_xyz
  'x, y, z'

loop_
  _atom_site_label
  _atom_site_occupancy
  _atom_site_fract_x
  _atom_site_fract_y
  _atom_site_fract_z
  _atom_site_thermal_displace_type
  _atom_site_B_iso_or_equiv
  _atom_site_type_symbol
  Cu1      1.0000 0.65270  0.82001  0.34238  Biso   1.000  Cu
  Cu2      1.0000 0.34730  0.17999  0.65762  Biso   1.000  Cu
  O1       1.0000 0.67630  0.86450  0.17006  Biso   1.000  O
  O2       1.0000 0.32370  0.13550  0.82994  Biso   1.000  O
  H1       1.0000 0.77800  0.90200  0.16900  Biso   1.000  H
  H2       1.0000 0.22200  0.09800  0.83100  Biso   1.000  H
  H3       1.0000 0.58700  0.91800  0.13500  Biso   1.000  H
  H4       1.0000 0.41300  0.08200  0.86500  Biso   1.000  H
  O3       1.0000 0.78790  0.08490  0.42067  Biso   1.000  O
  O4       1.0000 0.21210  0.91510  0.57933  Biso   1.000  O
  H5       1.0000 0.79600  0.16900  0.38300  Biso   1.000  H
  H6       1.0000 0.20400  0.83100  0.61700  Biso   1.000  H
  H7       1.0000 0.82500  0.12200  0.47200  Biso   1.000  H
  H8       1.0000 0.17500  0.87800  0.52800  Biso   1.000  H
  O5       1.0000 0.64330  0.77020  0.51581  Biso   1.000  O
  O6       1.0000 0.35670  0.22980  0.48419  Biso   1.000  O
  H9       1.0000 0.72600  0.71100  0.55000  Biso   1.000  H
  H10      1.0000 0.27400  0.28900  0.45000  Biso   1.000  H
  H11      1.0000 0.66000  0.86100  0.56600  Biso   1.000  H
  H12      1.0000 0.34000  0.13900  0.43400  Biso   1.000  H
  O7       1.0000 0.50010  0.55410  0.26499  Biso   1.000  O
  O8       1.0000 0.49990  0.44590  0.73501  Biso   1.000  O
  H13      1.0000 0.55400  0.48100  0.25600  Biso   1.000  H
  H14      1.0000 0.44600  0.51900  0.74400  Biso   1.000  H
  H15      1.0000 0.41100  0.53300  0.29300  Biso   1.000  H
  H16      1.0000 0.58900  0.46700  0.70700  Biso   1.000  H
  S1       1.0000 0.98737  0.52768  0.29598  Biso   1.000  S
  S2       1.0000 0.01263  0.47232  0.70402  Biso   1.000  S
  O9       1.0000 0.95580  0.71670  0.34755  Biso   1.000  O
  O10      1.0000 0.04420  0.28330  0.65245  Biso   1.000  O
  O11      1.0000 0.81790  0.37050  0.28644  Biso   1.000  O
  O12      1.0000 0.18210  0.62950  0.71356  Biso   1.000  O
  O13      1.0000 0.17510  0.49320  0.36505  Biso   1.000  O
  O14      1.0000 0.82490  0.50680  0.63495  Biso   1.000  O
  C1       1.0000 0.99880  0.52590  0.13141  Biso   1.000  C
  C2       1.0000 0.00120  0.47410  0.86859  Biso   1.000  C
  C3       1.0000 0.09450  0.68010  0.08421  Biso   1.000  C
  C4       1.0000 0.90550  0.31990  0.91579  Biso   1.000  C
  S3       1.0000 0.21618  0.92199  0.17348  Biso   1.000  S
  S4       1.0000 0.78382  0.07801  0.82652  Biso   1.000  S
  O15      1.0000 0.33310  0.90160  0.29993  Biso   1.000  O
  O16      1.0000 0.66690  0.09840  0.70007  Biso   1.000  O
  O17      1.0000 0.34100  0.00190  0.09530  Biso   1.000  O
  O18      1.0000 0.65900  0.99810  0.90470  Biso   1.000  O
  O19      1.0000 0.06070  0.02380  0.18661  Biso   1.000  O
  O20      1.0000 0.93930  0.97620  0.81339  Biso   1.000  O
  C5       1.0000 0.90760  0.35020  0.04660  Biso   1.000  C
  C6       1.0000 0.09240  0.64980  0.95340  Biso   1.000  C
  H17      1.0000 0.84400  0.24800  0.07300  Biso   1.000  H
  H18      1.0000 0.15600  0.75200  0.92700  Biso   1.000  H
  O21      1.0000 0.53220  0.54940  0.97140  Biso   1.000  O
  O22      1.0000 0.46780  0.45060  0.02860  Biso   1.000  O
