data_image0
_cell_length_a       10.2143
_cell_length_b       5.1651
_cell_length_c       26.608
_cell_angle_alpha    90
_cell_angle_beta     99.72
_cell_angle_gamma    90

_symmetry_space_group_name_H-M    "P 1"
_symmetry_int_tables_number       1

loop_
  _symmetry_equiv_pos_as_xyz
  'x, y, z'

loop_
  _atom_site_label
  _atom_site_occupancy
  _atom_site_fract_x
  _atom_site_fract_y
  _atom_site_fract_z
  _atom_site_thermal_displace_type
  _atom_site_B_iso_or_equiv
  _atom_site_type_symbol
  Cu1      1.0000 0.46287  0.40473  0.31228  Biso   1.000  Cu
  Cu2      1.0000 0.53713  0.90473  0.18772  Biso   1.000  Cu
  Cu3      1.0000 0.53713  0.59527  0.68772  Biso   1.000  Cu
  Cu4      1.0000 0.46287  0.09527  0.81228  Biso   1.000  Cu
  O1       1.0000 0.31324  0.40540  0.25380  Biso   1.000  O
  O2       1.0000 0.68676  0.90540  0.24620  Biso   1.000  O
  O3       1.0000 0.68676  0.59460  0.74620  Biso   1.000  O
  O4       1.0000 0.31324  0.09460  0.75380  Biso   1.000  O
  O5       1.0000 0.45730  0.14590  0.22847  Biso   1.000  O
  O6       1.0000 0.54270  0.64590  0.27153  Biso   1.000  O
  O7       1.0000 0.54270  0.85410  0.77153  Biso   1.000  O
  O8       1.0000 0.45730  0.35410  0.72847  Biso   1.000  O
  O9       1.0000 0.40103  0.96380  0.13096  Biso   1.000  O
  O10      1.0000 0.59897  0.46380  0.36904  Biso   1.000  O
  O11      1.0000 0.59897  0.03620  0.86904  Biso   1.000  O
  O12      1.0000 0.40103  0.53620  0.63096  Biso   1.000  O
  O13      1.0000 0.35700  0.05510  0.02109  Biso   1.000  O
  O14      1.0000 0.64300  0.55510  0.47891  Biso   1.000  O
  O15      1.0000 0.64300  0.94490  0.97891  Biso   1.000  O
  O16      1.0000 0.35700  0.44490  0.52109  Biso   1.000  O
  O17      1.0000 0.17490  0.85210  0.01713  Biso   1.000  O
  O18      1.0000 0.82510  0.35210  0.48287  Biso   1.000  O
  O19      1.0000 0.82510  0.14790  0.98287  Biso   1.000  O
  O20      1.0000 0.17490  0.64790  0.51713  Biso   1.000  O
  O21      1.0000 0.91590  0.68070  0.05840  Biso   1.000  O
  O22      1.0000 0.08410  0.18070  0.44160  Biso   1.000  O
  O23      1.0000 0.08410  0.31930  0.94160  Biso   1.000  O
  O24      1.0000 0.91590  0.81930  0.55840  Biso   1.000  O
  O25      1.0000 0.96820  0.81090  0.13586  Biso   1.000  O
  O26      1.0000 0.03180  0.31090  0.36414  Biso   1.000  O
  O27      1.0000 0.03180  0.18910  0.86414  Biso   1.000  O
  O28      1.0000 0.96820  0.68910  0.63586  Biso   1.000  O
  N1       1.0000 0.25560  0.01050  0.03591  Biso   1.000  N
  N2       1.0000 0.74440  0.51050  0.46409  Biso   1.000  N
  N3       1.0000 0.74440  0.98950  0.96409  Biso   1.000  N
  N4       1.0000 0.25560  0.48950  0.53591  Biso   1.000  N
  N5       1.0000 0.98450  0.67080  0.10067  Biso   1.000  N
  N6       1.0000 0.01550  0.17080  0.39933  Biso   1.000  N
  N7       1.0000 0.01550  0.32920  0.89933  Biso   1.000  N
  N8       1.0000 0.98450  0.82920  0.60067  Biso   1.000  N
  N9       1.0000 0.38600  0.12360  0.34965  Biso   1.000  N
  N10      1.0000 0.61400  0.62360  0.15035  Biso   1.000  N
  N11      1.0000 0.61400  0.87640  0.65035  Biso   1.000  N
  N12      1.0000 0.38600  0.37640  0.84965  Biso   1.000  N
  C1       1.0000 0.35180  0.27970  0.21852  Biso   1.000  C
  C2       1.0000 0.64820  0.77970  0.28148  Biso   1.000  C
  C3       1.0000 0.64820  0.72030  0.78148  Biso   1.000  C
  C4       1.0000 0.35180  0.22030  0.71852  Biso   1.000  C
  C5       1.0000 0.27420  0.29210  0.16650  Biso   1.000  C
  C6       1.0000 0.72580  0.79210  0.33350  Biso   1.000  C
  C7       1.0000 0.72580  0.70790  0.83350  Biso   1.000  C
  C8       1.0000 0.27420  0.20790  0.66650  Biso   1.000  C
  C9       1.0000 0.30670  0.13370  0.12669  Biso   1.000  C
  C10      1.0000 0.69330  0.63370  0.37331  Biso   1.000  C
  C11      1.0000 0.69330  0.86630  0.87331  Biso   1.000  C
  C12      1.0000 0.30670  0.36630  0.62669  Biso   1.000  C
  C13      1.0000 0.22390  0.16720  0.07834  Biso   1.000  C
  C14      1.0000 0.77610  0.66720  0.42166  Biso   1.000  C
  C15      1.0000 0.77610  0.83280  0.92166  Biso   1.000  C
  C16      1.0000 0.22390  0.33280  0.57834  Biso   1.000  C
  C17      1.0000 0.11810  0.33150  0.06924  Biso   1.000  C
  C18      1.0000 0.88190  0.83150  0.43076  Biso   1.000  C
  C19      1.0000 0.88190  0.66850  0.93076  Biso   1.000  C
  C20      1.0000 0.11810  0.16850  0.56924  Biso   1.000  C
  H1       1.0000 0.06500  0.34130  0.03720  Biso   1.000  H
  H2       1.0000 0.93500  0.84130  0.46280  Biso   1.000  H
  H3       1.0000 0.93500  0.65870  0.96280  Biso   1.000  H
  H4       1.0000 0.06500  0.15870  0.53720  Biso   1.000  H
  C21      1.0000 0.09240  0.48320  0.10935  Biso   1.000  C
  C22      1.0000 0.90760  0.98320  0.39065  Biso   1.000  C
  C23      1.0000 0.90760  0.51680  0.89065  Biso   1.000  C
  C24      1.0000 0.09240  0.01680  0.60935  Biso   1.000  C
  C25      1.0000 0.16820  0.46450  0.15704  Biso   1.000  C
  C26      1.0000 0.83180  0.96450  0.34296  Biso   1.000  C
  C27      1.0000 0.83180  0.53550  0.84296  Biso   1.000  C
  C28      1.0000 0.16820  0.03550  0.65704  Biso   1.000  C
  H5       1.0000 0.14840  0.56820  0.18330  Biso   1.000  H
  H6       1.0000 0.85160  0.06820  0.31670  Biso   1.000  H
  H7       1.0000 0.85160  0.43180  0.81670  Biso   1.000  H
  H8       1.0000 0.14840  0.93180  0.68330  Biso   1.000  H
  C29      1.0000 0.29880  0.95280  0.32528  Biso   1.000  C
  C30      1.0000 0.70120  0.45280  0.17472  Biso   1.000  C
  C31      1.0000 0.70120  0.04720  0.67472  Biso   1.000  C
  C32      1.0000 0.29880  0.54720  0.82528  Biso   1.000  C
  H9       1.0000 0.27450  0.96720  0.29010  Biso   1.000  H
  H10      1.0000 0.72550  0.46720  0.20990  Biso   1.000  H
  H11      1.0000 0.72550  0.03280  0.70990  Biso   1.000  H
  H12      1.0000 0.27450  0.53280  0.79010  Biso   1.000  H
  C33      1.0000 0.24400  0.75840  0.34980  Biso   1.000  C
  C34      1.0000 0.75600  0.25840  0.15020  Biso   1.000  C
  C35      1.0000 0.75600  0.24160  0.65020  Biso   1.000  C
  C36      1.0000 0.24400  0.74160  0.84980  Biso   1.000  C
  H13      1.0000 0.18460  0.64270  0.33140  Biso   1.000  H
  H14      1.0000 0.81540  0.14270  0.16860  Biso   1.000  H
  H15      1.0000 0.81540  0.35730  0.66860  Biso   1.000  H
  H16      1.0000 0.18460  0.85730  0.83140  Biso   1.000  H
  C37      1.0000 0.27750  0.73570  0.40163  Biso   1.000  C
  C38      1.0000 0.72250  0.23570  0.09837  Biso   1.000  C
  C39      1.0000 0.72250  0.26430  0.59837  Biso   1.000  C
  C40      1.0000 0.27750  0.76430  0.90163  Biso   1.000  C
  H17      1.0000 0.24020  0.60660  0.41910  Biso   1.000  H
  H18      1.0000 0.75980  0.10660  0.08090  Biso   1.000  H
  H19      1.0000 0.75980  0.39340  0.58090  Biso   1.000  H
  H20      1.0000 0.24020  0.89340  0.91910  Biso   1.000  H
  C41      1.0000 0.36720  0.90750  0.42726  Biso   1.000  C
  C42      1.0000 0.63280  0.40750  0.07274  Biso   1.000  C
  C43      1.0000 0.63280  0.09250  0.57274  Biso   1.000  C
  C44      1.0000 0.36720  0.59250  0.92726  Biso   1.000  C
  H21      1.0000 0.39280  0.89520  0.46240  Biso   1.000  H
  H22      1.0000 0.60720  0.39520  0.03760  Biso   1.000  H
  H23      1.0000 0.60720  0.10480  0.53760  Biso   1.000  H
  H24      1.0000 0.39280  0.60480  0.96240  Biso   1.000  H
  C45      1.0000 0.41880  0.09840  0.40027  Biso   1.000  C
  C46      1.0000 0.58120  0.59840  0.09973  Biso   1.000  C
  C47      1.0000 0.58120  0.90160  0.59973  Biso   1.000  C
  C48      1.0000 0.41880  0.40160  0.90027  Biso   1.000  C
  H25      1.0000 0.47910  0.21490  0.41800  Biso   1.000  H
  H26      1.0000 0.52090  0.71490  0.08200  Biso   1.000  H
  H27      1.0000 0.52090  0.78510  0.58200  Biso   1.000  H
  H28      1.0000 0.47910  0.28510  0.91800  Biso   1.000  H
