data_image0
_cell_length_a       7.886
_cell_length_b       18.817
_cell_length_c       13.457
_cell_angle_alpha    90
_cell_angle_beta     94.001
_cell_angle_gamma    90

_symmetry_space_group_name_H-M    "P 1"
_symmetry_int_tables_number       1

loop_
  _symmetry_equiv_pos_as_xyz
  'x, y, z'

loop_
  _atom_site_label
  _atom_site_occupancy
  _atom_site_fract_x
  _atom_site_fract_y
  _atom_site_fract_z
  _atom_site_thermal_displace_type
  _atom_site_B_iso_or_equiv
  _atom_site_type_symbol
  O1       1.0000 0.03920  0.34918  0.40170  Biso   1.000  O
  O2       1.0000 0.46080  0.84918  0.09830  Biso   1.000  O
  O3       1.0000 0.96080  0.65082  0.59830  Biso   1.000  O
  O4       1.0000 0.53920  0.15082  0.90170  Biso   1.000  O
  Cu1      1.0000 0.11476  0.40795  0.29676  Biso   1.000  Cu
  Cu2      1.0000 0.38524  0.90795  0.20324  Biso   1.000  Cu
  Cu3      1.0000 0.88524  0.59205  0.70324  Biso   1.000  Cu
  Cu4      1.0000 0.61476  0.09205  0.79676  Biso   1.000  Cu
  O5       1.0000 0.49690  0.15204  0.69460  Biso   1.000  O
  O6       1.0000 0.00310  0.65204  0.80540  Biso   1.000  O
  O7       1.0000 0.50310  0.84796  0.30540  Biso   1.000  O
  O8       1.0000 0.99690  0.34796  0.19460  Biso   1.000  O
  N1       1.0000 0.21830  0.47146  0.19820  Biso   1.000  N
  N2       1.0000 0.28170  0.97146  0.30180  Biso   1.000  N
  N3       1.0000 0.78170  0.52854  0.80180  Biso   1.000  N
  N4       1.0000 0.71830  0.02854  0.69820  Biso   1.000  N
  N5       1.0000 0.21810  0.47993  0.39250  Biso   1.000  N
  N6       1.0000 0.28190  0.97993  0.10750  Biso   1.000  N
  N7       1.0000 0.78190  0.52007  0.60750  Biso   1.000  N
  N8       1.0000 0.71810  0.02007  0.89250  Biso   1.000  N
  C1       1.0000 0.24460  0.21747  0.56400  Biso   1.000  C
  C2       1.0000 0.25540  0.71747  0.93600  Biso   1.000  C
  C3       1.0000 0.75540  0.78253  0.43600  Biso   1.000  C
  C4       1.0000 0.74460  0.28253  0.06400  Biso   1.000  C
  H1       1.0000 0.35600  0.22200  0.54620  Biso   1.000  H
  H2       1.0000 0.14400  0.72200  0.95380  Biso   1.000  H
  H3       1.0000 0.64400  0.77800  0.45380  Biso   1.000  H
  H4       1.0000 0.85600  0.27800  0.04620  Biso   1.000  H
  C5       1.0000 0.20860  0.17110  0.63940  Biso   1.000  C
  C6       1.0000 0.29140  0.67110  0.86060  Biso   1.000  C
  C7       1.0000 0.79140  0.82890  0.36060  Biso   1.000  C
  C8       1.0000 0.70860  0.32890  0.13940  Biso   1.000  C
  C9       1.0000 0.34580  0.12790  0.69260  Biso   1.000  C
  C10      1.0000 0.15420  0.62790  0.80740  Biso   1.000  C
  C11      1.0000 0.65420  0.87210  0.30740  Biso   1.000  C
  C12      1.0000 0.84580  0.37210  0.19260  Biso   1.000  C
  C13      1.0000 0.11740  0.25720  0.51470  Biso   1.000  C
  C14      1.0000 0.38260  0.75720  0.98530  Biso   1.000  C
  C15      1.0000 0.88260  0.74280  0.48530  Biso   1.000  C
  C16      1.0000 0.61740  0.24280  0.01470  Biso   1.000  C
  C17      1.0000 0.29440  0.53360  0.34740  Biso   1.000  C
  C18      1.0000 0.20560  0.03360  0.15260  Biso   1.000  C
  C19      1.0000 0.70560  0.46640  0.65260  Biso   1.000  C
  C20      1.0000 0.79440  0.96640  0.84740  Biso   1.000  C
  C21      1.0000 0.29440  0.52910  0.24140  Biso   1.000  C
  C22      1.0000 0.20560  0.02910  0.25860  Biso   1.000  C
  C23      1.0000 0.70560  0.47090  0.75860  Biso   1.000  C
  C24      1.0000 0.79440  0.97090  0.74140  Biso   1.000  C
  C25      1.0000 0.04020  0.16470  0.66430  Biso   1.000  C
  C26      1.0000 0.45980  0.66470  0.83570  Biso   1.000  C
  C27      1.0000 0.95980  0.83530  0.33570  Biso   1.000  C
  C28      1.0000 0.54020  0.33530  0.16430  Biso   1.000  C
  H5       1.0000 0.01380  0.13330  0.71430  Biso   1.000  H
  H6       1.0000 0.48620  0.63330  0.78570  Biso   1.000  H
  H7       1.0000 0.98620  0.86670  0.28570  Biso   1.000  H
  H8       1.0000 0.51380  0.36670  0.21430  Biso   1.000  H
  C29      1.0000 0.95170  0.25050  0.54160  Biso   1.000  C
  C30      1.0000 0.54830  0.75050  0.95840  Biso   1.000  C
  C31      1.0000 0.04830  0.74950  0.45840  Biso   1.000  C
  C32      1.0000 0.45170  0.24950  0.04160  Biso   1.000  C
  H9       1.0000 0.86590  0.27760  0.50920  Biso   1.000  H
  H10      1.0000 0.63410  0.77760  0.99080  Biso   1.000  H
  H11      1.0000 0.13410  0.72240  0.49080  Biso   1.000  H
  H12      1.0000 0.36590  0.22240  0.00920  Biso   1.000  H
  C33      1.0000 0.21290  0.46630  0.10010  Biso   1.000  C
  C34      1.0000 0.28710  0.96630  0.39990  Biso   1.000  C
  C35      1.0000 0.78710  0.53370  0.89990  Biso   1.000  C
  C36      1.0000 0.71290  0.03370  0.60010  Biso   1.000  C
  H13      1.0000 0.15740  0.42780  0.06900  Biso   1.000  H
  H14      1.0000 0.34260  0.92780  0.43100  Biso   1.000  H
  H15      1.0000 0.84260  0.57220  0.93100  Biso   1.000  H
  H16      1.0000 0.65740  0.07220  0.56900  Biso   1.000  H
  C37      1.0000 0.36370  0.59160  0.50250  Biso   1.000  C
  C38      1.0000 0.13630  0.09160  0.99750  Biso   1.000  C
  C39      1.0000 0.63630  0.40840  0.49750  Biso   1.000  C
  C40      1.0000 0.86370  0.90840  0.00250  Biso   1.000  C
  H17      1.0000 0.41210  0.62870  0.54030  Biso   1.000  H
  H18      1.0000 0.08790  0.12870  0.95970  Biso   1.000  H
  H19      1.0000 0.58790  0.37130  0.45970  Biso   1.000  H
  H20      1.0000 0.91210  0.87130  0.04030  Biso   1.000  H
  C41      1.0000 0.36990  0.58290  0.18640  Biso   1.000  C
  C42      1.0000 0.13010  0.08290  0.31360  Biso   1.000  C
  C43      1.0000 0.63010  0.41710  0.81360  Biso   1.000  C
  C44      1.0000 0.86990  0.91710  0.68640  Biso   1.000  C
  C45      1.0000 0.28920  0.51760  0.04180  Biso   1.000  C
  C46      1.0000 0.21080  0.01760  0.45820  Biso   1.000  C
  C47      1.0000 0.71080  0.48240  0.95820  Biso   1.000  C
  C48      1.0000 0.78920  0.98240  0.54180  Biso   1.000  C
  H21      1.0000 0.28540  0.51230  0.97290  Biso   1.000  H
  H22      1.0000 0.21460  0.01230  0.52710  Biso   1.000  H
  H23      1.0000 0.71460  0.48770  0.02710  Biso   1.000  H
  H24      1.0000 0.78540  0.98770  0.47290  Biso   1.000  H
  C49      1.0000 0.36980  0.59220  0.39790  Biso   1.000  C
  C50      1.0000 0.13020  0.09220  0.10210  Biso   1.000  C
  C51      1.0000 0.63020  0.40780  0.60210  Biso   1.000  C
  C52      1.0000 0.86980  0.90780  0.89790  Biso   1.000  C
  C53      1.0000 0.21590  0.48220  0.49190  Biso   1.000  C
  C54      1.0000 0.28410  0.98220  0.00810  Biso   1.000  C
  C55      1.0000 0.78410  0.51780  0.50810  Biso   1.000  C
  C56      1.0000 0.71590  0.01780  0.99190  Biso   1.000  C
  H25      1.0000 0.16410  0.44550  0.52460  Biso   1.000  H
  H26      1.0000 0.33590  0.94550  0.97540  Biso   1.000  H
  H27      1.0000 0.83590  0.55450  0.47540  Biso   1.000  H
  H28      1.0000 0.66410  0.05450  0.02460  Biso   1.000  H
  C57      1.0000 0.28910  0.53810  0.54750  Biso   1.000  C
  C58      1.0000 0.21090  0.03810  0.95250  Biso   1.000  C
  C59      1.0000 0.71090  0.46190  0.45250  Biso   1.000  C
  C60      1.0000 0.78910  0.96190  0.04750  Biso   1.000  C
  H29      1.0000 0.28590  0.53810  0.61640  Biso   1.000  H
  H30      1.0000 0.21410  0.03810  0.88360  Biso   1.000  H
  H31      1.0000 0.71410  0.46190  0.38360  Biso   1.000  H
  H32      1.0000 0.78590  0.96190  0.11640  Biso   1.000  H
  C61      1.0000 0.91330  0.20410  0.61600  Biso   1.000  C
  C62      1.0000 0.58670  0.70410  0.88400  Biso   1.000  C
  C63      1.0000 0.08670  0.79590  0.38400  Biso   1.000  C
  C64      1.0000 0.41330  0.29590  0.11600  Biso   1.000  C
  H33      1.0000 0.80180  0.19950  0.63340  Biso   1.000  H
  H34      1.0000 0.69820  0.69950  0.86660  Biso   1.000  H
  H35      1.0000 0.19820  0.80050  0.36660  Biso   1.000  H
  H36      1.0000 0.30180  0.30050  0.13340  Biso   1.000  H
  C65      1.0000 0.36730  0.57390  0.08500  Biso   1.000  C
  C66      1.0000 0.13270  0.07390  0.41500  Biso   1.000  C
  C67      1.0000 0.63270  0.42610  0.91500  Biso   1.000  C
  C68      1.0000 0.86730  0.92610  0.58500  Biso   1.000  C
  H37      1.0000 0.41990  0.60710  0.04620  Biso   1.000  H
  H38      1.0000 0.08010  0.10710  0.45380  Biso   1.000  H
  H39      1.0000 0.58010  0.39290  0.95380  Biso   1.000  H
  H40      1.0000 0.91990  0.89290  0.54620  Biso   1.000  H
  C69      1.0000 0.44030  0.64650  0.33970  Biso   1.000  C
  C70      1.0000 0.05970  0.14650  0.16030  Biso   1.000  C
  C71      1.0000 0.55970  0.35350  0.66030  Biso   1.000  C
  C72      1.0000 0.94030  0.85350  0.83970  Biso   1.000  C
  H41      1.0000 0.48840  0.68630  0.37160  Biso   1.000  H
  H42      1.0000 0.01160  0.18630  0.12840  Biso   1.000  H
  H43      1.0000 0.51160  0.31370  0.62840  Biso   1.000  H
  H44      1.0000 0.98840  0.81370  0.87160  Biso   1.000  H
  C73      1.0000 0.43930  0.64200  0.24100  Biso   1.000  C
  C74      1.0000 0.06070  0.14200  0.25900  Biso   1.000  C
  C75      1.0000 0.56070  0.35800  0.75900  Biso   1.000  C
  C76      1.0000 0.93930  0.85800  0.74100  Biso   1.000  C
  H45      1.0000 0.48600  0.67910  0.20630  Biso   1.000  H
  H46      1.0000 0.01400  0.17910  0.29370  Biso   1.000  H
  H47      1.0000 0.51400  0.32090  0.79370  Biso   1.000  H
  H48      1.0000 0.98600  0.82090  0.70630  Biso   1.000  H
  O9       1.0000 0.29970  0.30668  0.39810  Biso   1.000  O
  O10      1.0000 0.20030  0.80668  0.10190  Biso   1.000  O
  O11      1.0000 0.70030  0.69332  0.60190  Biso   1.000  O
  O12      1.0000 0.79970  0.19332  0.89810  Biso   1.000  O
  C77      1.0000 0.15770  0.30660  0.43160  Biso   1.000  C
  C78      1.0000 0.34230  0.80660  0.06840  Biso   1.000  C
  C79      1.0000 0.84230  0.69340  0.56840  Biso   1.000  C
  C80      1.0000 0.65770  0.19340  0.93160  Biso   1.000  C
  O13      1.0000 0.30990  0.07097  0.73350  Biso   1.000  O
  O14      1.0000 0.19010  0.57097  0.76650  Biso   1.000  O
  O15      1.0000 0.69010  0.92903  0.26650  Biso   1.000  O
  O16      1.0000 0.80990  0.42903  0.23350  Biso   1.000  O
  C81      1.0000 0.65100  0.09160  0.31960  Biso   1.000  C
  C82      1.0000 0.84900  0.59160  0.18040  Biso   1.000  C
  C83      1.0000 0.34900  0.90840  0.68040  Biso   1.000  C
  C84      1.0000 0.15100  0.40840  0.81960  Biso   1.000  C
  H49      1.0000 0.76350  0.09470  0.35090  Biso   1.000  H
  H50      1.0000 0.73650  0.59470  0.14910  Biso   1.000  H
  H51      1.0000 0.23650  0.90530  0.64910  Biso   1.000  H
  H52      1.0000 0.26350  0.40530  0.85090  Biso   1.000  H
  H53      1.0000 0.65170  0.06260  0.26100  Biso   1.000  H
  H54      1.0000 0.84830  0.56260  0.23900  Biso   1.000  H
  H55      1.0000 0.34830  0.93740  0.73900  Biso   1.000  H
  H56      1.0000 0.15170  0.43740  0.76100  Biso   1.000  H
  H57      1.0000 0.57620  0.07080  0.36510  Biso   1.000  H
  H58      1.0000 0.92380  0.57080  0.13490  Biso   1.000  H
  H59      1.0000 0.42380  0.92920  0.63490  Biso   1.000  H
  H60      1.0000 0.07620  0.42920  0.86510  Biso   1.000  H
  O17      1.0000 0.57810  0.18780  0.39640  Biso   1.000  O
  O18      1.0000 0.92190  0.68780  0.10360  Biso   1.000  O
  O19      1.0000 0.42190  0.81220  0.60360  Biso   1.000  O
  O20      1.0000 0.07810  0.31220  0.89640  Biso   1.000  O
  H61      1.0000 0.47920  0.18470  0.41110  Biso   1.000  H
  H62      1.0000 0.02080  0.68470  0.08890  Biso   1.000  H
  H63      1.0000 0.52080  0.81530  0.58890  Biso   1.000  H
  H64      1.0000 0.97920  0.31530  0.91110  Biso   1.000  H
  C85      1.0000 0.59210  0.16030  0.29290  Biso   1.000  C
  C86      1.0000 0.90790  0.66030  0.20710  Biso   1.000  C
  C87      1.0000 0.40790  0.83970  0.70710  Biso   1.000  C
  C88      1.0000 0.09210  0.33970  0.79290  Biso   1.000  C
  H65      1.0000 0.48320  0.15940  0.25470  Biso   1.000  H
  H66      1.0000 0.01680  0.65940  0.24530  Biso   1.000  H
  H67      1.0000 0.51680  0.84060  0.74530  Biso   1.000  H
  H68      1.0000 0.98320  0.34060  0.75470  Biso   1.000  H
  H69      1.0000 0.67390  0.18680  0.25700  Biso   1.000  H
  H70      1.0000 0.82610  0.68680  0.24300  Biso   1.000  H
  H71      1.0000 0.32610  0.81320  0.74300  Biso   1.000  H
  H72      1.0000 0.17390  0.31320  0.75700  Biso   1.000  H
