data_image0
_cell_length_a       9.4433
_cell_length_b       9.5192
_cell_length_c       11.1244
_cell_angle_alpha    65.094
_cell_angle_beta     77.559
_cell_angle_gamma    81.752

_symmetry_space_group_name_H-M    "P 1"
_symmetry_int_tables_number       1

loop_
  _symmetry_equiv_pos_as_xyz
  'x, y, z'

loop_
  _atom_site_label
  _atom_site_occupancy
  _atom_site_fract_x
  _atom_site_fract_y
  _atom_site_fract_z
  _atom_site_thermal_displace_type
  _atom_site_B_iso_or_equiv
  _atom_site_type_symbol
  Cu1      1.0000 0.43635  0.99121  0.34367  Biso   1.000  Cu
  Cu2      1.0000 0.56365  0.00879  0.65633  Biso   1.000  Cu
  Zn1      1.0000 0.01347  0.85486  0.25543  Biso   1.000  Zn
  Zn2      1.0000 0.98653  0.14514  0.74457  Biso   1.000  Zn
  N1       1.0000 0.57290  0.82100  0.43690  Biso   1.000  N
  N2       1.0000 0.42710  0.17900  0.56310  Biso   1.000  N
  N3       1.0000 0.60460  0.07560  0.21750  Biso   1.000  N
  N4       1.0000 0.39540  0.92440  0.78250  Biso   1.000  N
  N5       1.0000 0.33470  0.18710  0.22100  Biso   1.000  N
  N6       1.0000 0.66530  0.81290  0.77900  Biso   1.000  N
  H1       1.0000 0.28550  0.16330  0.17190  Biso   1.000  H
  H2       1.0000 0.71450  0.83670  0.82810  Biso   1.000  H
  H3       1.0000 0.27110  0.22990  0.27080  Biso   1.000  H
  H4       1.0000 0.72890  0.77010  0.72920  Biso   1.000  H
  O1       1.0000 0.82510  0.76990  0.40550  Biso   1.000  O
  O2       1.0000 0.17490  0.23010  0.59450  Biso   1.000  O
  O3       1.0000 0.84830  0.00910  0.16520  Biso   1.000  O
  O4       1.0000 0.15170  0.99090  0.83480  Biso   1.000  O
  O5       1.0000 0.27500  0.92000  0.48510  Biso   1.000  O
  O6       1.0000 0.72500  0.08000  0.51490  Biso   1.000  O
  O7       1.0000 0.14740  0.76580  0.67280  Biso   1.000  O
  O8       1.0000 0.85260  0.23420  0.32720  Biso   1.000  O
  O9       1.0000 0.63520  0.13700  0.78990  Biso   1.000  O
  O10      1.0000 0.36480  0.86300  0.21010  Biso   1.000  O
  O11      1.0000 0.81750  0.28990  0.66000  Biso   1.000  O
  O12      1.0000 0.18250  0.71010  0.34000  Biso   1.000  O
  O13      1.0000 0.15010  0.99600  0.07790  Biso   1.000  O
  O14      1.0000 0.84990  0.00400  0.92210  Biso   1.000  O
  H5       1.0000 0.18370  0.01300  0.99600  Biso   1.000  H
  H6       1.0000 0.81630  0.98700  0.00400  Biso   1.000  H
  H7       1.0000 0.20370  0.03890  0.10350  Biso   1.000  H
  H8       1.0000 0.79630  0.96110  0.89650  Biso   1.000  H
  O15      1.0000 0.04800  0.99840  0.34250  Biso   1.000  O
  O16      1.0000 0.95200  0.00160  0.65750  Biso   1.000  O
  H9       1.0000 0.11780  0.99860  0.37960  Biso   1.000  H
  H10      1.0000 0.88220  0.00140  0.62040  Biso   1.000  H
  H11      1.0000 0.97950  0.05910  0.35990  Biso   1.000  H
  H12      1.0000 0.02050  0.94090  0.64010  Biso   1.000  H
  O17      1.0000 0.00060  0.68380  0.18760  Biso   1.000  O
  O18      1.0000 0.99940  0.31620  0.81240  Biso   1.000  O
  H13      1.0000 0.91890  0.66080  0.23880  Biso   1.000  H
  H14      1.0000 0.08110  0.33920  0.76120  Biso   1.000  H
  H15      1.0000 0.02090  0.62330  0.14700  Biso   1.000  H
  H16      1.0000 0.97910  0.37670  0.85300  Biso   1.000  H
  C1       1.0000 0.70950  0.84720  0.37410  Biso   1.000  C
  C2       1.0000 0.29050  0.15280  0.62590  Biso   1.000  C
  C3       1.0000 0.72380  0.99020  0.24060  Biso   1.000  C
  C4       1.0000 0.27620  0.00980  0.75940  Biso   1.000  C
  C5       1.0000 0.58440  0.21000  0.09570  Biso   1.000  C
  C6       1.0000 0.41560  0.79000  0.90430  Biso   1.000  C
  H17      1.0000 0.57520  0.17820  0.02570  Biso   1.000  H
  H18      1.0000 0.42480  0.82180  0.97430  Biso   1.000  H
  H19      1.0000 0.66670  0.27440  0.06400  Biso   1.000  H
  H20      1.0000 0.33330  0.72560  0.93600  Biso   1.000  H
  C7       1.0000 0.44640  0.29900  0.13030  Biso   1.000  C
  C8       1.0000 0.55360  0.70100  0.86970  Biso   1.000  C
  H21      1.0000 0.46670  0.36080  0.17450  Biso   1.000  H
  H22      1.0000 0.53330  0.63920  0.82550  Biso   1.000  H
  H23      1.0000 0.41040  0.36860  0.04860  Biso   1.000  H
  H24      1.0000 0.58960  0.63140  0.95140  Biso   1.000  H
  C9       1.0000 0.26330  0.79170  0.59030  Biso   1.000  C
  C10      1.0000 0.73670  0.20830  0.40970  Biso   1.000  C
  C11      1.0000 0.38340  0.66700  0.61510  Biso   1.000  C
  C12      1.0000 0.61660  0.33300  0.38490  Biso   1.000  C
  C13      1.0000 0.52890  0.68090  0.54370  Biso   1.000  C
  C14      1.0000 0.47110  0.31910  0.45630  Biso   1.000  C
  C15      1.0000 0.62410  0.54710  0.57910  Biso   1.000  C
  C16      1.0000 0.37590  0.45290  0.42090  Biso   1.000  C
  H25      1.0000 0.71980  0.55350  0.53430  Biso   1.000  H
  H26      1.0000 0.28020  0.44650  0.46570  Biso   1.000  H
  C17      1.0000 0.57900  0.40630  0.67890  Biso   1.000  C
  C18      1.0000 0.42100  0.59370  0.32110  Biso   1.000  C
  C19      1.0000 0.68600  0.26630  0.71210  Biso   1.000  C
  C20      1.0000 0.31400  0.73370  0.28790  Biso   1.000  C
  C21      1.0000 0.43630  0.39290  0.74950  Biso   1.000  C
  C22      1.0000 0.56370  0.60710  0.25050  Biso   1.000  C
  H27      1.0000 0.40560  0.29850  0.81650  Biso   1.000  H
  H28      1.0000 0.59440  0.70150  0.18350  Biso   1.000  H
  C23      1.0000 0.34230  0.52310  0.71720  Biso   1.000  C
  C24      1.0000 0.65770  0.47690  0.28280  Biso   1.000  C
  H29      1.0000 0.24790  0.51520  0.76500  Biso   1.000  H
  H30      1.0000 0.75210  0.48480  0.23500  Biso   1.000  H
  O19      1.0000 0.91110  0.62370  0.66730  Biso   1.000  O
  O20      1.0000 0.08890  0.37630  0.33270  Biso   1.000  O
  H31      1.0000 0.89960  0.65770  0.58590  Biso   1.000  H
  H32      1.0000 0.10040  0.34230  0.41410  Biso   1.000  H
  H33      1.0000 0.82850  0.60050  0.71680  Biso   1.000  H
  H34      1.0000 0.17150  0.39950  0.28320  Biso   1.000  H
  O21      1.0000 0.96950  0.69570  0.94770  Biso   1.000  O
  O22      1.0000 0.03050  0.30430  0.05230  Biso   1.000  O
  H35      1.0000 0.03750  0.70350  0.88170  Biso   1.000  H
  H36      1.0000 0.96250  0.29650  0.11830  Biso   1.000  H
  H37      1.0000 0.91200  0.63100  0.95390  Biso   1.000  H
  H38      1.0000 0.08800  0.36900  0.04610  Biso   1.000  H
