data_image0
_cell_length_a       9.8148
_cell_length_b       10.9124
_cell_length_c       14.4129
_cell_angle_alpha    96.247
_cell_angle_beta     106.864
_cell_angle_gamma    109.411

_symmetry_space_group_name_H-M    "P 1"
_symmetry_int_tables_number       1

loop_
  _symmetry_equiv_pos_as_xyz
  'x, y, z'

loop_
  _atom_site_label
  _atom_site_occupancy
  _atom_site_fract_x
  _atom_site_fract_y
  _atom_site_fract_z
  _atom_site_thermal_displace_type
  _atom_site_B_iso_or_equiv
  _atom_site_type_symbol
  Cu1      1.0000 0.55608  0.89143  0.03133  Biso   1.000  Cu
  Cu2      1.0000 0.44392  0.10857  0.96867  Biso   1.000  Cu
  Cu3      1.0000 0.56479  0.10234  0.21028  Biso   1.000  Cu
  Cu4      1.0000 0.43521  0.89766  0.78972  Biso   1.000  Cu
  O1       1.0000 0.59172  0.07728  0.08177  Biso   1.000  O
  O2       1.0000 0.40828  0.92272  0.91823  Biso   1.000  O
  H1       1.0000 0.68400  0.12800  0.09740  Biso   1.000  H
  H2       1.0000 0.31600  0.87200  0.90260  Biso   1.000  H
  O3       1.0000 0.74464  0.27256  0.26033  Biso   1.000  O
  O4       1.0000 0.25536  0.72744  0.73967  Biso   1.000  O
  O5       1.0000 0.04480  0.10350  0.10410  Biso   1.000  O
  O6       1.0000 0.95520  0.89650  0.89590  Biso   1.000  O
  H3       1.0000 0.02000  0.15400  0.14100  Biso   1.000  H
  H4       1.0000 0.98000  0.84600  0.85900  Biso   1.000  H
  H5       1.0000 0.96900  0.02500  0.07700  Biso   1.000  H
  H6       1.0000 0.03100  0.97500  0.92300  Biso   1.000  H
  O7       1.0000 0.88100  0.24404  0.16590  Biso   1.000  O
  O8       1.0000 0.11900  0.75596  0.83410  Biso   1.000  O
  O9       1.0000 0.34741  0.97912  0.15499  Biso   1.000  O
  O10      1.0000 0.65259  0.02088  0.84501  Biso   1.000  O
  O11      1.0000 0.70926  0.98741  0.26226  Biso   1.000  O
  O12      1.0000 0.29074  0.01259  0.73774  Biso   1.000  O
  O13      1.0000 0.74636  0.89700  0.12857  Biso   1.000  O
  O14      1.0000 0.25364  0.10300  0.87143  Biso   1.000  O
  O15      1.0000 0.37617  0.79710  0.09156  Biso   1.000  O
  O16      1.0000 0.62383  0.20290  0.90844  Biso   1.000  O
  N1       1.0000 0.52120  0.71755  0.94790  Biso   1.000  N
  N2       1.0000 0.47880  0.28245  0.05210  Biso   1.000  N
  N3       1.0000 0.53320  0.14196  0.33948  Biso   1.000  N
  N4       1.0000 0.46680  0.85804  0.66052  Biso   1.000  N
  C1       1.0000 0.99810  0.47480  0.40194  Biso   1.000  C
  C2       1.0000 0.00190  0.52520  0.59806  Biso   1.000  C
  C3       1.0000 0.88540  0.51010  0.42331  Biso   1.000  C
  C4       1.0000 0.11460  0.48990  0.57669  Biso   1.000  C
  H7       1.0000 0.80550  0.51730  0.37090  Biso   1.000  H
  H8       1.0000 0.19450  0.48270  0.62910  Biso   1.000  H
  C5       1.0000 0.11240  0.46530  0.48007  Biso   1.000  C
  C6       1.0000 0.88760  0.53470  0.51993  Biso   1.000  C
  H9       1.0000 0.19090  0.44140  0.46710  Biso   1.000  H
  H10      1.0000 0.80910  0.55860  0.53290  Biso   1.000  H
  C7       1.0000 0.99160  0.44070  0.29601  Biso   1.000  C
  C8       1.0000 0.00840  0.55930  0.70399  Biso   1.000  C
  H11      1.0000 0.09190  0.43820  0.29680  Biso   1.000  H
  H12      1.0000 0.90810  0.56180  0.70320  Biso   1.000  H
  H13      1.0000 0.97590  0.51210  0.26260  Biso   1.000  H
  H14      1.0000 0.02410  0.48790  0.73740  Biso   1.000  H
  C9       1.0000 0.86320  0.30670  0.23555  Biso   1.000  C
  C10      1.0000 0.13680  0.69330  0.76445  Biso   1.000  C
  C11      1.0000 0.60970  0.71420  0.89319  Biso   1.000  C
  C12      1.0000 0.39030  0.28580  0.10681  Biso   1.000  C
  H15      1.0000 0.69480  0.79340  0.90070  Biso   1.000  H
  H16      1.0000 0.30520  0.20660  0.09930  Biso   1.000  H
  C13      1.0000 0.58280  0.60100  0.82647  Biso   1.000  C
  C14      1.0000 0.41720  0.39900  0.17353  Biso   1.000  C
  H17      1.0000 0.64700  0.60400  0.78780  Biso   1.000  H
  H18      1.0000 0.35300  0.39600  0.21220  Biso   1.000  H
  C15      1.0000 0.46220  0.48280  0.81553  Biso   1.000  C
  C16      1.0000 0.53780  0.51720  0.18447  Biso   1.000  C
  C17      1.0000 0.37040  0.48760  0.87231  Biso   1.000  C
  C18      1.0000 0.62960  0.51240  0.12769  Biso   1.000  C
  H19      1.0000 0.28550  0.40950  0.86690  Biso   1.000  H
  H20      1.0000 0.71450  0.59050  0.13310  Biso   1.000  H
  C19      1.0000 0.40160  0.60470  0.93622  Biso   1.000  C
  C20      1.0000 0.59840  0.39530  0.06378  Biso   1.000  C
  H21      1.0000 0.33620  0.60560  0.97340  Biso   1.000  H
  H22      1.0000 0.66380  0.39440  0.02660  Biso   1.000  H
  C21      1.0000 0.40050  0.14610  0.34429  Biso   1.000  C
  C22      1.0000 0.59950  0.85390  0.65571  Biso   1.000  C
  H23      1.0000 0.31850  0.13110  0.28410  Biso   1.000  H
  H24      1.0000 0.68150  0.86890  0.71590  Biso   1.000  H
  C23      1.0000 0.37890  0.17140  0.43362  Biso   1.000  C
  C24      1.0000 0.62110  0.82860  0.56638  Biso   1.000  C
  H25      1.0000 0.28380  0.17530  0.43400  Biso   1.000  H
  H26      1.0000 0.71620  0.82470  0.56600  Biso   1.000  H
  C25      1.0000 0.49440  0.19110  0.52277  Biso   1.000  C
  C26      1.0000 0.50560  0.80890  0.47723  Biso   1.000  C
  C27      1.0000 0.63110  0.18860  0.51657  Biso   1.000  C
  C28      1.0000 0.36890  0.81140  0.48343  Biso   1.000  C
  H27      1.0000 0.71470  0.20280  0.57560  Biso   1.000  H
  H28      1.0000 0.28530  0.79720  0.42440  Biso   1.000  H
  C29      1.0000 0.64690  0.16540  0.42499  Biso   1.000  C
  C30      1.0000 0.35310  0.83460  0.57501  Biso   1.000  C
  H29      1.0000 0.74300  0.16610  0.42280  Biso   1.000  H
  H30      1.0000 0.25700  0.83390  0.57720  Biso   1.000  H
  C31      1.0000 0.43220  0.35120  0.75151  Biso   1.000  C
  C32      1.0000 0.56780  0.64880  0.24849  Biso   1.000  C
  H31      1.0000 0.31960  0.29950  0.72590  Biso   1.000  H
  H32      1.0000 0.68040  0.70050  0.27410  Biso   1.000  H
  H33      1.0000 0.48000  0.30160  0.79520  Biso   1.000  H
  H34      1.0000 0.52000  0.69840  0.20480  Biso   1.000  H
  C33      1.0000 0.48750  0.35170  0.66288  Biso   1.000  C
  C34      1.0000 0.51250  0.64830  0.33712  Biso   1.000  C
  H35      1.0000 0.59730  0.41190  0.68440  Biso   1.000  H
  H36      1.0000 0.40270  0.58810  0.31560  Biso   1.000  H
  H37      1.0000 0.42690  0.38460  0.61120  Biso   1.000  H
  H38      1.0000 0.57310  0.61540  0.38880  Biso   1.000  H
  C35      1.0000 0.46750  0.20930  0.62010  Biso   1.000  C
  C36      1.0000 0.53250  0.79070  0.37990  Biso   1.000  C
  H39      1.0000 0.53990  0.18300  0.66950  Biso   1.000  H
  H40      1.0000 0.46010  0.81700  0.33050  Biso   1.000  H
  H41      1.0000 0.36160  0.14820  0.61060  Biso   1.000  H
  H42      1.0000 0.63840  0.85180  0.38940  Biso   1.000  H
  C37      1.0000 0.06760  0.63130  0.05874  Biso   1.000  C
  C38      1.0000 0.93240  0.36870  0.94126  Biso   1.000  C
  C39      1.0000 0.14090  0.77250  0.12010  Biso   1.000  C
  C40      1.0000 0.85910  0.22750  0.87990  Biso   1.000  C
  H43      1.0000 0.14760  0.76970  0.18970  Biso   1.000  H
  H44      1.0000 0.85240  0.23030  0.81030  Biso   1.000  H
  H45      1.0000 0.07200  0.81950  0.09510  Biso   1.000  H
  H46      1.0000 0.92800  0.18050  0.90490  Biso   1.000  H
  C41      1.0000 0.30110  0.85420  0.12048  Biso   1.000  C
  C42      1.0000 0.69890  0.14580  0.87952  Biso   1.000  C
  C43      1.0000 0.12600  0.53560  0.08453  Biso   1.000  C
  C44      1.0000 0.87400  0.46440  0.91547  Biso   1.000  C
  H47      1.0000 0.21350  0.55870  0.14310  Biso   1.000  H
  H48      1.0000 0.78650  0.44130  0.85690  Biso   1.000  H
  C45      1.0000 0.94040  0.59290  0.97319  Biso   1.000  C
  C46      1.0000 0.05960  0.40710  0.02681  Biso   1.000  C
  H49      1.0000 0.89750  0.65630  0.95350  Biso   1.000  H
  H50      1.0000 0.10250  0.34370  0.04650  Biso   1.000  H
  C47      1.0000 0.78480  0.94440  0.22163  Biso   1.000  C
  C48      1.0000 0.21520  0.05560  0.77837  Biso   1.000  C
  C49      1.0000 0.93970  0.94560  0.28553  Biso   1.000  C
  C50      1.0000 0.06030  0.05440  0.71447  Biso   1.000  C
  H51      1.0000 0.94420  0.85790  0.26500  Biso   1.000  H
  H52      1.0000 0.05580  0.14210  0.73500  Biso   1.000  H
  H53      1.0000 0.02260  0.01390  0.27180  Biso   1.000  H
  H54      1.0000 0.97740  0.98610  0.72820  Biso   1.000  H
  C51      1.0000 0.97160  0.97390  0.39646  Biso   1.000  C
  C52      1.0000 0.02840  0.02610  0.60354  Biso   1.000  C
  C53      1.0000 0.99350  0.09780  0.44811  Biso   1.000  C
  C54      1.0000 0.00650  0.90220  0.55189  Biso   1.000  C
  H55      1.0000 0.98950  0.16640  0.41330  Biso   1.000  H
  H56      1.0000 0.01050  0.83360  0.58670  Biso   1.000  H
  C55      1.0000 0.97890  0.87670  0.45022  Biso   1.000  C
  C56      1.0000 0.02110  0.12330  0.54978  Biso   1.000  C
  H57      1.0000 0.96480  0.79100  0.41680  Biso   1.000  H
  H58      1.0000 0.03520  0.20900  0.58320  Biso   1.000  H
