data_image0
_cell_length_a       24.3822
_cell_length_b       12.6226
_cell_length_c       10.0392
_cell_angle_alpha    90
_cell_angle_beta     95.283
_cell_angle_gamma    90

_symmetry_space_group_name_H-M    "P 1"
_symmetry_int_tables_number       1

loop_
  _symmetry_equiv_pos_as_xyz
  'x, y, z'

loop_
  _atom_site_label
  _atom_site_occupancy
  _atom_site_fract_x
  _atom_site_fract_y
  _atom_site_fract_z
  _atom_site_thermal_displace_type
  _atom_site_B_iso_or_equiv
  _atom_site_type_symbol
  Cu1      1.0000 0.45772  0.52275  0.41212  Biso   1.000  Cu
  Cu2      1.0000 0.54228  0.02275  0.08788  Biso   1.000  Cu
  Cu3      1.0000 0.54228  0.47725  0.58788  Biso   1.000  Cu
  Cu4      1.0000 0.45772  0.97725  0.91212  Biso   1.000  Cu
  Cu5      1.0000 0.03729  0.98695  0.41358  Biso   1.000  Cu
  Cu6      1.0000 0.96271  0.48695  0.08642  Biso   1.000  Cu
  Cu7      1.0000 0.96271  0.01305  0.58642  Biso   1.000  Cu
  Cu8      1.0000 0.03729  0.51305  0.91358  Biso   1.000  Cu
  O1       1.0000 0.08554  0.93830  0.57060  Biso   1.000  O
  O2       1.0000 0.91446  0.43830  0.92940  Biso   1.000  O
  O3       1.0000 0.91446  0.06170  0.42940  Biso   1.000  O
  O4       1.0000 0.08554  0.56170  0.07060  Biso   1.000  O
  O5       1.0000 0.50469  0.46020  0.28330  Biso   1.000  O
  O6       1.0000 0.49531  0.96020  0.21670  Biso   1.000  O
  O7       1.0000 0.49531  0.53980  0.71670  Biso   1.000  O
  O8       1.0000 0.50469  0.03980  0.78330  Biso   1.000  O
  N1       1.0000 0.39349  0.56940  0.25880  Biso   1.000  N
  N2       1.0000 0.60651  0.06940  0.24120  Biso   1.000  N
  N3       1.0000 0.60651  0.43060  0.74120  Biso   1.000  N
  N4       1.0000 0.39349  0.93060  0.75880  Biso   1.000  N
  O9       1.0000 0.57085  0.88292  0.04260  Biso   1.000  O
  O10      1.0000 0.42915  0.38292  0.45740  Biso   1.000  O
  O11      1.0000 0.42915  0.11708  0.95740  Biso   1.000  O
  O12      1.0000 0.57085  0.61708  0.54260  Biso   1.000  O
  O13      1.0000 0.06160  0.36873  0.96250  Biso   1.000  O
  O14      1.0000 0.93840  0.86873  0.53750  Biso   1.000  O
  O15      1.0000 0.93840  0.63127  0.03750  Biso   1.000  O
  O16      1.0000 0.06160  0.13127  0.46250  Biso   1.000  O
  O17      1.0000 0.99774  0.34680  0.10540  Biso   1.000  O
  O18      1.0000 0.00226  0.84680  0.39460  Biso   1.000  O
  O19      1.0000 0.00226  0.65320  0.89460  Biso   1.000  O
  O20      1.0000 0.99774  0.15320  0.60540  Biso   1.000  O
  C1       1.0000 0.03956  0.31850  0.05170  Biso   1.000  C
  C2       1.0000 0.96044  0.81850  0.44830  Biso   1.000  C
  C3       1.0000 0.96044  0.68150  0.94830  Biso   1.000  C
  C4       1.0000 0.03956  0.18150  0.55170  Biso   1.000  C
  O21      1.0000 0.57636  0.42230  0.43200  Biso   1.000  O
  O22      1.0000 0.42364  0.92230  0.06800  Biso   1.000  O
  O23      1.0000 0.42364  0.57770  0.56800  Biso   1.000  O
  O24      1.0000 0.57636  0.07770  0.93200  Biso   1.000  O
  O25      1.0000 0.49923  0.84379  0.89690  Biso   1.000  O
  O26      1.0000 0.50077  0.34379  0.60310  Biso   1.000  O
  O27      1.0000 0.50077  0.15621  0.10310  Biso   1.000  O
  O28      1.0000 0.49923  0.65621  0.39690  Biso   1.000  O
  N5       1.0000 0.09638  0.94750  0.27270  Biso   1.000  N
  N6       1.0000 0.90362  0.44750  0.22730  Biso   1.000  N
  N7       1.0000 0.90362  0.05250  0.72730  Biso   1.000  N
  N8       1.0000 0.09638  0.55250  0.77270  Biso   1.000  N
  C5       1.0000 0.54631  0.82650  0.95370  Biso   1.000  C
  C6       1.0000 0.45369  0.32650  0.54630  Biso   1.000  C
  C7       1.0000 0.45369  0.17350  0.04630  Biso   1.000  C
  C8       1.0000 0.54631  0.67350  0.45370  Biso   1.000  C
  C9       1.0000 0.55309  0.43010  0.31490  Biso   1.000  C
  C10      1.0000 0.44691  0.93010  0.18510  Biso   1.000  C
  C11      1.0000 0.44691  0.56990  0.68510  Biso   1.000  C
  C12      1.0000 0.55309  0.06990  0.81490  Biso   1.000  C
  C13      1.0000 0.18084  0.86890  0.12890  Biso   1.000  C
  C14      1.0000 0.81916  0.36890  0.37110  Biso   1.000  C
  C15      1.0000 0.81916  0.13110  0.87110  Biso   1.000  C
  C16      1.0000 0.18084  0.63110  0.62890  Biso   1.000  C
  O29      1.0000 0.02151  0.95780  0.71440  Biso   1.000  O
  O30      1.0000 0.97849  0.45780  0.78560  Biso   1.000  O
  O31      1.0000 0.97849  0.04220  0.28560  Biso   1.000  O
  O32      1.0000 0.02151  0.54220  0.21440  Biso   1.000  O
  C17      1.0000 0.31488  0.63780  0.05540  Biso   1.000  C
  C18      1.0000 0.68512  0.13780  0.44460  Biso   1.000  C
  C19      1.0000 0.68512  0.36220  0.94460  Biso   1.000  C
  C20      1.0000 0.31488  0.86220  0.55540  Biso   1.000  C
  C21      1.0000 0.08968  0.85920  0.19970  Biso   1.000  C
  C22      1.0000 0.91032  0.35920  0.30030  Biso   1.000  C
  C23      1.0000 0.91032  0.14080  0.80030  Biso   1.000  C
  C24      1.0000 0.08968  0.64080  0.69970  Biso   1.000  C
  H1       1.0000 0.05540  0.82310  0.19720  Biso   1.000  H
  H2       1.0000 0.94460  0.32310  0.30280  Biso   1.000  H
  H3       1.0000 0.94460  0.17690  0.80280  Biso   1.000  H
  H4       1.0000 0.05540  0.67690  0.69720  Biso   1.000  H
  C25      1.0000 0.61264  0.51190  0.15790  Biso   1.000  C
  C26      1.0000 0.38736  0.01190  0.34210  Biso   1.000  C
  C27      1.0000 0.38736  0.48810  0.84210  Biso   1.000  C
  C28      1.0000 0.61264  0.98810  0.65790  Biso   1.000  C
  C29      1.0000 0.40286  0.65170  0.18080  Biso   1.000  C
  C30      1.0000 0.59714  0.15170  0.31920  Biso   1.000  C
  C31      1.0000 0.59714  0.34830  0.81920  Biso   1.000  C
  C32      1.0000 0.40286  0.84830  0.68080  Biso   1.000  C
  H5       1.0000 0.43740  0.68670  0.19460  Biso   1.000  H
  H6       1.0000 0.56260  0.18670  0.30540  Biso   1.000  H
  H7       1.0000 0.56260  0.31330  0.80540  Biso   1.000  H
  H8       1.0000 0.43740  0.81330  0.69460  Biso   1.000  H
  C33      1.0000 0.65623  0.70410  0.08180  Biso   1.000  C
  C34      1.0000 0.34377  0.20410  0.41820  Biso   1.000  C
  C35      1.0000 0.34377  0.29590  0.91820  Biso   1.000  C
  C36      1.0000 0.65623  0.79590  0.58180  Biso   1.000  C
  H9       1.0000 0.67160  0.76920  0.05570  Biso   1.000  H
  H10      1.0000 0.32840  0.26920  0.44430  Biso   1.000  H
  H11      1.0000 0.32840  0.23080  0.94430  Biso   1.000  H
  H12      1.0000 0.67160  0.73080  0.55570  Biso   1.000  H
  C37      1.0000 0.18637  0.96320  0.20140  Biso   1.000  C
  C38      1.0000 0.81363  0.46320  0.29860  Biso   1.000  C
  C39      1.0000 0.81363  0.03680  0.79860  Biso   1.000  C
  C40      1.0000 0.18637  0.53680  0.70140  Biso   1.000  C
  H13      1.0000 0.21950  0.00290  0.20240  Biso   1.000  H
  H14      1.0000 0.78050  0.50290  0.29760  Biso   1.000  H
  H15      1.0000 0.78050  0.99710  0.79760  Biso   1.000  H
  H16      1.0000 0.21950  0.49710  0.70240  Biso   1.000  H
  C41      1.0000 0.66026  0.55110  0.22420  Biso   1.000  C
  C42      1.0000 0.33974  0.05110  0.27580  Biso   1.000  C
  C43      1.0000 0.33974  0.44890  0.77580  Biso   1.000  C
  C44      1.0000 0.66026  0.94890  0.72420  Biso   1.000  C
  H17      1.0000 0.67810  0.51250  0.29710  Biso   1.000  H
  H18      1.0000 0.32190  0.01250  0.20290  Biso   1.000  H
  H19      1.0000 0.32190  0.48750  0.70290  Biso   1.000  H
  H20      1.0000 0.67810  0.98750  0.79710  Biso   1.000  H
  C45      1.0000 0.13023  0.81780  0.12750  Biso   1.000  C
  C46      1.0000 0.86977  0.31780  0.37250  Biso   1.000  C
  C47      1.0000 0.86977  0.18220  0.87250  Biso   1.000  C
  C48      1.0000 0.13023  0.68220  0.62750  Biso   1.000  C
  H21      1.0000 0.12360  0.75470  0.07710  Biso   1.000  H
  H22      1.0000 0.87640  0.25470  0.42290  Biso   1.000  H
  H23      1.0000 0.87640  0.24530  0.92290  Biso   1.000  H
  H24      1.0000 0.12360  0.74530  0.57710  Biso   1.000  H
  C49      1.0000 0.14425  0.99910  0.27120  Biso   1.000  C
  C50      1.0000 0.85575  0.49910  0.22880  Biso   1.000  C
  C51      1.0000 0.85575  0.00090  0.72880  Biso   1.000  C
  C52      1.0000 0.14425  0.50090  0.77120  Biso   1.000  C
  H25      1.0000 0.14930  0.06310  0.32050  Biso   1.000  H
  H26      1.0000 0.85070  0.56310  0.17950  Biso   1.000  H
  H27      1.0000 0.85070  0.93690  0.67950  Biso   1.000  H
  H28      1.0000 0.14930  0.43690  0.82050  Biso   1.000  H
  C53      1.0000 0.27261  0.67280  0.94430  Biso   1.000  C
  C54      1.0000 0.72739  0.17280  0.55570  Biso   1.000  C
  C55      1.0000 0.72739  0.32720  0.05570  Biso   1.000  C
  C56      1.0000 0.27261  0.82720  0.44430  Biso   1.000  C
  H29      1.0000 0.26280  0.61150  0.88530  Biso   1.000  H
  H30      1.0000 0.73720  0.11150  0.61470  Biso   1.000  H
  H31      1.0000 0.73720  0.38850  0.11470  Biso   1.000  H
  H32      1.0000 0.26280  0.88850  0.38530  Biso   1.000  H
  H33      1.0000 0.28930  0.72750  0.89000  Biso   1.000  H
  H34      1.0000 0.71070  0.22750  0.61000  Biso   1.000  H
  H35      1.0000 0.71070  0.27250  0.11000  Biso   1.000  H
  H36      1.0000 0.28930  0.77250  0.39000  Biso   1.000  H
  C57      1.0000 0.30553  0.55120  0.13580  Biso   1.000  C
  C58      1.0000 0.69447  0.05120  0.36420  Biso   1.000  C
  C59      1.0000 0.69447  0.44880  0.86420  Biso   1.000  C
  C60      1.0000 0.30553  0.94880  0.63580  Biso   1.000  C
  H37      1.0000 0.27180  0.51330  0.12220  Biso   1.000  H
  H38      1.0000 0.72820  0.01330  0.37780  Biso   1.000  H
  H39      1.0000 0.72820  0.48670  0.87780  Biso   1.000  H
  H40      1.0000 0.27180  0.98670  0.62220  Biso   1.000  H
  C61      1.0000 0.58617  0.57110  0.05350  Biso   1.000  C
  C62      1.0000 0.41383  0.07110  0.44650  Biso   1.000  C
  C63      1.0000 0.41383  0.42890  0.94650  Biso   1.000  C
  C64      1.0000 0.58617  0.92890  0.55350  Biso   1.000  C
  H41      1.0000 0.55300  0.54520  0.00780  Biso   1.000  H
  H42      1.0000 0.44700  0.04520  0.49220  Biso   1.000  H
  H43      1.0000 0.44700  0.45480  0.99220  Biso   1.000  H
  H44      1.0000 0.55300  0.95480  0.50780  Biso   1.000  H
  C65      1.0000 0.57665  0.73040  0.90500  Biso   1.000  C
  C66      1.0000 0.42335  0.23040  0.59500  Biso   1.000  C
  C67      1.0000 0.42335  0.26960  0.09500  Biso   1.000  C
  C68      1.0000 0.57665  0.76960  0.40500  Biso   1.000  C
  H45      1.0000 0.54960  0.68320  0.85510  Biso   1.000  H
  H46      1.0000 0.45040  0.18320  0.64490  Biso   1.000  H
  H47      1.0000 0.45040  0.31680  0.14490  Biso   1.000  H
  H48      1.0000 0.54960  0.81680  0.35510  Biso   1.000  H
  H49      1.0000 0.60300  0.75470  0.84210  Biso   1.000  H
  H50      1.0000 0.39700  0.25470  0.65790  Biso   1.000  H
  H51      1.0000 0.39700  0.24530  0.15790  Biso   1.000  H
  H52      1.0000 0.60300  0.74530  0.34210  Biso   1.000  H
  C69      1.0000 0.58771  0.40850  0.19970  Biso   1.000  C
  C70      1.0000 0.41229  0.90850  0.30030  Biso   1.000  C
  C71      1.0000 0.41229  0.59150  0.80030  Biso   1.000  C
  C72      1.0000 0.58771  0.09150  0.69970  Biso   1.000  C
  H53      1.0000 0.61730  0.35730  0.22800  Biso   1.000  H
  H54      1.0000 0.38270  0.85730  0.27200  Biso   1.000  H
  H55      1.0000 0.38270  0.64270  0.77200  Biso   1.000  H
  H56      1.0000 0.61730  0.14270  0.72800  Biso   1.000  H
  H57      1.0000 0.56450  0.37760  0.12350  Biso   1.000  H
  H58      1.0000 0.43550  0.87760  0.37650  Biso   1.000  H
  H59      1.0000 0.43550  0.62240  0.87650  Biso   1.000  H
  H60      1.0000 0.56450  0.12240  0.62350  Biso   1.000  H
  C73      1.0000 0.06663  0.21640  0.10550  Biso   1.000  C
  C74      1.0000 0.93337  0.71640  0.39450  Biso   1.000  C
  C75      1.0000 0.93337  0.78360  0.89450  Biso   1.000  C
  C76      1.0000 0.06663  0.28360  0.60550  Biso   1.000  C
  H61      1.0000 0.03730  0.16440  0.11940  Biso   1.000  H
  H62      1.0000 0.96270  0.66440  0.38060  Biso   1.000  H
  H63      1.0000 0.96270  0.83560  0.88060  Biso   1.000  H
  H64      1.0000 0.03730  0.33560  0.61940  Biso   1.000  H
  H65      1.0000 0.08650  0.23140  0.19390  Biso   1.000  H
  H66      1.0000 0.91350  0.73140  0.30610  Biso   1.000  H
  H67      1.0000 0.91350  0.76860  0.80610  Biso   1.000  H
  H68      1.0000 0.08650  0.26860  0.69390  Biso   1.000  H
  C77      1.0000 0.60765  0.66760  0.01530  Biso   1.000  C
  C78      1.0000 0.39235  0.16760  0.48470  Biso   1.000  C
  C79      1.0000 0.39235  0.33240  0.98470  Biso   1.000  C
  C80      1.0000 0.60765  0.83240  0.51530  Biso   1.000  C
  C81      1.0000 0.36456  0.68900  0.08020  Biso   1.000  C
  C82      1.0000 0.63544  0.18900  0.41980  Biso   1.000  C
  C83      1.0000 0.63544  0.31100  0.91980  Biso   1.000  C
  C84      1.0000 0.36456  0.81100  0.58020  Biso   1.000  C
  H69      1.0000 0.37270  0.74940  0.02910  Biso   1.000  H
  H70      1.0000 0.62730  0.24940  0.47090  Biso   1.000  H
  H71      1.0000 0.62730  0.25060  0.97090  Biso   1.000  H
  H72      1.0000 0.37270  0.75060  0.52910  Biso   1.000  H
  C85      1.0000 0.22834  0.82490  0.05980  Biso   1.000  C
  C86      1.0000 0.77166  0.32490  0.44020  Biso   1.000  C
  C87      1.0000 0.77166  0.17510  0.94020  Biso   1.000  C
  C88      1.0000 0.22834  0.67510  0.55980  Biso   1.000  C
  H73      1.0000 0.23730  0.87610  0.99040  Biso   1.000  H
  H74      1.0000 0.76270  0.37610  0.50960  Biso   1.000  H
  H75      1.0000 0.76270  0.12390  0.00960  Biso   1.000  H
  H76      1.0000 0.23730  0.62390  0.49040  Biso   1.000  H
  H77      1.0000 0.26080  0.82040  0.12640  Biso   1.000  H
  H78      1.0000 0.73920  0.32040  0.37360  Biso   1.000  H
  H79      1.0000 0.73920  0.17960  0.87360  Biso   1.000  H
  H80      1.0000 0.26080  0.67960  0.62640  Biso   1.000  H
  C89      1.0000 0.68253  0.64640  0.18590  Biso   1.000  C
  C90      1.0000 0.31747  0.14640  0.31410  Biso   1.000  C
  C91      1.0000 0.31747  0.35360  0.81410  Biso   1.000  C
  C92      1.0000 0.68253  0.85360  0.68590  Biso   1.000  C
  H81      1.0000 0.71580  0.67200  0.23120  Biso   1.000  H
  H82      1.0000 0.28420  0.17200  0.26880  Biso   1.000  H
  H83      1.0000 0.28420  0.32800  0.76880  Biso   1.000  H
  H84      1.0000 0.71580  0.82800  0.73120  Biso   1.000  H
  C93      1.0000 0.21981  0.71770  0.99490  Biso   1.000  C
  C94      1.0000 0.78019  0.21770  0.50510  Biso   1.000  C
  C95      1.0000 0.78019  0.28230  0.00510  Biso   1.000  C
  C96      1.0000 0.21981  0.78230  0.49490  Biso   1.000  C
  H85      1.0000 0.19120  0.72360  0.91870  Biso   1.000  H
  H86      1.0000 0.80880  0.22360  0.58130  Biso   1.000  H
  H87      1.0000 0.80880  0.27640  0.08130  Biso   1.000  H
  H88      1.0000 0.19120  0.77640  0.41870  Biso   1.000  H
  H89      1.0000 0.20620  0.66770  0.06030  Biso   1.000  H
  H90      1.0000 0.79380  0.16770  0.43970  Biso   1.000  H
  H91      1.0000 0.79380  0.33230  0.93970  Biso   1.000  H
  H92      1.0000 0.20620  0.83230  0.56030  Biso   1.000  H
  C97      1.0000 0.34478  0.52010  0.23480  Biso   1.000  C
  C98      1.0000 0.65522  0.02010  0.26520  Biso   1.000  C
  C99      1.0000 0.65522  0.47990  0.76520  Biso   1.000  C
  C100     1.0000 0.34478  0.97990  0.73480  Biso   1.000  C
  H93      1.0000 0.33720  0.46110  0.28890  Biso   1.000  H
  H94      1.0000 0.66280  0.96110  0.21110  Biso   1.000  H
  H95      1.0000 0.66280  0.53890  0.71110  Biso   1.000  H
  H96      1.0000 0.33720  0.03890  0.78890  Biso   1.000  H
  C101     1.0000 0.12833  0.02220  0.87170  Biso   1.000  C
  C102     1.0000 0.87167  0.52220  0.62830  Biso   1.000  C
  C103     1.0000 0.87167  0.97780  0.12830  Biso   1.000  C
  C104     1.0000 0.12833  0.47780  0.37170  Biso   1.000  C
  C105     1.0000 0.10630  0.16640  0.01780  Biso   1.000  C
  C106     1.0000 0.89370  0.66640  0.48220  Biso   1.000  C
  C107     1.0000 0.89370  0.83360  0.98220  Biso   1.000  C
  C108     1.0000 0.10630  0.33360  0.51780  Biso   1.000  C
  C109     1.0000 0.09234  0.07270  0.95150  Biso   1.000  C
  C110     1.0000 0.90766  0.57270  0.54850  Biso   1.000  C
  C111     1.0000 0.90766  0.92730  0.04850  Biso   1.000  C
  C112     1.0000 0.09234  0.42730  0.45150  Biso   1.000  C
  H97      1.0000 0.05730  0.04200  0.96050  Biso   1.000  H
  H98      1.0000 0.94270  0.54200  0.53950  Biso   1.000  H
  H99      1.0000 0.94270  0.95800  0.03950  Biso   1.000  H
  H100     1.0000 0.05730  0.45800  0.46050  Biso   1.000  H
  C113     1.0000 0.15741  0.21140  0.00280  Biso   1.000  C
  C114     1.0000 0.84259  0.71140  0.49720  Biso   1.000  C
  C115     1.0000 0.84259  0.78860  0.99720  Biso   1.000  C
  C116     1.0000 0.15741  0.28860  0.50280  Biso   1.000  C
  H101     1.0000 0.16780  0.27550  0.04780  Biso   1.000  H
  H102     1.0000 0.83220  0.77550  0.45220  Biso   1.000  H
  H103     1.0000 0.83220  0.72450  0.95220  Biso   1.000  H
  H104     1.0000 0.16780  0.22450  0.54780  Biso   1.000  H
  C117     1.0000 0.06951  0.93850  0.68580  Biso   1.000  C
  C118     1.0000 0.93049  0.43850  0.81420  Biso   1.000  C
  C119     1.0000 0.93049  0.06150  0.31420  Biso   1.000  C
  C120     1.0000 0.06951  0.56150  0.18580  Biso   1.000  C
  C121     1.0000 0.11237  0.91910  0.80200  Biso   1.000  C
  C122     1.0000 0.88763  0.41910  0.69800  Biso   1.000  C
  C123     1.0000 0.88763  0.08090  0.19800  Biso   1.000  C
  C124     1.0000 0.11237  0.58090  0.30200  Biso   1.000  C
  H105     1.0000 0.14540  0.88600  0.76900  Biso   1.000  H
  H106     1.0000 0.85460  0.38600  0.73100  Biso   1.000  H
  H107     1.0000 0.85460  0.11400  0.23100  Biso   1.000  H
  H108     1.0000 0.14540  0.61400  0.26900  Biso   1.000  H
  H109     1.0000 0.09740  0.86970  0.86620  Biso   1.000  H
  H110     1.0000 0.90260  0.36970  0.63380  Biso   1.000  H
  H111     1.0000 0.90260  0.13030  0.13380  Biso   1.000  H
  H112     1.0000 0.09740  0.63030  0.36620  Biso   1.000  H
  C125     1.0000 0.17885  0.06980  0.85770  Biso   1.000  C
  C126     1.0000 0.82115  0.56980  0.64230  Biso   1.000  C
  C127     1.0000 0.82115  0.93020  0.14230  Biso   1.000  C
  C128     1.0000 0.17885  0.43020  0.35770  Biso   1.000  C
  H113     1.0000 0.20390  0.03770  0.80280  Biso   1.000  H
  H114     1.0000 0.79610  0.53770  0.69720  Biso   1.000  H
  H115     1.0000 0.79610  0.96230  0.19720  Biso   1.000  H
  H116     1.0000 0.20390  0.46230  0.30280  Biso   1.000  H
  C129     1.0000 0.19273  0.16340  0.92320  Biso   1.000  C
  C130     1.0000 0.80727  0.66340  0.57680  Biso   1.000  C
  C131     1.0000 0.80727  0.83660  0.07680  Biso   1.000  C
  C132     1.0000 0.19273  0.33660  0.42320  Biso   1.000  C
  H117     1.0000 0.22740  0.19510  0.91290  Biso   1.000  H
  H118     1.0000 0.77260  0.69510  0.58710  Biso   1.000  H
  H119     1.0000 0.77260  0.80490  0.08710  Biso   1.000  H
  H120     1.0000 0.22740  0.30490  0.41290  Biso   1.000  H
