data_image0
_cell_length_a       12.71
_cell_length_b       14.147
_cell_length_c       14.089
_cell_angle_alpha    90
_cell_angle_beta     100.99
_cell_angle_gamma    90

_symmetry_space_group_name_H-M    "P 1"
_symmetry_int_tables_number       1

loop_
  _symmetry_equiv_pos_as_xyz
  'x, y, z'

loop_
  _atom_site_label
  _atom_site_occupancy
  _atom_site_fract_x
  _atom_site_fract_y
  _atom_site_fract_z
  _atom_site_thermal_displace_type
  _atom_site_B_iso_or_equiv
  _atom_site_type_symbol
  Cu1      1.0000 0.50000  0.72940  0.25000  Biso   1.000  Cu
  Cu2      1.0000 0.00000  0.22940  0.25000  Biso   1.000  Cu
  Cu3      1.0000 0.50000  0.27060  0.75000  Biso   1.000  Cu
  Cu4      1.0000 0.00000  0.77060  0.75000  Biso   1.000  Cu
  N1       1.0000 0.81130  0.72270  0.38220  Biso   1.000  N
  N2       1.0000 0.18870  0.72270  0.11780  Biso   1.000  N
  N3       1.0000 0.31130  0.22270  0.38220  Biso   1.000  N
  N4       1.0000 0.68870  0.22270  0.11780  Biso   1.000  N
  N5       1.0000 0.18870  0.27730  0.61780  Biso   1.000  N
  N6       1.0000 0.81130  0.27730  0.88220  Biso   1.000  N
  N7       1.0000 0.68870  0.77730  0.61780  Biso   1.000  N
  N8       1.0000 0.31130  0.77730  0.88220  Biso   1.000  N
  N9       1.0000 0.75560  0.72670  0.30550  Biso   1.000  N
  N10      1.0000 0.24440  0.72670  0.19450  Biso   1.000  N
  N11      1.0000 0.25560  0.22670  0.30550  Biso   1.000  N
  N12      1.0000 0.74440  0.22670  0.19450  Biso   1.000  N
  N13      1.0000 0.24440  0.27330  0.69450  Biso   1.000  N
  N14      1.0000 0.75560  0.27330  0.80550  Biso   1.000  N
  N15      1.0000 0.74440  0.77330  0.69450  Biso   1.000  N
  N16      1.0000 0.25560  0.77330  0.80550  Biso   1.000  N
  N17      1.0000 0.70100  0.72880  0.22890  Biso   1.000  N
  N18      1.0000 0.29900  0.72880  0.27110  Biso   1.000  N
  N19      1.0000 0.20100  0.22880  0.22890  Biso   1.000  N
  N20      1.0000 0.79900  0.22880  0.27110  Biso   1.000  N
  N21      1.0000 0.29900  0.27120  0.77110  Biso   1.000  N
  N22      1.0000 0.70100  0.27120  0.72890  Biso   1.000  N
  N23      1.0000 0.79900  0.77120  0.77110  Biso   1.000  N
  N24      1.0000 0.20100  0.77120  0.72890  Biso   1.000  N
  N25      1.0000 0.55510  0.72980  0.39260  Biso   1.000  N
  N26      1.0000 0.44490  0.72980  0.10740  Biso   1.000  N
  N27      1.0000 0.05510  0.22980  0.39260  Biso   1.000  N
  N28      1.0000 0.94490  0.22980  0.10740  Biso   1.000  N
  N29      1.0000 0.44490  0.27020  0.60740  Biso   1.000  N
  N30      1.0000 0.55510  0.27020  0.89260  Biso   1.000  N
  N31      1.0000 0.94490  0.77020  0.60740  Biso   1.000  N
  N32      1.0000 0.05510  0.77020  0.89260  Biso   1.000  N
  N33      1.0000 0.49360  0.73970  0.44720  Biso   1.000  N
  N34      1.0000 0.50640  0.73970  0.05280  Biso   1.000  N
  N35      1.0000 0.99360  0.23970  0.44720  Biso   1.000  N
  N36      1.0000 0.00640  0.23970  0.05280  Biso   1.000  N
  N37      1.0000 0.50640  0.26030  0.55280  Biso   1.000  N
  N38      1.0000 0.49360  0.26030  0.94720  Biso   1.000  N
  N39      1.0000 0.00640  0.76030  0.55280  Biso   1.000  N
  N40      1.0000 0.99360  0.76030  0.94720  Biso   1.000  N
  N41      1.0000 0.43950  0.75020  0.50300  Biso   1.000  N
  N42      1.0000 0.56050  0.75020  0.99700  Biso   1.000  N
  N43      1.0000 0.93950  0.25020  0.50300  Biso   1.000  N
  N44      1.0000 0.06050  0.25020  0.99700  Biso   1.000  N
  N45      1.0000 0.56050  0.24980  0.49700  Biso   1.000  N
  N46      1.0000 0.43950  0.24980  0.00300  Biso   1.000  N
  N47      1.0000 0.06050  0.74980  0.49700  Biso   1.000  N
  N48      1.0000 0.93950  0.74980  0.00300  Biso   1.000  N
  N49      1.0000 0.50000  0.58370  0.25000  Biso   1.000  N
  N50      1.0000 0.00000  0.08370  0.25000  Biso   1.000  N
  N51      1.0000 0.50000  0.41630  0.75000  Biso   1.000  N
  N52      1.0000 0.00000  0.91630  0.75000  Biso   1.000  N
  C1       1.0000 0.57990  0.53460  0.30500  Biso   1.000  C
  C2       1.0000 0.42010  0.53460  0.19500  Biso   1.000  C
  C3       1.0000 0.07990  0.03460  0.30500  Biso   1.000  C
  C4       1.0000 0.92010  0.03460  0.19500  Biso   1.000  C
  C5       1.0000 0.42010  0.46540  0.69500  Biso   1.000  C
  C6       1.0000 0.57990  0.46540  0.80500  Biso   1.000  C
  C7       1.0000 0.92010  0.96540  0.69500  Biso   1.000  C
  C8       1.0000 0.07990  0.96540  0.80500  Biso   1.000  C
  C9       1.0000 0.58350  0.43860  0.30600  Biso   1.000  C
  C10      1.0000 0.41650  0.43860  0.19400  Biso   1.000  C
  C11      1.0000 0.08350  0.93860  0.30600  Biso   1.000  C
  C12      1.0000 0.91650  0.93860  0.19400  Biso   1.000  C
  C13      1.0000 0.41650  0.56140  0.69400  Biso   1.000  C
  C14      1.0000 0.58350  0.56140  0.80600  Biso   1.000  C
  C15      1.0000 0.91650  0.06140  0.69400  Biso   1.000  C
  C16      1.0000 0.08350  0.06140  0.80600  Biso   1.000  C
  C17      1.0000 0.50000  0.38880  0.25000  Biso   1.000  C
  C18      1.0000 0.00000  0.88880  0.25000  Biso   1.000  C
  C19      1.0000 0.50000  0.61120  0.75000  Biso   1.000  C
  C20      1.0000 0.00000  0.11120  0.75000  Biso   1.000  C
  N53      1.0000 0.50000  0.87310  0.25000  Biso   1.000  N
  N54      1.0000 0.00000  0.37310  0.25000  Biso   1.000  N
  N55      1.0000 0.50000  0.12690  0.75000  Biso   1.000  N
  N56      1.0000 0.00000  0.62690  0.75000  Biso   1.000  N
  C21      1.0000 0.57800  0.92180  0.21800  Biso   1.000  C
  C22      1.0000 0.42200  0.92180  0.28200  Biso   1.000  C
  C23      1.0000 0.07800  0.42180  0.21800  Biso   1.000  C
  C24      1.0000 0.92200  0.42180  0.28200  Biso   1.000  C
  C25      1.0000 0.42200  0.07820  0.78200  Biso   1.000  C
  C26      1.0000 0.57800  0.07820  0.71800  Biso   1.000  C
  C27      1.0000 0.92200  0.57820  0.78200  Biso   1.000  C
  C28      1.0000 0.07800  0.57820  0.71800  Biso   1.000  C
  C29      1.0000 0.57950  0.01950  0.21790  Biso   1.000  C
  C30      1.0000 0.42050  0.01950  0.28210  Biso   1.000  C
  C31      1.0000 0.07950  0.51950  0.21790  Biso   1.000  C
  C32      1.0000 0.92050  0.51950  0.28210  Biso   1.000  C
  C33      1.0000 0.42050  0.98050  0.78210  Biso   1.000  C
  C34      1.0000 0.57950  0.98050  0.71790  Biso   1.000  C
  C35      1.0000 0.92050  0.48050  0.78210  Biso   1.000  C
  C36      1.0000 0.07950  0.48050  0.71790  Biso   1.000  C
  C37      1.0000 0.50000  0.06720  0.25000  Biso   1.000  C
  C38      1.0000 0.00000  0.56720  0.25000  Biso   1.000  C
  C39      1.0000 0.50000  0.93280  0.75000  Biso   1.000  C
  C40      1.0000 0.00000  0.43280  0.75000  Biso   1.000  C
  Cu5      1.0000 0.75000  0.75000  0.50000  Biso   1.000  Cu
  Cu6      1.0000 0.25000  0.75000  0.00000  Biso   1.000  Cu
  Cu7      1.0000 0.25000  0.25000  0.50000  Biso   1.000  Cu
  Cu8      1.0000 0.75000  0.25000  0.00000  Biso   1.000  Cu
  N57      1.0000 0.75410  0.61170  0.53090  Biso   1.000  N
  N58      1.0000 0.24590  0.61170  0.96910  Biso   1.000  N
  N59      1.0000 0.25410  0.11170  0.53090  Biso   1.000  N
  N60      1.0000 0.74590  0.11170  0.96910  Biso   1.000  N
  N61      1.0000 0.24590  0.38830  0.46910  Biso   1.000  N
  N62      1.0000 0.75410  0.38830  0.03090  Biso   1.000  N
  N63      1.0000 0.74590  0.88830  0.46910  Biso   1.000  N
  N64      1.0000 0.25410  0.88830  0.03090  Biso   1.000  N
  C41      1.0000 0.67180  0.56840  0.55990  Biso   1.000  C
  C42      1.0000 0.32820  0.56840  0.94010  Biso   1.000  C
  C43      1.0000 0.17180  0.06840  0.55990  Biso   1.000  C
  C44      1.0000 0.82820  0.06840  0.94010  Biso   1.000  C
  C45      1.0000 0.32820  0.43160  0.44010  Biso   1.000  C
  C46      1.0000 0.67180  0.43160  0.05990  Biso   1.000  C
  C47      1.0000 0.82820  0.93160  0.44010  Biso   1.000  C
  C48      1.0000 0.17180  0.93160  0.05990  Biso   1.000  C
  C49      1.0000 0.66890  0.47160  0.57110  Biso   1.000  C
  C50      1.0000 0.33110  0.47160  0.92890  Biso   1.000  C
  C51      1.0000 0.16890  0.97160  0.57110  Biso   1.000  C
  C52      1.0000 0.83110  0.97160  0.92890  Biso   1.000  C
  C53      1.0000 0.33110  0.52840  0.42890  Biso   1.000  C
  C54      1.0000 0.66890  0.52840  0.07110  Biso   1.000  C
  C55      1.0000 0.83110  0.02840  0.42890  Biso   1.000  C
  C56      1.0000 0.16890  0.02840  0.07110  Biso   1.000  C
  C57      1.0000 0.75280  0.41690  0.55480  Biso   1.000  C
  C58      1.0000 0.24720  0.41690  0.94520  Biso   1.000  C
  C59      1.0000 0.25280  0.91690  0.55480  Biso   1.000  C
  C60      1.0000 0.74720  0.91690  0.94520  Biso   1.000  C
  C61      1.0000 0.24720  0.58310  0.44520  Biso   1.000  C
  C62      1.0000 0.75280  0.58310  0.05480  Biso   1.000  C
  C63      1.0000 0.74720  0.08310  0.44520  Biso   1.000  C
  C64      1.0000 0.25280  0.08310  0.05480  Biso   1.000  C
  C65      1.0000 0.83850  0.46170  0.52640  Biso   1.000  C
  C66      1.0000 0.16150  0.46170  0.97360  Biso   1.000  C
  C67      1.0000 0.33850  0.96170  0.52640  Biso   1.000  C
  C68      1.0000 0.66150  0.96170  0.97360  Biso   1.000  C
  C69      1.0000 0.16150  0.53830  0.47360  Biso   1.000  C
  C70      1.0000 0.83850  0.53830  0.02640  Biso   1.000  C
  C71      1.0000 0.66150  0.03830  0.47360  Biso   1.000  C
  C72      1.0000 0.33850  0.03830  0.02640  Biso   1.000  C
  C73      1.0000 0.83650  0.55720  0.51510  Biso   1.000  C
  C74      1.0000 0.16350  0.55720  0.98490  Biso   1.000  C
  C75      1.0000 0.33650  0.05720  0.51510  Biso   1.000  C
  C76      1.0000 0.66350  0.05720  0.98490  Biso   1.000  C
  C77      1.0000 0.16350  0.44280  0.48490  Biso   1.000  C
  C78      1.0000 0.83650  0.44280  0.01510  Biso   1.000  C
  C79      1.0000 0.66350  0.94280  0.48490  Biso   1.000  C
  C80      1.0000 0.33650  0.94280  0.01510  Biso   1.000  C
  H1       1.0000 0.64380  0.57310  0.35030  Biso   1.000  H
  H2       1.0000 0.35620  0.57310  0.14970  Biso   1.000  H
  H3       1.0000 0.14380  0.07310  0.35030  Biso   1.000  H
  H4       1.0000 0.85620  0.07310  0.14970  Biso   1.000  H
  H5       1.0000 0.35620  0.42690  0.64970  Biso   1.000  H
  H6       1.0000 0.64380  0.42690  0.85030  Biso   1.000  H
  H7       1.0000 0.85620  0.92690  0.64970  Biso   1.000  H
  H8       1.0000 0.14380  0.92690  0.85030  Biso   1.000  H
  H9       1.0000 0.65010  0.40170  0.34950  Biso   1.000  H
  H10      1.0000 0.34990  0.40170  0.15050  Biso   1.000  H
  H11      1.0000 0.15010  0.90170  0.34950  Biso   1.000  H
  H12      1.0000 0.84990  0.90170  0.15050  Biso   1.000  H
  H13      1.0000 0.34990  0.59830  0.65050  Biso   1.000  H
  H14      1.0000 0.65010  0.59830  0.84950  Biso   1.000  H
  H15      1.0000 0.84990  0.09830  0.65050  Biso   1.000  H
  H16      1.0000 0.15010  0.09830  0.84950  Biso   1.000  H
  H17      1.0000 0.50000  0.31400  0.25000  Biso   1.000  H
  H18      1.0000 0.00000  0.81400  0.25000  Biso   1.000  H
  H19      1.0000 0.50000  0.68600  0.75000  Biso   1.000  H
  H20      1.0000 0.00000  0.18600  0.75000  Biso   1.000  H
  H21      1.0000 0.64030  0.88350  0.19190  Biso   1.000  H
  H22      1.0000 0.35970  0.88350  0.30810  Biso   1.000  H
  H23      1.0000 0.14030  0.38350  0.19190  Biso   1.000  H
  H24      1.0000 0.85970  0.38350  0.30810  Biso   1.000  H
  H25      1.0000 0.35970  0.11650  0.80810  Biso   1.000  H
  H26      1.0000 0.64030  0.11650  0.69190  Biso   1.000  H
  H27      1.0000 0.85970  0.61650  0.80810  Biso   1.000  H
  H28      1.0000 0.14030  0.61650  0.69190  Biso   1.000  H
  H29      1.0000 0.64270  0.05740  0.19280  Biso   1.000  H
  H30      1.0000 0.35730  0.05740  0.30720  Biso   1.000  H
  H31      1.0000 0.14270  0.55740  0.19280  Biso   1.000  H
  H32      1.0000 0.85730  0.55740  0.30720  Biso   1.000  H
  H33      1.0000 0.35730  0.94260  0.80720  Biso   1.000  H
  H34      1.0000 0.64270  0.94260  0.69280  Biso   1.000  H
  H35      1.0000 0.85730  0.44260  0.80720  Biso   1.000  H
  H36      1.0000 0.14270  0.44260  0.69280  Biso   1.000  H
  H37      1.0000 0.50000  0.14120  0.25000  Biso   1.000  H
  H38      1.0000 0.00000  0.64120  0.25000  Biso   1.000  H
  H39      1.0000 0.50000  0.85880  0.75000  Biso   1.000  H
  H40      1.0000 0.00000  0.35880  0.75000  Biso   1.000  H
  H41      1.0000 0.60590  0.61050  0.57500  Biso   1.000  H
  H42      1.0000 0.39410  0.61050  0.92500  Biso   1.000  H
  H43      1.0000 0.10590  0.11050  0.57500  Biso   1.000  H
  H44      1.0000 0.89410  0.11050  0.92500  Biso   1.000  H
  H45      1.0000 0.39410  0.38950  0.42500  Biso   1.000  H
  H46      1.0000 0.60590  0.38950  0.07500  Biso   1.000  H
  H47      1.0000 0.89410  0.88950  0.42500  Biso   1.000  H
  H48      1.0000 0.10590  0.88950  0.07500  Biso   1.000  H
  H49      1.0000 0.60040  0.43890  0.59280  Biso   1.000  H
  H50      1.0000 0.39960  0.43890  0.90720  Biso   1.000  H
  H51      1.0000 0.10040  0.93890  0.59280  Biso   1.000  H
  H52      1.0000 0.89960  0.93890  0.90720  Biso   1.000  H
  H53      1.0000 0.39960  0.56110  0.40720  Biso   1.000  H
  H54      1.0000 0.60040  0.56110  0.09280  Biso   1.000  H
  H55      1.0000 0.89960  0.06110  0.40720  Biso   1.000  H
  H56      1.0000 0.10040  0.06110  0.09280  Biso   1.000  H
  H57      1.0000 0.75200  0.34110  0.56390  Biso   1.000  H
  H58      1.0000 0.24800  0.34110  0.93610  Biso   1.000  H
  H59      1.0000 0.25200  0.84110  0.56390  Biso   1.000  H
  H60      1.0000 0.74800  0.84110  0.93610  Biso   1.000  H
  H61      1.0000 0.24800  0.65890  0.43610  Biso   1.000  H
  H62      1.0000 0.75200  0.65890  0.06390  Biso   1.000  H
  H63      1.0000 0.74800  0.15890  0.43610  Biso   1.000  H
  H64      1.0000 0.25200  0.15890  0.06390  Biso   1.000  H
  H65      1.0000 0.90630  0.42120  0.51320  Biso   1.000  H
  H66      1.0000 0.09370  0.42120  0.98680  Biso   1.000  H
  H67      1.0000 0.40630  0.92120  0.51320  Biso   1.000  H
  H68      1.0000 0.59370  0.92120  0.98680  Biso   1.000  H
  H69      1.0000 0.09370  0.57880  0.48680  Biso   1.000  H
  H70      1.0000 0.90630  0.57880  0.01320  Biso   1.000  H
  H71      1.0000 0.59370  0.07880  0.48680  Biso   1.000  H
  H72      1.0000 0.40630  0.07880  0.01320  Biso   1.000  H
  H73      1.0000 0.90380  0.59110  0.49250  Biso   1.000  H
  H74      1.0000 0.09620  0.59110  0.00750  Biso   1.000  H
  H75      1.0000 0.40380  0.09110  0.49250  Biso   1.000  H
  H76      1.0000 0.59620  0.09110  0.00750  Biso   1.000  H
  H77      1.0000 0.09620  0.40890  0.50750  Biso   1.000  H
  H78      1.0000 0.90380  0.40890  0.99250  Biso   1.000  H
  H79      1.0000 0.59620  0.90890  0.50750  Biso   1.000  H
  H80      1.0000 0.40380  0.90890  0.99250  Biso   1.000  H
