data_image0
_cell_length_a       11.413
_cell_length_b       22.242
_cell_length_c       7.736
_cell_angle_alpha    90
_cell_angle_beta     90
_cell_angle_gamma    90

_symmetry_space_group_name_H-M    "P 1"
_symmetry_int_tables_number       1

loop_
  _symmetry_equiv_pos_as_xyz
  'x, y, z'

loop_
  _atom_site_label
  _atom_site_occupancy
  _atom_site_fract_x
  _atom_site_fract_y
  _atom_site_fract_z
  _atom_site_thermal_displace_type
  _atom_site_B_iso_or_equiv
  _atom_site_type_symbol
  Cu1      1.0000 0.37700  0.09680  0.42280  Biso   1.000  Cu
  Cu2      1.0000 0.12300  0.90320  0.92280  Biso   1.000  Cu
  Cu3      1.0000 0.87700  0.40320  0.07720  Biso   1.000  Cu
  Cu4      1.0000 0.62300  0.59680  0.57720  Biso   1.000  Cu
  Cu5      1.0000 0.62300  0.90320  0.57720  Biso   1.000  Cu
  Cu6      1.0000 0.87700  0.09680  0.07720  Biso   1.000  Cu
  Cu7      1.0000 0.12300  0.59680  0.92280  Biso   1.000  Cu
  Cu8      1.0000 0.37700  0.40320  0.42280  Biso   1.000  Cu
  Fe1      1.0000 0.38050  0.25000  0.94240  Biso   1.000  Fe
  Fe2      1.0000 0.11950  0.75000  0.44240  Biso   1.000  Fe
  Fe3      1.0000 0.88050  0.25000  0.55760  Biso   1.000  Fe
  Fe4      1.0000 0.61950  0.75000  0.05760  Biso   1.000  Fe
  N1       1.0000 0.39600  0.15490  0.22900  Biso   1.000  N
  N2       1.0000 0.10400  0.84510  0.72900  Biso   1.000  N
  N3       1.0000 0.89600  0.34510  0.27100  Biso   1.000  N
  N4       1.0000 0.60400  0.65490  0.77100  Biso   1.000  N
  N5       1.0000 0.60400  0.84510  0.77100  Biso   1.000  N
  N6       1.0000 0.89600  0.15490  0.27100  Biso   1.000  N
  N7       1.0000 0.10400  0.65490  0.72900  Biso   1.000  N
  N8       1.0000 0.39600  0.34510  0.22900  Biso   1.000  N
  N9       1.0000 0.41200  0.15560  0.65400  Biso   1.000  N
  N10      1.0000 0.08800  0.84440  0.15400  Biso   1.000  N
  N11      1.0000 0.91200  0.34440  0.84600  Biso   1.000  N
  N12      1.0000 0.58800  0.65560  0.34600  Biso   1.000  N
  N13      1.0000 0.58800  0.84440  0.34600  Biso   1.000  N
  N14      1.0000 0.91200  0.15560  0.84600  Biso   1.000  N
  N15      1.0000 0.08800  0.65560  0.15400  Biso   1.000  N
  N16      1.0000 0.41200  0.34440  0.65400  Biso   1.000  N
  N17      1.0000 0.23200  0.25000  0.94000  Biso   1.000  N
  N18      1.0000 0.26800  0.75000  0.44000  Biso   1.000  N
  N19      1.0000 0.73200  0.25000  0.56000  Biso   1.000  N
  N20      1.0000 0.76800  0.75000  0.06000  Biso   1.000  N
  N21      1.0000 0.65000  0.25000  0.96800  Biso   1.000  N
  N22      1.0000 0.85000  0.75000  0.46800  Biso   1.000  N
  N23      1.0000 0.15000  0.25000  0.53200  Biso   1.000  N
  N24      1.0000 0.35000  0.75000  0.03200  Biso   1.000  N
  O1       1.0000 0.13400  0.25000  0.95500  Biso   1.000  O
  O2       1.0000 0.36600  0.75000  0.45500  Biso   1.000  O
  O3       1.0000 0.63400  0.25000  0.54500  Biso   1.000  O
  O4       1.0000 0.86600  0.75000  0.04500  Biso   1.000  O
  O5       1.0000 0.54060  0.06550  0.39000  Biso   1.000  O
  O6       1.0000 0.95940  0.93450  0.89000  Biso   1.000  O
  O7       1.0000 0.04060  0.43450  0.11000  Biso   1.000  O
  O8       1.0000 0.45940  0.56550  0.61000  Biso   1.000  O
  O9       1.0000 0.45940  0.93450  0.61000  Biso   1.000  O
  O10      1.0000 0.04060  0.06550  0.11000  Biso   1.000  O
  O11      1.0000 0.95940  0.56550  0.89000  Biso   1.000  O
  O12      1.0000 0.54060  0.43450  0.39000  Biso   1.000  O
  N25      1.0000 0.20700  0.11970  0.42900  Biso   1.000  N
  N26      1.0000 0.29300  0.88030  0.92900  Biso   1.000  N
  N27      1.0000 0.70700  0.38030  0.07100  Biso   1.000  N
  N28      1.0000 0.79300  0.61970  0.57100  Biso   1.000  N
  N29      1.0000 0.79300  0.88030  0.57100  Biso   1.000  N
  N30      1.0000 0.70700  0.11970  0.07100  Biso   1.000  N
  N31      1.0000 0.29300  0.61970  0.92900  Biso   1.000  N
  N32      1.0000 0.20700  0.38030  0.42900  Biso   1.000  N
  N33      1.0000 0.35480  0.01900  0.53300  Biso   1.000  N
  N34      1.0000 0.14520  0.98100  0.03300  Biso   1.000  N
  N35      1.0000 0.85480  0.48100  0.96700  Biso   1.000  N
  N36      1.0000 0.64520  0.51900  0.46700  Biso   1.000  N
  N37      1.0000 0.64520  0.98100  0.46700  Biso   1.000  N
  N38      1.0000 0.85480  0.01900  0.96700  Biso   1.000  N
  N39      1.0000 0.14520  0.51900  0.03300  Biso   1.000  N
  N40      1.0000 0.35480  0.48100  0.53300  Biso   1.000  N
  C1       1.0000 0.55200  0.01390  0.46000  Biso   1.000  C
  C2       1.0000 0.94800  0.98610  0.96000  Biso   1.000  C
  C3       1.0000 0.05200  0.48610  0.04000  Biso   1.000  C
  C4       1.0000 0.44800  0.51390  0.54000  Biso   1.000  C
  C5       1.0000 0.44800  0.98610  0.54000  Biso   1.000  C
  C6       1.0000 0.05200  0.01390  0.04000  Biso   1.000  C
  C7       1.0000 0.94800  0.51390  0.96000  Biso   1.000  C
  C8       1.0000 0.55200  0.48610  0.46000  Biso   1.000  C
  C9       1.0000 0.13700  0.09020  0.57000  Biso   1.000  C
  C10      1.0000 0.36300  0.90980  0.07000  Biso   1.000  C
  C11      1.0000 0.63700  0.40980  0.93000  Biso   1.000  C
  C12      1.0000 0.86300  0.59020  0.43000  Biso   1.000  C
  C13      1.0000 0.86300  0.90980  0.43000  Biso   1.000  C
  C14      1.0000 0.63700  0.09020  0.93000  Biso   1.000  C
  C15      1.0000 0.36300  0.59020  0.07000  Biso   1.000  C
  C16      1.0000 0.13700  0.40980  0.57000  Biso   1.000  C
  C17      1.0000 0.13700  0.02390  0.55900  Biso   1.000  C
  C18      1.0000 0.36300  0.97610  0.05900  Biso   1.000  C
  C19      1.0000 0.63700  0.47610  0.94100  Biso   1.000  C
  C20      1.0000 0.86300  0.52390  0.44100  Biso   1.000  C
  C21      1.0000 0.86300  0.97610  0.44100  Biso   1.000  C
  C22      1.0000 0.63700  0.02390  0.94100  Biso   1.000  C
  C23      1.0000 0.36300  0.52390  0.05900  Biso   1.000  C
  C24      1.0000 0.13700  0.47610  0.55900  Biso   1.000  C
  C25      1.0000 0.24500  0.99410  0.60900  Biso   1.000  C
  C26      1.0000 0.25500  0.00590  0.10900  Biso   1.000  C
  C27      1.0000 0.74500  0.50590  0.89100  Biso   1.000  C
  C28      1.0000 0.75500  0.49410  0.39100  Biso   1.000  C
  C29      1.0000 0.75500  0.00590  0.39100  Biso   1.000  C
  C30      1.0000 0.74500  0.99410  0.89100  Biso   1.000  C
  C31      1.0000 0.25500  0.49410  0.10900  Biso   1.000  C
  C32      1.0000 0.24500  0.50590  0.60900  Biso   1.000  C
  C33      1.0000 0.39000  0.19010  0.12000  Biso   1.000  C
  C34      1.0000 0.11000  0.80990  0.62000  Biso   1.000  C
  C35      1.0000 0.89000  0.30990  0.38000  Biso   1.000  C
  C36      1.0000 0.61000  0.69010  0.88000  Biso   1.000  C
  C37      1.0000 0.61000  0.80990  0.88000  Biso   1.000  C
  C38      1.0000 0.89000  0.19010  0.38000  Biso   1.000  C
  C39      1.0000 0.11000  0.69010  0.62000  Biso   1.000  C
  C40      1.0000 0.39000  0.30990  0.12000  Biso   1.000  C
  C41      1.0000 0.39400  0.18940  0.76100  Biso   1.000  C
  C42      1.0000 0.10600  0.81060  0.26100  Biso   1.000  C
  C43      1.0000 0.89400  0.31060  0.73900  Biso   1.000  C
  C44      1.0000 0.60600  0.68940  0.23900  Biso   1.000  C
  C45      1.0000 0.60600  0.81060  0.23900  Biso   1.000  C
  C46      1.0000 0.89400  0.18940  0.73900  Biso   1.000  C
  C47      1.0000 0.10600  0.68940  0.26100  Biso   1.000  C
  C48      1.0000 0.39400  0.31060  0.76100  Biso   1.000  C
  C49      1.0000 0.54900  0.25000  0.95000  Biso   1.000  C
  C50      1.0000 0.95100  0.75000  0.45000  Biso   1.000  C
  C51      1.0000 0.04900  0.25000  0.55000  Biso   1.000  C
  C52      1.0000 0.45100  0.75000  0.05000  Biso   1.000  C
  H1       1.0000 0.20000  0.16000  0.43000  Biso   1.000  H
  H2       1.0000 0.30000  0.84000  0.93000  Biso   1.000  H
  H3       1.0000 0.70000  0.34000  0.07000  Biso   1.000  H
  H4       1.0000 0.80000  0.66000  0.57000  Biso   1.000  H
  H5       1.0000 0.80000  0.84000  0.57000  Biso   1.000  H
  H6       1.0000 0.70000  0.16000  0.07000  Biso   1.000  H
  H7       1.0000 0.30000  0.66000  0.93000  Biso   1.000  H
  H8       1.0000 0.20000  0.34000  0.43000  Biso   1.000  H
  H9       1.0000 0.16000  0.10200  0.39000  Biso   1.000  H
  H10      1.0000 0.34000  0.89800  0.89000  Biso   1.000  H
  H11      1.0000 0.66000  0.39800  0.11000  Biso   1.000  H
  H12      1.0000 0.84000  0.60200  0.61000  Biso   1.000  H
  H13      1.0000 0.84000  0.89800  0.61000  Biso   1.000  H
  H14      1.0000 0.66000  0.10200  0.11000  Biso   1.000  H
  H15      1.0000 0.34000  0.60200  0.89000  Biso   1.000  H
  H16      1.0000 0.16000  0.39800  0.39000  Biso   1.000  H
  H17      1.0000 0.08000  0.11800  0.51000  Biso   1.000  H
  H18      1.0000 0.42000  0.88200  0.01000  Biso   1.000  H
  H19      1.0000 0.58000  0.38200  0.99000  Biso   1.000  H
  H20      1.0000 0.92000  0.61800  0.49000  Biso   1.000  H
  H21      1.0000 0.92000  0.88200  0.49000  Biso   1.000  H
  H22      1.0000 0.58000  0.11800  0.99000  Biso   1.000  H
  H23      1.0000 0.42000  0.61800  0.01000  Biso   1.000  H
  H24      1.0000 0.08000  0.38200  0.51000  Biso   1.000  H
  H25      1.0000 0.17000  0.07600  0.67000  Biso   1.000  H
  H26      1.0000 0.33000  0.92400  0.17000  Biso   1.000  H
  H27      1.0000 0.67000  0.42400  0.83000  Biso   1.000  H
  H28      1.0000 0.83000  0.57600  0.33000  Biso   1.000  H
  H29      1.0000 0.83000  0.92400  0.33000  Biso   1.000  H
  H30      1.0000 0.67000  0.07600  0.83000  Biso   1.000  H
  H31      1.0000 0.33000  0.57600  0.17000  Biso   1.000  H
  H32      1.0000 0.17000  0.42400  0.67000  Biso   1.000  H
  H33      1.0000 0.10000  0.04000  0.47000  Biso   1.000  H
  H34      1.0000 0.40000  0.96000  0.97000  Biso   1.000  H
  H35      1.0000 0.60000  0.46000  0.03000  Biso   1.000  H
  H36      1.0000 0.90000  0.54000  0.53000  Biso   1.000  H
  H37      1.0000 0.90000  0.96000  0.53000  Biso   1.000  H
  H38      1.0000 0.60000  0.04000  0.03000  Biso   1.000  H
  H39      1.0000 0.40000  0.54000  0.97000  Biso   1.000  H
  H40      1.0000 0.10000  0.46000  0.47000  Biso   1.000  H
  H41      1.0000 0.09000  0.99700  0.63000  Biso   1.000  H
  H42      1.0000 0.41000  0.00300  0.13000  Biso   1.000  H
  H43      1.0000 0.59000  0.50300  0.87000  Biso   1.000  H
  H44      1.0000 0.91000  0.49700  0.37000  Biso   1.000  H
  H45      1.0000 0.91000  0.00300  0.37000  Biso   1.000  H
  H46      1.0000 0.59000  0.99700  0.87000  Biso   1.000  H
  H47      1.0000 0.41000  0.49700  0.13000  Biso   1.000  H
  H48      1.0000 0.09000  0.50300  0.63000  Biso   1.000  H
  H49      1.0000 0.27000  0.99900  0.70000  Biso   1.000  H
  H50      1.0000 0.23000  0.00100  0.20000  Biso   1.000  H
  H51      1.0000 0.77000  0.50100  0.80000  Biso   1.000  H
  H52      1.0000 0.73000  0.49900  0.30000  Biso   1.000  H
  H53      1.0000 0.73000  0.00100  0.30000  Biso   1.000  H
  H54      1.0000 0.77000  0.99900  0.80000  Biso   1.000  H
  H55      1.0000 0.23000  0.49900  0.20000  Biso   1.000  H
  H56      1.0000 0.27000  0.50100  0.70000  Biso   1.000  H
  H57      1.0000 0.25000  0.95000  0.59000  Biso   1.000  H
  H58      1.0000 0.25000  0.05000  0.09000  Biso   1.000  H
  H59      1.0000 0.75000  0.55000  0.91000  Biso   1.000  H
  H60      1.0000 0.75000  0.45000  0.41000  Biso   1.000  H
  H61      1.0000 0.75000  0.05000  0.41000  Biso   1.000  H
  H62      1.0000 0.75000  0.95000  0.91000  Biso   1.000  H
  H63      1.0000 0.25000  0.45000  0.09000  Biso   1.000  H
  H64      1.0000 0.25000  0.55000  0.59000  Biso   1.000  H
