data_image0
_cell_length_a       7.7513
_cell_length_b       8.1832
_cell_length_c       10.4169
_cell_angle_alpha    74.226
_cell_angle_beta     89.356
_cell_angle_gamma    79.982

_symmetry_space_group_name_H-M    "P 1"
_symmetry_int_tables_number       1

loop_
  _symmetry_equiv_pos_as_xyz
  'x, y, z'

loop_
  _atom_site_label
  _atom_site_occupancy
  _atom_site_fract_x
  _atom_site_fract_y
  _atom_site_fract_z
  _atom_site_thermal_displace_type
  _atom_site_B_iso_or_equiv
  _atom_site_type_symbol
  Cu1      1.0000 0.00000  0.00000  0.00000  Biso   1.000  Cu
  Mo1      1.0000 0.16090  0.38564  0.90189  Biso   1.000  Mo
  Mo2      1.0000 0.83910  0.61436  0.09810  Biso   1.000  Mo
  Mo3      1.0000 0.58162  0.34754  0.92784  Biso   1.000  Mo
  Mo4      1.0000 0.41838  0.65246  0.07216  Biso   1.000  Mo
  O1       1.0000 0.05448  0.21926  0.88195  Biso   1.000  O
  O2       1.0000 0.94552  0.78074  0.11805  Biso   1.000  O
  O3       1.0000 0.39248  0.25769  0.87429  Biso   1.000  O
  O4       1.0000 0.60752  0.74231  0.12571  Biso   1.000  O
  O5       1.0000 0.35414  0.47947  0.98746  Biso   1.000  O
  O6       1.0000 0.64586  0.52053  0.01254  Biso   1.000  O
  O7       1.0000 0.00000  0.50000  0.00000  Biso   1.000  O
  O8       1.0000 0.12530  0.53471  0.75123  Biso   1.000  O
  O9       1.0000 0.87470  0.46529  0.24877  Biso   1.000  O
  O10      1.0000 0.71460  0.16476  0.02171  Biso   1.000  O
  O11      1.0000 0.28540  0.83524  0.97829  Biso   1.000  O
  O12      1.0000 0.67690  0.41631  0.77793  Biso   1.000  O
  O13      1.0000 0.32310  0.58369  0.22207  Biso   1.000  O
  N1       1.0000 0.11310  0.04830  0.14887  Biso   1.000  N
  N2       1.0000 0.88690  0.95170  0.85113  Biso   1.000  N
  N3       1.0000 0.19080  0.19210  0.12657  Biso   1.000  N
  N4       1.0000 0.80920  0.80790  0.87343  Biso   1.000  N
  N5       1.0000 0.20940  0.06130  0.34103  Biso   1.000  N
  N6       1.0000 0.79060  0.93870  0.65897  Biso   1.000  N
  N7       1.0000 0.30610  0.03050  0.68000  Biso   1.000  N
  N8       1.0000 0.69390  0.96950  0.32000  Biso   1.000  N
  H1       1.0000 0.31180  0.07030  0.74900  Biso   1.000  H
  H2       1.0000 0.68820  0.92970  0.25100  Biso   1.000  H
  N9       1.0000 0.36760  0.86310  0.68220  Biso   1.000  N
  N10      1.0000 0.63240  0.13690  0.31780  Biso   1.000  N
  C1       1.0000 0.12620  0.97150  0.27710  Biso   1.000  C
  C2       1.0000 0.87380  0.02850  0.72290  Biso   1.000  C
  H3       1.0000 0.08430  0.86960  0.31860  Biso   1.000  H
  H4       1.0000 0.91570  0.13040  0.68140  Biso   1.000  H
  C3       1.0000 0.24640  0.19840  0.24260  Biso   1.000  C
  C4       1.0000 0.75360  0.80160  0.75740  Biso   1.000  C
  H5       1.0000 0.30370  0.28470  0.25660  Biso   1.000  H
  H6       1.0000 0.69630  0.71530  0.74340  Biso   1.000  H
  C5       1.0000 0.15200  0.31360  0.53010  Biso   1.000  C
  C6       1.0000 0.84800  0.68640  0.46990  Biso   1.000  C
  H7       1.0000 0.11460  0.34010  0.61240  Biso   1.000  H
  H8       1.0000 0.88540  0.65990  0.38760  Biso   1.000  H
  H9       1.0000 0.05110  0.33600  0.46950  Biso   1.000  H
  H10      1.0000 0.94890  0.66400  0.53050  Biso   1.000  H
  H11      1.0000 0.23600  0.38530  0.48900  Biso   1.000  H
  H12      1.0000 0.76400  0.61470  0.51100  Biso   1.000  H
  C7       1.0000 0.23530  0.12840  0.55950  Biso   1.000  C
  C8       1.0000 0.76470  0.87160  0.44050  Biso   1.000  C
  C9       1.0000 0.25580  0.01740  0.47990  Biso   1.000  C
  C10      1.0000 0.74420  0.98260  0.52010  Biso   1.000  C
  C11      1.0000 0.33770  0.85440  0.55980  Biso   1.000  C
  C12      1.0000 0.66230  0.14560  0.44020  Biso   1.000  C
  C13      1.0000 0.38580  0.69040  0.52040  Biso   1.000  C
  C14      1.0000 0.61420  0.30960  0.47960  Biso   1.000  C
  H13      1.0000 0.47040  0.60980  0.58540  Biso   1.000  H
  H14      1.0000 0.52960  0.39020  0.41460  Biso   1.000  H
  H15      1.0000 0.43650  0.71430  0.43310  Biso   1.000  H
  H16      1.0000 0.56350  0.28570  0.56690  Biso   1.000  H
  H17      1.0000 0.28160  0.64070  0.51700  Biso   1.000  H
  H18      1.0000 0.71840  0.35930  0.48300  Biso   1.000  H
