data_image0
_cell_length_a       10.7634
_cell_length_b       12.7047
_cell_length_c       24.903
_cell_angle_alpha    85.739
_cell_angle_beta     83.475
_cell_angle_gamma    69.563

_symmetry_space_group_name_H-M    "P 1"
_symmetry_int_tables_number       1

loop_
  _symmetry_equiv_pos_as_xyz
  'x, y, z'

loop_
  _atom_site_label
  _atom_site_occupancy
  _atom_site_fract_x
  _atom_site_fract_y
  _atom_site_fract_z
  _atom_site_thermal_displace_type
  _atom_site_B_iso_or_equiv
  _atom_site_type_symbol
  Cu1      1.0000 0.76401  0.26527  0.25034  Biso   1.000  Cu
  Cu2      1.0000 0.23599  0.73473  0.74966  Biso   1.000  Cu
  Cu3      1.0000 0.48323  0.49920  0.25040  Biso   1.000  Cu
  Cu4      1.0000 0.51677  0.50080  0.74960  Biso   1.000  Cu
  Cu5      1.0000 0.25581  0.76264  0.24954  Biso   1.000  Cu
  Cu6      1.0000 0.74419  0.23736  0.75046  Biso   1.000  Cu
  Cu7      1.0000 0.03313  0.02557  0.24937  Biso   1.000  Cu
  Cu8      1.0000 0.96687  0.97443  0.75063  Biso   1.000  Cu
  Mo1      1.0000 0.83031  0.53137  0.28842  Biso   1.000  Mo
  Mo2      1.0000 0.16969  0.46863  0.71158  Biso   1.000  Mo
  Mo3      1.0000 0.99150  0.64046  0.35610  Biso   1.000  Mo
  Mo4      1.0000 0.00850  0.35954  0.64390  Biso   1.000  Mo
  Mo5      1.0000 0.75464  0.88331  0.34777  Biso   1.000  Mo
  Mo6      1.0000 0.24536  0.11669  0.65223  Biso   1.000  Mo
  Mo7      1.0000 0.59489  0.77151  0.28172  Biso   1.000  Mo
  Mo8      1.0000 0.40511  0.22849  0.71828  Biso   1.000  Mo
  Mo9      1.0000 0.68512  0.99611  0.22046  Biso   1.000  Mo
  Mo10     1.0000 0.31488  0.00389  0.77954  Biso   1.000  Mo
  Mo11     1.0000 0.52605  0.88669  0.15261  Biso   1.000  Mo
  Mo12     1.0000 0.47395  0.11331  0.84739  Biso   1.000  Mo
  Mo13     1.0000 0.76281  0.64267  0.16110  Biso   1.000  Mo
  Mo14     1.0000 0.23719  0.35733  0.83890  Biso   1.000  Mo
  Mo15     1.0000 0.92083  0.75624  0.22672  Biso   1.000  Mo
  Mo16     1.0000 0.07917  0.24376  0.77328  Biso   1.000  Mo
  O1       1.0000 0.88980  0.14340  0.28750  Biso   1.000  O
  O2       1.0000 0.11020  0.85660  0.71250  Biso   1.000  O
  H1       1.0000 0.84460  0.11070  0.30800  Biso   1.000  H
  H2       1.0000 0.15540  0.88930  0.69200  Biso   1.000  H
  O3       1.0000 0.63010  0.38480  0.21340  Biso   1.000  O
  O4       1.0000 0.36990  0.61520  0.78660  Biso   1.000  O
  H3       1.0000 0.67320  0.42030  0.19360  Biso   1.000  H
  H4       1.0000 0.32680  0.57970  0.80640  Biso   1.000  H
  O5       1.0000 0.35150  0.62250  0.28720  Biso   1.000  O
  O6       1.0000 0.64850  0.37750  0.71280  Biso   1.000  O
  H5       1.0000 0.29740  0.59940  0.30810  Biso   1.000  H
  H6       1.0000 0.70260  0.40060  0.69190  Biso   1.000  H
  O7       1.0000 0.16020  0.89920  0.21340  Biso   1.000  O
  O8       1.0000 0.83980  0.10080  0.78660  Biso   1.000  O
  H7       1.0000 0.21560  0.92180  0.19310  Biso   1.000  H
  H8       1.0000 0.78440  0.07820  0.80690  Biso   1.000  H
  O9       1.0000 0.79880  0.71690  0.30410  Biso   1.000  O
  O10      1.0000 0.20120  0.28310  0.69590  Biso   1.000  O
  O11      1.0000 0.99770  0.52100  0.31200  Biso   1.000  O
  O12      1.0000 0.00230  0.47900  0.68800  Biso   1.000  O
  O13      1.0000 0.74540  0.51150  0.34820  Biso   1.000  O
  O14      1.0000 0.25460  0.48850  0.65180  Biso   1.000  O
  O15      1.0000 0.87220  0.40810  0.25720  Biso   1.000  O
  O16      1.0000 0.12780  0.59190  0.74280  Biso   1.000  O
  O17      1.0000 0.93250  0.80160  0.35910  Biso   1.000  O
  O18      1.0000 0.06750  0.19840  0.64090  Biso   1.000  O
  O19      1.0000 0.91270  0.60900  0.41250  Biso   1.000  O
  O20      1.0000 0.08730  0.39100  0.58750  Biso   1.000  O
  O21      1.0000 0.15390  0.59980  0.37030  Biso   1.000  O
  O22      1.0000 0.84610  0.40020  0.62970  Biso   1.000  O
  O23      1.0000 0.61190  0.91350  0.29920  Biso   1.000  O
  O24      1.0000 0.38810  0.08650  0.70080  Biso   1.000  O
  O25      1.0000 0.67220  0.84820  0.40460  Biso   1.000  O
  O26      1.0000 0.32780  0.15180  0.59540  Biso   1.000  O
  O27      1.0000 0.74900  0.01570  0.35920  Biso   1.000  O
  O28      1.0000 0.25100  0.98430  0.64080  Biso   1.000  O
  O29      1.0000 0.67390  0.62390  0.24940  Biso   1.000  O
  O30      1.0000 0.32610  0.37610  0.75060  Biso   1.000  O
  O31      1.0000 0.46460  0.82580  0.24110  Biso   1.000  O
  O32      1.0000 0.53540  0.17420  0.75890  Biso   1.000  O
  O33      1.0000 0.52600  0.74220  0.34270  Biso   1.000  O
  O34      1.0000 0.47400  0.25780  0.65730  Biso   1.000  O
  O35      1.0000 0.71660  0.81110  0.20430  Biso   1.000  O
  O36      1.0000 0.28340  0.18890  0.79570  Biso   1.000  O
  O37      1.0000 0.52160  0.00550  0.19600  Biso   1.000  O
  O38      1.0000 0.47840  0.99450  0.80400  Biso   1.000  O
  O39      1.0000 0.76870  0.01450  0.16100  Biso   1.000  O
  O40      1.0000 0.23130  0.98550  0.83900  Biso   1.000  O
  O41      1.0000 0.64360  0.12090  0.25230  Biso   1.000  O
  O42      1.0000 0.35640  0.87910  0.74770  Biso   1.000  O
  O43      1.0000 0.58370  0.72730  0.14760  Biso   1.000  O
  O44      1.0000 0.41630  0.27270  0.85240  Biso   1.000  O
  O45      1.0000 0.36610  0.92810  0.13800  Biso   1.000  O
  O46      1.0000 0.63390  0.07190  0.86200  Biso   1.000  O
  O47      1.0000 0.61440  0.91510  0.09480  Biso   1.000  O
  O48      1.0000 0.38560  0.08490  0.90520  Biso   1.000  O
  O49      1.0000 0.90610  0.61240  0.21200  Biso   1.000  O
  O50      1.0000 0.09390  0.38760  0.78800  Biso   1.000  O
  O51      1.0000 0.77050  0.51050  0.15040  Biso   1.000  O
  O52      1.0000 0.22950  0.48950  0.84960  Biso   1.000  O
  O53      1.0000 0.84890  0.67800  0.10540  Biso   1.000  O
  O54      1.0000 0.15110  0.32200  0.89460  Biso   1.000  O
  O55      1.0000 0.84830  0.90380  0.25720  Biso   1.000  O
  O56      1.0000 0.15170  0.09620  0.74280  Biso   1.000  O
  O57      1.0000 0.05470  0.69900  0.26730  Biso   1.000  O
  O58      1.0000 0.94530  0.30100  0.73270  Biso   1.000  O
  O59      1.0000 0.98930  0.78730  0.16510  Biso   1.000  O
  O60      1.0000 0.01070  0.21270  0.83490  Biso   1.000  O
  N1       1.0000 0.65610  0.32370  0.31940  Biso   1.000  N
  N2       1.0000 0.34390  0.67630  0.68060  Biso   1.000  N
  N3       1.0000 0.54160  0.41560  0.31960  Biso   1.000  N
  N4       1.0000 0.45840  0.58440  0.68040  Biso   1.000  N
  N5       1.0000 0.57380  0.36370  0.40340  Biso   1.000  N
  N6       1.0000 0.42620  0.63630  0.59660  Biso   1.000  N
  N7       1.0000 0.59660  0.36290  0.54550  Biso   1.000  N
  N8       1.0000 0.40340  0.63710  0.45450  Biso   1.000  N
  N9       1.0000 0.49740  0.32440  0.54390  Biso   1.000  N
  N10      1.0000 0.50260  0.67560  0.45610  Biso   1.000  N
  H9       1.0000 0.45320  0.30560  0.57270  Biso   1.000  H
  H10      1.0000 0.54680  0.69440  0.42730  Biso   1.000  H
  N11      1.0000 0.86310  0.20530  0.18140  Biso   1.000  N
  N12      1.0000 0.13690  0.79470  0.81860  Biso   1.000  N
  N13      1.0000 0.97050  0.10340  0.18080  Biso   1.000  N
  N14      1.0000 0.02950  0.89660  0.81920  Biso   1.000  N
  N15      1.0000 0.92770  0.15800  0.09670  Biso   1.000  N
  N16      1.0000 0.07230  0.84200  0.90330  Biso   1.000  N
  N17      1.0000 0.98540  0.19380  0.95500  Biso   1.000  N
  N18      1.0000 0.01460  0.80620  0.04500  Biso   1.000  N
  H11      1.0000 0.02270  0.21710  0.92540  Biso   1.000  H
  H12      1.0000 0.97730  0.78290  0.07460  Biso   1.000  H
  N19      1.0000 0.89590  0.13960  0.95430  Biso   1.000  N
  N20      1.0000 0.10410  0.86040  0.04570  Biso   1.000  N
  N21      1.0000 0.42400  0.57660  0.18090  Biso   1.000  N
  N22      1.0000 0.57600  0.42340  0.81910  Biso   1.000  N
  N23      1.0000 0.32120  0.68120  0.18130  Biso   1.000  N
  N24      1.0000 0.67880  0.31880  0.81870  Biso   1.000  N
  N25      1.0000 0.38130  0.62960  0.09770  Biso   1.000  N
  N26      1.0000 0.61870  0.37040  0.90230  Biso   1.000  N
  N27      1.0000 0.43340  0.66790  0.95530  Biso   1.000  N
  N28      1.0000 0.56660  0.33210  0.04470  Biso   1.000  N
  H13      1.0000 0.46660  0.69330  0.92530  Biso   1.000  H
  H14      1.0000 0.53340  0.30670  0.07470  Biso   1.000  H
  N29      1.0000 0.34860  0.60760  0.95690  Biso   1.000  N
  N30      1.0000 0.65140  0.39240  0.04310  Biso   1.000  N
  N31      1.0000 0.19410  0.84050  0.31810  Biso   1.000  N
  N32      1.0000 0.80590  0.15950  0.68190  Biso   1.000  N
  N33      1.0000 0.10200  0.94910  0.31780  Biso   1.000  N
  N34      1.0000 0.89800  0.05090  0.68220  Biso   1.000  N
  N35      1.0000 0.16180  0.89680  0.40010  Biso   1.000  N
  N36      1.0000 0.83820  0.10320  0.59990  Biso   1.000  N
  N37      1.0000 0.22980  0.91770  0.53170  Biso   1.000  N
  N38      1.0000 0.77020  0.08230  0.46830  Biso   1.000  N
  H15      1.0000 0.27480  0.93230  0.55580  Biso   1.000  H
  H16      1.0000 0.72520  0.06770  0.44420  Biso   1.000  H
  N39      1.0000 0.13140  0.87370  0.54640  Biso   1.000  N
  N40      1.0000 0.86860  0.12630  0.45360  Biso   1.000  N
  C1       1.0000 0.67610  0.29280  0.37010  Biso   1.000  C
  C2       1.0000 0.32390  0.70720  0.62990  Biso   1.000  C
  H17      1.0000 0.74900  0.23150  0.38200  Biso   1.000  H
  H18      1.0000 0.25100  0.76850  0.61800  Biso   1.000  H
  C3       1.0000 0.49770  0.43790  0.36930  Biso   1.000  C
  C4       1.0000 0.50230  0.56210  0.63070  Biso   1.000  C
  H19      1.0000 0.42070  0.49960  0.38030  Biso   1.000  H
  H20      1.0000 0.57930  0.50040  0.61970  Biso   1.000  H
  C5       1.0000 0.74840  0.42590  0.48110  Biso   1.000  C
  C6       1.0000 0.25160  0.57410  0.51890  Biso   1.000  C
  H21      1.0000 0.76120  0.46130  0.51260  Biso   1.000  H
  H22      1.0000 0.23880  0.53870  0.48740  Biso   1.000  H
  H23      1.0000 0.72870  0.48110  0.45080  Biso   1.000  H
  H24      1.0000 0.27130  0.51890  0.54920  Biso   1.000  H
  H25      1.0000 0.82980  0.36300  0.47090  Biso   1.000  H
  H26      1.0000 0.17020  0.63700  0.52910  Biso   1.000  H
  C7       1.0000 0.63770  0.38440  0.49430  Biso   1.000  C
  C8       1.0000 0.36230  0.61560  0.50570  Biso   1.000  C
  C9       1.0000 0.56250  0.35330  0.46050  Biso   1.000  C
  C10      1.0000 0.43750  0.64670  0.53950  Biso   1.000  C
  C11      1.0000 0.47180  0.31730  0.49110  Biso   1.000  C
  C12      1.0000 0.52820  0.68270  0.50890  Biso   1.000  C
  C13      1.0000 0.35500  0.28210  0.47450  Biso   1.000  C
  C14      1.0000 0.64500  0.71790  0.52550  Biso   1.000  C
  H27      1.0000 0.26960  0.34230  0.48300  Biso   1.000  H
  H28      1.0000 0.73040  0.65770  0.51700  Biso   1.000  H
  H29      1.0000 0.35450  0.21290  0.49470  Biso   1.000  H
  H30      1.0000 0.64550  0.78710  0.50530  Biso   1.000  H
  H31      1.0000 0.36770  0.26940  0.43570  Biso   1.000  H
  H32      1.0000 0.63230  0.73060  0.56430  Biso   1.000  H
  C15      1.0000 0.84840  0.23360  0.13000  Biso   1.000  C
  C16      1.0000 0.15160  0.76640  0.87000  Biso   1.000  C
  H33      1.0000 0.78600  0.30260  0.11810  Biso   1.000  H
  H34      1.0000 0.21400  0.69740  0.88190  Biso   1.000  H
  C17      1.0000 0.00360  0.07680  0.13040  Biso   1.000  C
  C18      1.0000 0.99640  0.92320  0.86960  Biso   1.000  C
  H35      1.0000 0.07160  0.00970  0.11860  Biso   1.000  H
  H36      1.0000 0.92840  0.99030  0.88140  Biso   1.000  H
  C19      1.0000 0.11100  0.26300  0.02000  Biso   1.000  C
  C20      1.0000 0.88900  0.73700  0.98000  Biso   1.000  C
  H37      1.0000 0.10870  0.26380  0.05940  Biso   1.000  H
  H38      1.0000 0.89130  0.73620  0.94060  Biso   1.000  H
  H39      1.0000 0.08680  0.33960  0.00470  Biso   1.000  H
  H40      1.0000 0.91320  0.66040  0.99530  Biso   1.000  H
  H41      1.0000 0.20120  0.21850  0.00520  Biso   1.000  H
  H42      1.0000 0.79880  0.78150  0.99480  Biso   1.000  H
  C21      1.0000 0.01150  0.20850  0.00550  Biso   1.000  C
  C22      1.0000 0.98850  0.79150  0.99450  Biso   1.000  C
  C23      1.0000 0.93270  0.16260  0.03880  Biso   1.000  C
  C24      1.0000 0.06730  0.83740  0.96120  Biso   1.000  C
  C25      1.0000 0.86640  0.11860  0.00610  Biso   1.000  C
  C26      1.0000 0.13360  0.88140  0.99390  Biso   1.000  C
  C27      1.0000 0.77370  0.05730  0.02370  Biso   1.000  C
  C28      1.0000 0.22630  0.94270  0.97630  Biso   1.000  C
  H43      1.0000 0.75600  0.02440  0.99230  Biso   1.000  H
  H44      1.0000 0.24400  0.97560  0.00770  Biso   1.000  H
  H45      1.0000 0.68990  0.10960  0.04020  Biso   1.000  H
  H46      1.0000 0.31010  0.89040  0.95980  Biso   1.000  H
  H47      1.0000 0.81360  0.99750  0.05020  Biso   1.000  H
  H48      1.0000 0.18640  0.00250  0.94980  Biso   1.000  H
  C29      1.0000 0.29280  0.71120  0.13260  Biso   1.000  C
  C30      1.0000 0.70720  0.28880  0.86740  Biso   1.000  C
  H49      1.0000 0.22380  0.77720  0.12180  Biso   1.000  H
  H50      1.0000 0.77620  0.22280  0.87820  Biso   1.000  H
  C31      1.0000 0.45490  0.55110  0.13160  Biso   1.000  C
  C32      1.0000 0.54510  0.44890  0.86840  Biso   1.000  C
  H51      1.0000 0.52270  0.48380  0.11990  Biso   1.000  H
  H52      1.0000 0.47730  0.51620  0.88010  Biso   1.000  H
  C33      1.0000 0.54100  0.75430  0.01300  Biso   1.000  C
  C34      1.0000 0.45900  0.24570  0.98700  Biso   1.000  C
  H53      1.0000 0.59860  0.75570  0.97970  Biso   1.000  H
  H54      1.0000 0.40140  0.24430  0.02030  Biso   1.000  H
  H55      1.0000 0.59610  0.72300  0.04300  Biso   1.000  H
  H56      1.0000 0.40390  0.27700  0.95700  Biso   1.000  H
  H57      1.0000 0.48190  0.83100  0.02090  Biso   1.000  H
  H58      1.0000 0.51810  0.16900  0.97910  Biso   1.000  H
  C35      1.0000 0.45990  0.68350  0.00600  Biso   1.000  C
  C36      1.0000 0.54010  0.31650  0.99400  Biso   1.000  C
  C37      1.0000 0.38590  0.63270  0.04010  Biso   1.000  C
  C38      1.0000 0.61410  0.36730  0.95990  Biso   1.000  C
  C39      1.0000 0.31740  0.58620  0.01050  Biso   1.000  C
  C40      1.0000 0.68260  0.41380  0.98950  Biso   1.000  C
  C41      1.0000 0.22570  0.52850  0.02960  Biso   1.000  C
  C42      1.0000 0.77430  0.47150  0.97040  Biso   1.000  C
  H59      1.0000 0.13690  0.58380  0.03830  Biso   1.000  H
  H60      1.0000 0.86310  0.41620  0.96170  Biso   1.000  H
  H61      1.0000 0.25610  0.48230  0.06200  Biso   1.000  H
  H62      1.0000 0.74390  0.51770  0.93800  Biso   1.000  H
  H63      1.0000 0.22190  0.48030  0.00130  Biso   1.000  H
  H64      1.0000 0.77810  0.51970  0.99870  Biso   1.000  H
  C43      1.0000 0.22690  0.81390  0.36710  Biso   1.000  C
  C44      1.0000 0.77310  0.18610  0.63290  Biso   1.000  C
  H65      1.0000 0.28960  0.74410  0.37790  Biso   1.000  H
  H66      1.0000 0.71040  0.25590  0.62210  Biso   1.000  H
  C45      1.0000 0.08280  0.98250  0.36830  Biso   1.000  C
  C46      1.0000 0.91720  0.01750  0.63170  Biso   1.000  C
  H67      1.0000 0.02460  0.05350  0.38060  Biso   1.000  H
  H68      1.0000 0.97540  0.94650  0.61940  Biso   1.000  H
  C47      1.0000 0.35090  0.98680  0.45750  Biso   1.000  C
  C48      1.0000 0.64910  0.01320  0.54250  Biso   1.000  C
  H69      1.0000 0.37260  0.02430  0.48630  Biso   1.000  H
  H70      1.0000 0.62740  0.97570  0.51370  Biso   1.000  H
  H71      1.0000 0.31480  0.04200  0.42860  Biso   1.000  H
  H72      1.0000 0.68520  0.95800  0.57140  Biso   1.000  H
  H73      1.0000 0.43170  0.92800  0.44290  Biso   1.000  H
  H74      1.0000 0.56830  0.07200  0.55710  Biso   1.000  H
  C49      1.0000 0.25440  0.93750  0.47890  Biso   1.000  C
  C50      1.0000 0.74560  0.06250  0.52110  Biso   1.000  C
  C51      1.0000 0.16540  0.89890  0.45740  Biso   1.000  C
  C52      1.0000 0.83460  0.10110  0.54260  Biso   1.000  C
  C53      1.0000 0.09400  0.86230  0.49780  Biso   1.000  C
  C54      1.0000 0.90600  0.13770  0.50220  Biso   1.000  C
  C55      1.0000 0.98480  0.81710  0.49410  Biso   1.000  C
  C56      1.0000 0.01520  0.18290  0.50590  Biso   1.000  C
  H75      1.0000 0.90410  0.87880  0.48510  Biso   1.000  H
  H76      1.0000 0.09590  0.12120  0.51490  Biso   1.000  H
  H77      1.0000 0.96670  0.78140  0.52900  Biso   1.000  H
  H78      1.0000 0.03330  0.21860  0.47100  Biso   1.000  H
  H79      1.0000 0.01160  0.76160  0.46590  Biso   1.000  H
  H80      1.0000 0.98840  0.23840  0.53410  Biso   1.000  H
