data_image0
_cell_length_a       15.6052
_cell_length_b       7.1386
_cell_length_c       19.6934
_cell_angle_alpha    90
_cell_angle_beta     90
_cell_angle_gamma    90

_symmetry_space_group_name_H-M    "P 1"
_symmetry_int_tables_number       1

loop_
  _symmetry_equiv_pos_as_xyz
  'x, y, z'

loop_
  _atom_site_label
  _atom_site_occupancy
  _atom_site_fract_x
  _atom_site_fract_y
  _atom_site_fract_z
  _atom_site_thermal_displace_type
  _atom_site_B_iso_or_equiv
  _atom_site_type_symbol
  Cu1      1.0000 0.00000  0.50000  0.00000  Biso   1.000  Cu
  Cu2      1.0000 0.50000  0.50000  0.50000  Biso   1.000  Cu
  Cu3      1.0000 0.50000  0.00000  0.50000  Biso   1.000  Cu
  Cu4      1.0000 0.00000  0.00000  0.00000  Biso   1.000  Cu
  S1       1.0000 0.18789  0.25000  0.02171  Biso   1.000  S
  S2       1.0000 0.31211  0.75000  0.52171  Biso   1.000  S
  S3       1.0000 0.68789  0.25000  0.47829  Biso   1.000  S
  S4       1.0000 0.81211  0.75000  0.97829  Biso   1.000  S
  O1       1.0000 0.09220  0.25000  0.02690  Biso   1.000  O
  O2       1.0000 0.40780  0.75000  0.52690  Biso   1.000  O
  O3       1.0000 0.59220  0.25000  0.47310  Biso   1.000  O
  O4       1.0000 0.90780  0.75000  0.97310  Biso   1.000  O
  O5       1.0000 0.22040  0.41700  0.05659  Biso   1.000  O
  O6       1.0000 0.27960  0.58300  0.55659  Biso   1.000  O
  O7       1.0000 0.72040  0.08300  0.44341  Biso   1.000  O
  O8       1.0000 0.77960  0.91700  0.94341  Biso   1.000  O
  O9       1.0000 0.77960  0.58300  0.94341  Biso   1.000  O
  O10      1.0000 0.72040  0.41700  0.44341  Biso   1.000  O
  O11      1.0000 0.27960  0.91700  0.55659  Biso   1.000  O
  O12      1.0000 0.22040  0.08300  0.05659  Biso   1.000  O
  O13      1.0000 0.21140  0.25000  0.95090  Biso   1.000  O
  O14      1.0000 0.28860  0.75000  0.45090  Biso   1.000  O
  O15      1.0000 0.71140  0.25000  0.54910  Biso   1.000  O
  O16      1.0000 0.78860  0.75000  0.04910  Biso   1.000  O
  N1       1.0000 0.04020  0.65160  0.08018  Biso   1.000  N
  N2       1.0000 0.45980  0.34840  0.58018  Biso   1.000  N
  N3       1.0000 0.54020  0.84840  0.41982  Biso   1.000  N
  N4       1.0000 0.95980  0.15160  0.91982  Biso   1.000  N
  N5       1.0000 0.95980  0.34840  0.91982  Biso   1.000  N
  N6       1.0000 0.54020  0.65160  0.41982  Biso   1.000  N
  N7       1.0000 0.45980  0.15160  0.58018  Biso   1.000  N
  N8       1.0000 0.04020  0.84840  0.08018  Biso   1.000  N
  N9       1.0000 0.10690  0.75000  0.17080  Biso   1.000  N
  N10      1.0000 0.39310  0.25000  0.67080  Biso   1.000  N
  N11      1.0000 0.60690  0.75000  0.32920  Biso   1.000  N
  N12      1.0000 0.89310  0.25000  0.82920  Biso   1.000  N
  N13      1.0000 0.20380  0.71610  0.33360  Biso   1.000  N
  N14      1.0000 0.29620  0.28390  0.83360  Biso   1.000  N
  N15      1.0000 0.70380  0.78390  0.16640  Biso   1.000  N
  N16      1.0000 0.79620  0.21610  0.66640  Biso   1.000  N
  N17      1.0000 0.79620  0.28390  0.66640  Biso   1.000  N
  N18      1.0000 0.70380  0.71610  0.16640  Biso   1.000  N
  N19      1.0000 0.29620  0.21610  0.83360  Biso   1.000  N
  N20      1.0000 0.20380  0.78390  0.33360  Biso   1.000  N
  H1       1.0000 0.20440  0.69610  0.37870  Biso   1.000  H
  H2       1.0000 0.29560  0.30390  0.87870  Biso   1.000  H
  H3       1.0000 0.70440  0.80390  0.12130  Biso   1.000  H
  H4       1.0000 0.79560  0.19610  0.62130  Biso   1.000  H
  H5       1.0000 0.79560  0.30390  0.62130  Biso   1.000  H
  H6       1.0000 0.70440  0.69610  0.12130  Biso   1.000  H
  H7       1.0000 0.29560  0.19610  0.87870  Biso   1.000  H
  H8       1.0000 0.20440  0.80390  0.37870  Biso   1.000  H
  N21      1.0000 0.27620  0.75000  0.29600  Biso   1.000  N
  N22      1.0000 0.22380  0.25000  0.79600  Biso   1.000  N
  N23      1.0000 0.77620  0.75000  0.20400  Biso   1.000  N
  N24      1.0000 0.72380  0.25000  0.70400  Biso   1.000  N
  N25      1.0000 0.92220  0.34680  0.06169  Biso   1.000  N
  N26      1.0000 0.57780  0.65320  0.56169  Biso   1.000  N
  N27      1.0000 0.42220  0.15320  0.43831  Biso   1.000  N
  N28      1.0000 0.07780  0.84680  0.93831  Biso   1.000  N
  N29      1.0000 0.07780  0.65320  0.93831  Biso   1.000  N
  N30      1.0000 0.42220  0.34680  0.43831  Biso   1.000  N
  N31      1.0000 0.57780  0.84680  0.56169  Biso   1.000  N
  N32      1.0000 0.92220  0.15320  0.06169  Biso   1.000  N
  N33      1.0000 0.83690  0.25000  0.14170  Biso   1.000  N
  N34      1.0000 0.66310  0.75000  0.64170  Biso   1.000  N
  N35      1.0000 0.33690  0.25000  0.35830  Biso   1.000  N
  N36      1.0000 0.16310  0.75000  0.85830  Biso   1.000  N
  N37      1.0000 0.67090  0.25000  0.27100  Biso   1.000  N
  N38      1.0000 0.82910  0.75000  0.77100  Biso   1.000  N
  N39      1.0000 0.17090  0.25000  0.22900  Biso   1.000  N
  N40      1.0000 0.32910  0.75000  0.72900  Biso   1.000  N
  N41      1.0000 0.74520  0.28860  0.30560  Biso   1.000  N
  N42      1.0000 0.75480  0.71140  0.80560  Biso   1.000  N
  N43      1.0000 0.24520  0.21140  0.19440  Biso   1.000  N
  N44      1.0000 0.25480  0.78860  0.69440  Biso   1.000  N
  N45      1.0000 0.25480  0.71140  0.69440  Biso   1.000  N
  N46      1.0000 0.24520  0.28860  0.19440  Biso   1.000  N
  N47      1.0000 0.75480  0.78860  0.80560  Biso   1.000  N
  N48      1.0000 0.74520  0.21140  0.30560  Biso   1.000  N
  H9       1.0000 0.74680  0.31000  0.35060  Biso   1.000  H
  H10      1.0000 0.75320  0.69000  0.85060  Biso   1.000  H
  H11      1.0000 0.24680  0.19000  0.14940  Biso   1.000  H
  H12      1.0000 0.25320  0.81000  0.64940  Biso   1.000  H
  H13      1.0000 0.25320  0.69000  0.64940  Biso   1.000  H
  H14      1.0000 0.24680  0.31000  0.14940  Biso   1.000  H
  H15      1.0000 0.75320  0.81000  0.85060  Biso   1.000  H
  H16      1.0000 0.74680  0.19000  0.35060  Biso   1.000  H
  C1       1.0000 0.08080  0.59890  0.13470  Biso   1.000  C
  C2       1.0000 0.41920  0.40110  0.63470  Biso   1.000  C
  C3       1.0000 0.58080  0.90110  0.36530  Biso   1.000  C
  C4       1.0000 0.91920  0.09890  0.86530  Biso   1.000  C
  C5       1.0000 0.91920  0.40110  0.86530  Biso   1.000  C
  C6       1.0000 0.58080  0.59890  0.36530  Biso   1.000  C
  C7       1.0000 0.41920  0.09890  0.63470  Biso   1.000  C
  C8       1.0000 0.08080  0.90110  0.13470  Biso   1.000  C
  H17      1.0000 0.09070  0.47370  0.14720  Biso   1.000  H
  H18      1.0000 0.40930  0.52630  0.64720  Biso   1.000  H
  H19      1.0000 0.59070  0.02630  0.35280  Biso   1.000  H
  H20      1.0000 0.90930  0.97370  0.85280  Biso   1.000  H
  H21      1.0000 0.90930  0.52630  0.85280  Biso   1.000  H
  H22      1.0000 0.59070  0.47370  0.35280  Biso   1.000  H
  H23      1.0000 0.40930  0.97370  0.64720  Biso   1.000  H
  H24      1.0000 0.09070  0.02630  0.14720  Biso   1.000  H
  C9       1.0000 0.04590  0.68040  0.32620  Biso   1.000  C
  C10      1.0000 0.45410  0.31960  0.82620  Biso   1.000  C
  C11      1.0000 0.54590  0.81960  0.17380  Biso   1.000  C
  C12      1.0000 0.95410  0.18040  0.67380  Biso   1.000  C
  C13      1.0000 0.95410  0.31960  0.67380  Biso   1.000  C
  C14      1.0000 0.54590  0.68040  0.17380  Biso   1.000  C
  C15      1.0000 0.45410  0.18040  0.82620  Biso   1.000  C
  C16      1.0000 0.04590  0.81960  0.32620  Biso   1.000  C
  H25      1.0000 0.05060  0.66040  0.37420  Biso   1.000  H
  H26      1.0000 0.44940  0.33960  0.87420  Biso   1.000  H
  H27      1.0000 0.55060  0.83960  0.12580  Biso   1.000  H
  H28      1.0000 0.94940  0.16040  0.62580  Biso   1.000  H
  H29      1.0000 0.94940  0.33960  0.62580  Biso   1.000  H
  H30      1.0000 0.55060  0.66040  0.12580  Biso   1.000  H
  H31      1.0000 0.44940  0.16040  0.87420  Biso   1.000  H
  H32      1.0000 0.05060  0.83960  0.37420  Biso   1.000  H
  H33      1.0000 0.01010  0.78730  0.31770  Biso   1.000  H
  H34      1.0000 0.48990  0.21270  0.81770  Biso   1.000  H
  H35      1.0000 0.51010  0.71270  0.18230  Biso   1.000  H
  H36      1.0000 0.98990  0.28730  0.68230  Biso   1.000  H
  H37      1.0000 0.98990  0.21270  0.68230  Biso   1.000  H
  H38      1.0000 0.51010  0.78730  0.18230  Biso   1.000  H
  H39      1.0000 0.48990  0.28730  0.81770  Biso   1.000  H
  H40      1.0000 0.01010  0.71270  0.31770  Biso   1.000  H
  H41      1.0000 0.02100  0.57170  0.30530  Biso   1.000  H
  H42      1.0000 0.47900  0.42830  0.80530  Biso   1.000  H
  H43      1.0000 0.52100  0.92830  0.19470  Biso   1.000  H
  H44      1.0000 0.97900  0.07170  0.69470  Biso   1.000  H
  H45      1.0000 0.97900  0.42830  0.69470  Biso   1.000  H
  H46      1.0000 0.52100  0.57170  0.19470  Biso   1.000  H
  H47      1.0000 0.47900  0.07170  0.80530  Biso   1.000  H
  H48      1.0000 0.02100  0.92830  0.30530  Biso   1.000  H
  C17      1.0000 0.13260  0.71360  0.29630  Biso   1.000  C
  C18      1.0000 0.36740  0.28640  0.79630  Biso   1.000  C
  C19      1.0000 0.63260  0.78640  0.20370  Biso   1.000  C
  C20      1.0000 0.86740  0.21360  0.70370  Biso   1.000  C
  C21      1.0000 0.86740  0.28640  0.70370  Biso   1.000  C
  C22      1.0000 0.63260  0.71360  0.20370  Biso   1.000  C
  C23      1.0000 0.36740  0.21360  0.79630  Biso   1.000  C
  C24      1.0000 0.13260  0.78640  0.29630  Biso   1.000  C
  C25      1.0000 0.15930  0.75000  0.23100  Biso   1.000  C
  C26      1.0000 0.34070  0.25000  0.73100  Biso   1.000  C
  C27      1.0000 0.65930  0.75000  0.26900  Biso   1.000  C
  C28      1.0000 0.84070  0.25000  0.76900  Biso   1.000  C
  C29      1.0000 0.24840  0.77160  0.23240  Biso   1.000  C
  C30      1.0000 0.25160  0.22840  0.73240  Biso   1.000  C
  C31      1.0000 0.74840  0.72840  0.26760  Biso   1.000  C
  C32      1.0000 0.75160  0.27160  0.76760  Biso   1.000  C
  C33      1.0000 0.75160  0.22840  0.76760  Biso   1.000  C
  C34      1.0000 0.74840  0.77160  0.26760  Biso   1.000  C
  C35      1.0000 0.25160  0.27160  0.73240  Biso   1.000  C
  C36      1.0000 0.24840  0.72840  0.23240  Biso   1.000  C
  C37      1.0000 0.30740  0.80880  0.17470  Biso   1.000  C
  C38      1.0000 0.19260  0.19120  0.67470  Biso   1.000  C
  C39      1.0000 0.80740  0.69120  0.32530  Biso   1.000  C
  C40      1.0000 0.69260  0.30880  0.82530  Biso   1.000  C
  C41      1.0000 0.69260  0.19120  0.82530  Biso   1.000  C
  C42      1.0000 0.80740  0.80880  0.32530  Biso   1.000  C
  C43      1.0000 0.19260  0.30880  0.67470  Biso   1.000  C
  C44      1.0000 0.30740  0.69120  0.17470  Biso   1.000  C
  H49      1.0000 0.36540  0.81660  0.19070  Biso   1.000  H
  H50      1.0000 0.13460  0.18340  0.69070  Biso   1.000  H
  H51      1.0000 0.86540  0.68340  0.30930  Biso   1.000  H
  H52      1.0000 0.63460  0.31660  0.80930  Biso   1.000  H
  H53      1.0000 0.63460  0.18340  0.80930  Biso   1.000  H
  H54      1.0000 0.86540  0.81660  0.30930  Biso   1.000  H
  H55      1.0000 0.13460  0.31660  0.69070  Biso   1.000  H
  H56      1.0000 0.36540  0.68340  0.19070  Biso   1.000  H
  H57      1.0000 0.30280  0.70950  0.14200  Biso   1.000  H
  H58      1.0000 0.19720  0.29050  0.64200  Biso   1.000  H
  H59      1.0000 0.80280  0.79050  0.35800  Biso   1.000  H
  H60      1.0000 0.69720  0.20950  0.85800  Biso   1.000  H
  H61      1.0000 0.69720  0.29050  0.85800  Biso   1.000  H
  H62      1.0000 0.80280  0.70950  0.35800  Biso   1.000  H
  H63      1.0000 0.19720  0.20950  0.64200  Biso   1.000  H
  H64      1.0000 0.30280  0.79050  0.14200  Biso   1.000  H
  H65      1.0000 0.29160  0.92530  0.15380  Biso   1.000  H
  H66      1.0000 0.20840  0.07470  0.65380  Biso   1.000  H
  H67      1.0000 0.79160  0.57470  0.34620  Biso   1.000  H
  H68      1.0000 0.70840  0.42530  0.84620  Biso   1.000  H
  H69      1.0000 0.70840  0.07470  0.84620  Biso   1.000  H
  H70      1.0000 0.79160  0.92530  0.34620  Biso   1.000  H
  H71      1.0000 0.20840  0.42530  0.65380  Biso   1.000  H
  H72      1.0000 0.29160  0.57470  0.15380  Biso   1.000  H
  C45      1.0000 0.87030  0.40170  0.11010  Biso   1.000  C
  C46      1.0000 0.62970  0.59830  0.61010  Biso   1.000  C
  C47      1.0000 0.37030  0.09830  0.38990  Biso   1.000  C
  C48      1.0000 0.12970  0.90170  0.88990  Biso   1.000  C
  C49      1.0000 0.12970  0.59830  0.88990  Biso   1.000  C
  C50      1.0000 0.37030  0.40170  0.38990  Biso   1.000  C
  C51      1.0000 0.62970  0.90170  0.61010  Biso   1.000  C
  C52      1.0000 0.87030  0.09830  0.11010  Biso   1.000  C
  H73      1.0000 0.85830  0.52700  0.12120  Biso   1.000  H
  H74      1.0000 0.64170  0.47300  0.62120  Biso   1.000  H
  H75      1.0000 0.35830  0.97300  0.37880  Biso   1.000  H
  H76      1.0000 0.14170  0.02700  0.87880  Biso   1.000  H
  H77      1.0000 0.14170  0.47300  0.87880  Biso   1.000  H
  H78      1.0000 0.35830  0.52700  0.37880  Biso   1.000  H
  H79      1.0000 0.64170  0.02700  0.62120  Biso   1.000  H
  H80      1.0000 0.85830  0.97300  0.12120  Biso   1.000  H
  C53      1.0000 0.63250  0.18230  0.15140  Biso   1.000  C
  C54      1.0000 0.86750  0.81770  0.65140  Biso   1.000  C
  C55      1.0000 0.13250  0.31770  0.34860  Biso   1.000  C
  C56      1.0000 0.36750  0.68230  0.84860  Biso   1.000  C
  C57      1.0000 0.36750  0.81770  0.84860  Biso   1.000  C
  C58      1.0000 0.13250  0.18230  0.34860  Biso   1.000  C
  C59      1.0000 0.86750  0.68230  0.65140  Biso   1.000  C
  C60      1.0000 0.63250  0.31770  0.15140  Biso   1.000  C
  H81      1.0000 0.57530  0.17450  0.16920  Biso   1.000  H
  H82      1.0000 0.92470  0.82550  0.66920  Biso   1.000  H
  H83      1.0000 0.07530  0.32550  0.33080  Biso   1.000  H
  H84      1.0000 0.42470  0.67450  0.83080  Biso   1.000  H
  H85      1.0000 0.42470  0.82550  0.83080  Biso   1.000  H
  H86      1.0000 0.07530  0.17450  0.33080  Biso   1.000  H
  H87      1.0000 0.92470  0.67450  0.66920  Biso   1.000  H
  H88      1.0000 0.57530  0.32550  0.16920  Biso   1.000  H
  H89      1.0000 0.63510  0.27930  0.11770  Biso   1.000  H
  H90      1.0000 0.86490  0.72070  0.61770  Biso   1.000  H
  H91      1.0000 0.13510  0.22070  0.38230  Biso   1.000  H
  H92      1.0000 0.36490  0.77930  0.88230  Biso   1.000  H
  H93      1.0000 0.36490  0.72070  0.88230  Biso   1.000  H
  H94      1.0000 0.13510  0.27930  0.38230  Biso   1.000  H
  H95      1.0000 0.86490  0.77930  0.61770  Biso   1.000  H
  H96      1.0000 0.63510  0.22070  0.11770  Biso   1.000  H
  H97      1.0000 0.64790  0.06470  0.13120  Biso   1.000  H
  H98      1.0000 0.85210  0.93530  0.63120  Biso   1.000  H
  H99      1.0000 0.14790  0.43530  0.36880  Biso   1.000  H
  H100     1.0000 0.35210  0.56470  0.86880  Biso   1.000  H
  H101     1.0000 0.35210  0.93530  0.86880  Biso   1.000  H
  H102     1.0000 0.14790  0.06470  0.36880  Biso   1.000  H
  H103     1.0000 0.85210  0.56470  0.63120  Biso   1.000  H
  H104     1.0000 0.64790  0.43530  0.13120  Biso   1.000  H
  C61      1.0000 0.69490  0.22710  0.20660  Biso   1.000  C
  C62      1.0000 0.80510  0.77290  0.70660  Biso   1.000  C
  C63      1.0000 0.19490  0.27290  0.29340  Biso   1.000  C
  C64      1.0000 0.30510  0.72710  0.79340  Biso   1.000  C
  C65      1.0000 0.30510  0.77290  0.79340  Biso   1.000  C
  C66      1.0000 0.19490  0.22710  0.29340  Biso   1.000  C
  C67      1.0000 0.80510  0.72710  0.70660  Biso   1.000  C
  C68      1.0000 0.69490  0.27290  0.20660  Biso   1.000  C
  C69      1.0000 0.78360  0.25000  0.20120  Biso   1.000  C
  C70      1.0000 0.71640  0.75000  0.70120  Biso   1.000  C
  C71      1.0000 0.28360  0.25000  0.29880  Biso   1.000  C
  C72      1.0000 0.21640  0.75000  0.79880  Biso   1.000  C
  C73      1.0000 0.81470  0.29130  0.26570  Biso   1.000  C
  C74      1.0000 0.68530  0.70870  0.76570  Biso   1.000  C
  C75      1.0000 0.31470  0.20870  0.23430  Biso   1.000  C
  C76      1.0000 0.18530  0.79130  0.73430  Biso   1.000  C
  C77      1.0000 0.18530  0.70870  0.73430  Biso   1.000  C
  C78      1.0000 0.31470  0.29130  0.23430  Biso   1.000  C
  C79      1.0000 0.68530  0.79130  0.76570  Biso   1.000  C
  C80      1.0000 0.81470  0.20870  0.26570  Biso   1.000  C
  C81      1.0000 0.90240  0.32960  0.29160  Biso   1.000  C
  C82      1.0000 0.59760  0.67040  0.79160  Biso   1.000  C
  C83      1.0000 0.40240  0.17040  0.20840  Biso   1.000  C
  C84      1.0000 0.09760  0.82960  0.70840  Biso   1.000  C
  C85      1.0000 0.09760  0.67040  0.70840  Biso   1.000  C
  C86      1.0000 0.40240  0.32960  0.20840  Biso   1.000  C
  C87      1.0000 0.59760  0.82960  0.79160  Biso   1.000  C
  C88      1.0000 0.90240  0.17040  0.29160  Biso   1.000  C
  H105     1.0000 0.90140  0.35340  0.33960  Biso   1.000  H
  H106     1.0000 0.59860  0.64660  0.83960  Biso   1.000  H
  H107     1.0000 0.40140  0.14660  0.16040  Biso   1.000  H
  H108     1.0000 0.09860  0.85340  0.66040  Biso   1.000  H
  H109     1.0000 0.09860  0.64660  0.66040  Biso   1.000  H
  H110     1.0000 0.40140  0.35340  0.16040  Biso   1.000  H
  H111     1.0000 0.59860  0.85340  0.83960  Biso   1.000  H
  H112     1.0000 0.90140  0.14660  0.33960  Biso   1.000  H
  H113     1.0000 0.93770  0.22230  0.28260  Biso   1.000  H
  H114     1.0000 0.56230  0.77770  0.78260  Biso   1.000  H
  H115     1.0000 0.43770  0.27770  0.21740  Biso   1.000  H
  H116     1.0000 0.06230  0.72230  0.71740  Biso   1.000  H
  H117     1.0000 0.06230  0.77770  0.71740  Biso   1.000  H
  H118     1.0000 0.43770  0.22230  0.21740  Biso   1.000  H
  H119     1.0000 0.56230  0.72230  0.78260  Biso   1.000  H
  H120     1.0000 0.93770  0.27770  0.28260  Biso   1.000  H
  H121     1.0000 0.92530  0.43670  0.26840  Biso   1.000  H
  H122     1.0000 0.57470  0.56330  0.76840  Biso   1.000  H
  H123     1.0000 0.42530  0.06330  0.23160  Biso   1.000  H
  H124     1.0000 0.07470  0.93670  0.73160  Biso   1.000  H
  H125     1.0000 0.07470  0.56330  0.73160  Biso   1.000  H
  H126     1.0000 0.42530  0.43670  0.23160  Biso   1.000  H
  H127     1.0000 0.57470  0.93670  0.76840  Biso   1.000  H
  H128     1.0000 0.92530  0.06330  0.26840  Biso   1.000  H
  O17      1.0000 0.27960  0.75000  0.99560  Biso   1.000  O
  O18      1.0000 0.22040  0.25000  0.49560  Biso   1.000  O
  O19      1.0000 0.77960  0.75000  0.50440  Biso   1.000  O
  O20      1.0000 0.72040  0.25000  0.00440  Biso   1.000  O
  H129     1.0000 0.26010  0.65340  0.01550  Biso   1.000  H
  H130     1.0000 0.23990  0.34660  0.51550  Biso   1.000  H
  H131     1.0000 0.76010  0.84660  0.48450  Biso   1.000  H
  H132     1.0000 0.73990  0.15340  0.98450  Biso   1.000  H
  H133     1.0000 0.73990  0.34660  0.98450  Biso   1.000  H
  H134     1.0000 0.76010  0.65340  0.48450  Biso   1.000  H
  H135     1.0000 0.23990  0.15340  0.51550  Biso   1.000  H
  H136     1.0000 0.26010  0.84660  0.01550  Biso   1.000  H
  O21      1.0000 0.43680  0.53400  0.03040  Biso   1.000  O
  O22      1.0000 0.06320  0.46600  0.53040  Biso   1.000  O
  O23      1.0000 0.93680  0.96600  0.46960  Biso   1.000  O
  O24      1.0000 0.56320  0.03400  0.96960  Biso   1.000  O
  O25      1.0000 0.56320  0.46600  0.96960  Biso   1.000  O
  O26      1.0000 0.93680  0.53400  0.46960  Biso   1.000  O
  O27      1.0000 0.06320  0.03400  0.53040  Biso   1.000  O
  O28      1.0000 0.43680  0.96600  0.03040  Biso   1.000  O
  O29      1.0000 0.41630  0.34500  0.03210  Biso   1.000  O
  O30      1.0000 0.08370  0.65500  0.53210  Biso   1.000  O
  O31      1.0000 0.91630  0.15500  0.46790  Biso   1.000  O
  O32      1.0000 0.58370  0.84500  0.96790  Biso   1.000  O
  O33      1.0000 0.58370  0.65500  0.96790  Biso   1.000  O
  O34      1.0000 0.91630  0.34500  0.46790  Biso   1.000  O
  O35      1.0000 0.08370  0.84500  0.53210  Biso   1.000  O
  O36      1.0000 0.41630  0.15500  0.03210  Biso   1.000  O
