data_image0
_cell_length_a       8.8328
_cell_length_b       7.572
_cell_length_c       11.472
_cell_angle_alpha    90
_cell_angle_beta     90.605
_cell_angle_gamma    90

_symmetry_space_group_name_H-M    "P 1"
_symmetry_int_tables_number       1

loop_
  _symmetry_equiv_pos_as_xyz
  'x, y, z'

loop_
  _atom_site_label
  _atom_site_occupancy
  _atom_site_fract_x
  _atom_site_fract_y
  _atom_site_fract_z
  _atom_site_thermal_displace_type
  _atom_site_B_iso_or_equiv
  _atom_site_type_symbol
  Cu1      1.0000 0.00000  0.00000  0.00000  Biso   1.000  Cu
  Cu2      1.0000 0.00000  0.50000  0.00000  Biso   1.000  Cu
  Mo1      1.0000 0.37519  0.00174  0.12033  Biso   1.000  Mo
  Mo2      1.0000 0.62481  0.50174  0.87967  Biso   1.000  Mo
  Mo3      1.0000 0.62481  0.99826  0.87967  Biso   1.000  Mo
  Mo4      1.0000 0.37519  0.49826  0.12033  Biso   1.000  Mo
  Mo5      1.0000 0.33111  0.25000  0.88058  Biso   1.000  Mo
  Mo6      1.0000 0.66889  0.75000  0.11942  Biso   1.000  Mo
  O1       1.0000 0.18250  0.96480  0.09690  Biso   1.000  O
  O2       1.0000 0.81750  0.46480  0.90310  Biso   1.000  O
  O3       1.0000 0.81750  0.03520  0.90310  Biso   1.000  O
  O4       1.0000 0.18250  0.53520  0.09690  Biso   1.000  O
  O5       1.0000 0.13950  0.25000  0.91900  Biso   1.000  O
  O6       1.0000 0.86050  0.75000  0.08100  Biso   1.000  O
  O7       1.0000 0.38100  0.25000  0.07980  Biso   1.000  O
  O8       1.0000 0.61900  0.75000  0.92020  Biso   1.000  O
  O9       1.0000 0.39330  0.01230  0.91780  Biso   1.000  O
  O10      1.0000 0.60670  0.51230  0.08220  Biso   1.000  O
  O11      1.0000 0.60670  0.98770  0.08220  Biso   1.000  O
  O12      1.0000 0.39330  0.48770  0.91780  Biso   1.000  O
  O13      1.0000 0.42130  0.75000  0.11020  Biso   1.000  O
  O14      1.0000 0.57870  0.25000  0.88980  Biso   1.000  O
  O15      1.0000 0.39040  0.02570  0.26620  Biso   1.000  O
  O16      1.0000 0.60960  0.52570  0.73380  Biso   1.000  O
  O17      1.0000 0.60960  0.97430  0.73380  Biso   1.000  O
  O18      1.0000 0.39040  0.47430  0.26620  Biso   1.000  O
  O19      1.0000 0.33080  0.25000  0.73290  Biso   1.000  O
  O20      1.0000 0.66920  0.75000  0.26710  Biso   1.000  O
  N1       1.0000 0.93220  0.15850  0.12840  Biso   1.000  N
  N2       1.0000 0.06780  0.65850  0.87160  Biso   1.000  N
  N3       1.0000 0.06780  0.84150  0.87160  Biso   1.000  N
  N4       1.0000 0.93220  0.34150  0.12840  Biso   1.000  N
  N5       1.0000 0.89690  0.25000  0.30630  Biso   1.000  N
  N6       1.0000 0.10310  0.75000  0.69370  Biso   1.000  N
  N7       1.0000 0.97780  0.25000  0.61520  Biso   1.000  N
  N8       1.0000 0.02220  0.75000  0.38480  Biso   1.000  N
  N9       1.0000 0.82440  0.25000  0.60890  Biso   1.000  N
  N10      1.0000 0.17560  0.75000  0.39110  Biso   1.000  N
  H1       1.0000 0.76730  0.25000  0.67130  Biso   1.000  H
  H2       1.0000 0.23270  0.75000  0.32870  Biso   1.000  H
  C1       1.0000 0.91120  0.10740  0.23570  Biso   1.000  C
  C2       1.0000 0.08880  0.60740  0.76430  Biso   1.000  C
  C3       1.0000 0.08880  0.89260  0.76430  Biso   1.000  C
  C4       1.0000 0.91120  0.39260  0.23570  Biso   1.000  C
  H3       1.0000 0.90650  0.98790  0.26070  Biso   1.000  H
  H4       1.0000 0.09350  0.48790  0.73930  Biso   1.000  H
  H5       1.0000 0.09350  0.01210  0.73930  Biso   1.000  H
  H6       1.0000 0.90650  0.51210  0.26070  Biso   1.000  H
  C5       1.0000 0.18150  0.25000  0.47030  Biso   1.000  C
  C6       1.0000 0.81850  0.75000  0.52970  Biso   1.000  C
  H7       1.0000 0.24470  0.25000  0.54110  Biso   1.000  H
  H8       1.0000 0.75530  0.75000  0.45890  Biso   1.000  H
  H9       1.0000 0.20350  0.14430  0.42420  Biso   1.000  H
  H10      1.0000 0.79650  0.64430  0.57580  Biso   1.000  H
  H11      1.0000 0.79650  0.85570  0.57580  Biso   1.000  H
  H12      1.0000 0.20350  0.35570  0.42420  Biso   1.000  H
  C7       1.0000 0.01940  0.25000  0.50300  Biso   1.000  C
  C8       1.0000 0.98060  0.75000  0.49700  Biso   1.000  C
  C9       1.0000 0.89110  0.25000  0.43140  Biso   1.000  C
  C10      1.0000 0.10890  0.75000  0.56860  Biso   1.000  C
  C11      1.0000 0.76600  0.25000  0.50000  Biso   1.000  C
  C12      1.0000 0.23400  0.75000  0.50000  Biso   1.000  C
  C13      1.0000 0.60340  0.25000  0.47160  Biso   1.000  C
  C14      1.0000 0.39660  0.75000  0.52840  Biso   1.000  C
  H13      1.0000 0.54520  0.25000  0.54380  Biso   1.000  H
  H14      1.0000 0.45480  0.75000  0.45620  Biso   1.000  H
  H15      1.0000 0.57830  0.14430  0.42600  Biso   1.000  H
  H16      1.0000 0.42170  0.64430  0.57400  Biso   1.000  H
  H17      1.0000 0.42170  0.85570  0.57400  Biso   1.000  H
  H18      1.0000 0.57830  0.35570  0.42600  Biso   1.000  H
