data_image0
_cell_length_a       6.112
_cell_length_b       7.309
_cell_length_c       10.162
_cell_angle_alpha    87.66
_cell_angle_beta     78.07
_cell_angle_gamma    78.56

_symmetry_space_group_name_H-M    "P 1"
_symmetry_int_tables_number       1

loop_
  _symmetry_equiv_pos_as_xyz
  'x, y, z'

loop_
  _atom_site_label
  _atom_site_occupancy
  _atom_site_fract_x
  _atom_site_fract_y
  _atom_site_fract_z
  _atom_site_thermal_displace_type
  _atom_site_B_iso_or_equiv
  _atom_site_type_symbol
  Cu1      1.0000 0.24800  0.03150  0.48990  Biso   1.000  Cu
  Cu2      1.0000 0.75200  0.96850  0.51010  Biso   1.000  Cu
  N1       1.0000 0.94150  0.08240  0.61380  Biso   1.000  N
  N2       1.0000 0.05850  0.91760  0.38620  Biso   1.000  N
  N3       1.0000 0.87580  0.18760  0.70670  Biso   1.000  N
  N4       1.0000 0.12420  0.81240  0.29330  Biso   1.000  N
  N5       1.0000 0.81210  0.28630  0.79620  Biso   1.000  N
  N6       1.0000 0.18790  0.71370  0.20380  Biso   1.000  N
  N7       1.0000 0.44190  0.08560  0.61460  Biso   1.000  N
  N8       1.0000 0.55810  0.91440  0.38540  Biso   1.000  N
  N9       1.0000 0.39490  0.07600  0.73590  Biso   1.000  N
  N10      1.0000 0.60510  0.92400  0.26410  Biso   1.000  N
  N11      1.0000 0.35360  0.07230  0.85080  Biso   1.000  N
  N12      1.0000 0.64640  0.92770  0.14920  Biso   1.000  N
  O1       1.0000 0.21980  0.29530  0.37950  Biso   1.000  O
  O2       1.0000 0.78020  0.70470  0.62050  Biso   1.000  O
  N13      1.0000 0.05840  0.32580  0.30640  Biso   1.000  N
  N14      1.0000 0.94160  0.67420  0.69360  Biso   1.000  N
  C1       1.0000 0.10860  0.26340  0.17910  Biso   1.000  C
  C2       1.0000 0.89140  0.73660  0.82090  Biso   1.000  C
  C3       1.0000 0.94570  0.29440  0.10300  Biso   1.000  C
  C4       1.0000 0.05430  0.70560  0.89700  Biso   1.000  C
  C5       1.0000 0.72750  0.38760  0.15690  Biso   1.000  C
  C6       1.0000 0.27250  0.61240  0.84310  Biso   1.000  C
  C7       1.0000 0.68020  0.44990  0.28740  Biso   1.000  C
  C8       1.0000 0.31980  0.55010  0.71260  Biso   1.000  C
  C9       1.0000 0.84680  0.42030  0.36110  Biso   1.000  C
  C10      1.0000 0.15320  0.57970  0.63890  Biso   1.000  C
  H1       1.0000 0.27850  0.18950  0.13690  Biso   1.000  H
  H2       1.0000 0.72150  0.81050  0.86310  Biso   1.000  H
  H3       1.0000 0.98680  0.24500  0.00040  Biso   1.000  H
  H4       1.0000 0.01320  0.75500  0.99960  Biso   1.000  H
  H5       1.0000 0.59670  0.41170  0.09770  Biso   1.000  H
  H6       1.0000 0.40330  0.58830  0.90230  Biso   1.000  H
  H7       1.0000 0.51070  0.52250  0.33170  Biso   1.000  H
  H8       1.0000 0.48930  0.47750  0.66830  Biso   1.000  H
  H9       1.0000 0.81010  0.47180  0.46290  Biso   1.000  H
  H10      1.0000 0.18990  0.52820  0.53710  Biso   1.000  H
