data_image0
_cell_length_a       10.7
_cell_length_b       17.661
_cell_length_c       25.835
_cell_angle_alpha    90
_cell_angle_beta     100.378
_cell_angle_gamma    90

_symmetry_space_group_name_H-M    "P 1"
_symmetry_int_tables_number       1

loop_
  _symmetry_equiv_pos_as_xyz
  'x, y, z'

loop_
  _atom_site_label
  _atom_site_occupancy
  _atom_site_fract_x
  _atom_site_fract_y
  _atom_site_fract_z
  _atom_site_thermal_displace_type
  _atom_site_B_iso_or_equiv
  _atom_site_type_symbol
  Cu1      1.0000 0.13959  0.73900  0.31901  Biso   1.000  Cu
  Cu2      1.0000 0.36041  0.23900  0.18099  Biso   1.000  Cu
  Cu3      1.0000 0.86041  0.26100  0.68099  Biso   1.000  Cu
  Cu4      1.0000 0.63959  0.76100  0.81901  Biso   1.000  Cu
  Mn1      1.0000 0.10023  0.60029  0.23045  Biso   1.000  Mn
  Mn2      1.0000 0.39977  0.10029  0.26955  Biso   1.000  Mn
  Mn3      1.0000 0.89977  0.39971  0.76955  Biso   1.000  Mn
  Mn4      1.0000 0.60023  0.89971  0.73045  Biso   1.000  Mn
  Cr1      1.0000 0.91039  0.38166  0.09008  Biso   1.000  Cr
  Cr2      1.0000 0.58961  0.88166  0.40992  Biso   1.000  Cr
  Cr3      1.0000 0.08961  0.61834  0.90992  Biso   1.000  Cr
  Cr4      1.0000 0.41039  0.11834  0.59008  Biso   1.000  Cr
  Cr5      1.0000 0.59723  0.61538  0.22167  Biso   1.000  Cr
  Cr6      1.0000 0.90277  0.11538  0.27833  Biso   1.000  Cr
  Cr7      1.0000 0.40277  0.38462  0.77833  Biso   1.000  Cr
  Cr8      1.0000 0.09723  0.88462  0.72167  Biso   1.000  Cr
  O1       1.0000 0.11740  0.62874  0.31443  Biso   1.000  O
  O2       1.0000 0.38260  0.12874  0.18557  Biso   1.000  O
  O3       1.0000 0.88260  0.37126  0.68557  Biso   1.000  O
  O4       1.0000 0.61740  0.87126  0.81443  Biso   1.000  O
  O5       1.0000 0.13610  0.72206  0.24540  Biso   1.000  O
  O6       1.0000 0.36390  0.22206  0.25460  Biso   1.000  O
  O7       1.0000 0.86390  0.27794  0.75460  Biso   1.000  O
  O8       1.0000 0.63610  0.77794  0.74540  Biso   1.000  O
  O9       1.0000 0.08020  0.48694  0.28578  Biso   1.000  O
  O10      1.0000 0.41980  0.98694  0.21422  Biso   1.000  O
  O11      1.0000 0.91980  0.51306  0.71422  Biso   1.000  O
  O12      1.0000 0.58020  0.01306  0.78578  Biso   1.000  O
  O13      1.0000 0.11510  0.66697  0.14995  Biso   1.000  O
  O14      1.0000 0.38490  0.16697  0.35005  Biso   1.000  O
  O15      1.0000 0.88490  0.33303  0.85005  Biso   1.000  O
  O16      1.0000 0.61510  0.83303  0.64995  Biso   1.000  O
  N1       1.0000 0.11110  0.74000  0.39211  Biso   1.000  N
  N2       1.0000 0.38890  0.24000  0.10789  Biso   1.000  N
  N3       1.0000 0.88890  0.26000  0.60789  Biso   1.000  N
  N4       1.0000 0.61110  0.76000  0.89211  Biso   1.000  N
  N5       1.0000 0.15090  0.84960  0.31123  Biso   1.000  N
  N6       1.0000 0.34910  0.34960  0.18877  Biso   1.000  N
  N7       1.0000 0.84910  0.15040  0.68877  Biso   1.000  N
  N8       1.0000 0.65090  0.65040  0.81123  Biso   1.000  N
  N9       1.0000 0.04320  0.50970  0.16985  Biso   1.000  N
  N10      1.0000 0.45680  0.00970  0.33015  Biso   1.000  N
  N11      1.0000 0.95680  0.49030  0.83015  Biso   1.000  N
  N12      1.0000 0.54320  0.99030  0.66985  Biso   1.000  N
  N13      1.0000 0.09760  0.41910  0.00899  Biso   1.000  N
  N14      1.0000 0.40240  0.91910  0.49101  Biso   1.000  N
  N15      1.0000 0.90240  0.58090  0.99101  Biso   1.000  N
  N16      1.0000 0.59760  0.08090  0.50899  Biso   1.000  N
  N17      1.0000 0.73650  0.31790  0.16972  Biso   1.000  N
  N18      1.0000 0.76350  0.81790  0.33028  Biso   1.000  N
  N19      1.0000 0.26350  0.68210  0.83028  Biso   1.000  N
  N20      1.0000 0.23650  0.18210  0.66972  Biso   1.000  N
  N21      1.0000 0.10100  0.24960  0.14301  Biso   1.000  N
  N22      1.0000 0.39900  0.74960  0.35699  Biso   1.000  N
  N23      1.0000 0.89900  0.75040  0.85699  Biso   1.000  N
  N24      1.0000 0.60100  0.25040  0.64301  Biso   1.000  N
  N25      1.0000 0.89730  0.62570  0.22289  Biso   1.000  N
  N26      1.0000 0.60270  0.12570  0.27711  Biso   1.000  N
  N27      1.0000 0.10270  0.37430  0.77711  Biso   1.000  N
  N28      1.0000 0.39730  0.87430  0.72289  Biso   1.000  N
  N29      1.0000 0.57990  0.53500  0.10987  Biso   1.000  N
  N30      1.0000 0.92010  0.03500  0.39013  Biso   1.000  N
  N31      1.0000 0.42010  0.46500  0.89013  Biso   1.000  N
  N32      1.0000 0.07990  0.96500  0.60987  Biso   1.000  N
  N33      1.0000 0.54670  0.76840  0.15660  Biso   1.000  N
  N34      1.0000 0.95330  0.26840  0.34340  Biso   1.000  N
  N35      1.0000 0.45330  0.23160  0.84340  Biso   1.000  N
  N36      1.0000 0.04670  0.73160  0.65660  Biso   1.000  N
  N37      1.0000 0.30460  0.58460  0.23120  Biso   1.000  N
  N38      1.0000 0.19540  0.08460  0.26880  Biso   1.000  N
  N39      1.0000 0.69540  0.41540  0.76880  Biso   1.000  N
  N40      1.0000 0.80460  0.91540  0.73120  Biso   1.000  N
  N41      1.0000 0.78450  0.46400  0.05561  Biso   1.000  N
  N42      1.0000 0.71550  0.96400  0.44439  Biso   1.000  N
  N43      1.0000 0.21550  0.53600  0.94439  Biso   1.000  N
  N44      1.0000 0.28450  0.03600  0.55561  Biso   1.000  N
  H1       1.0000 0.73920  0.48160  0.08020  Biso   1.000  H
  H2       1.0000 0.76080  0.98160  0.41980  Biso   1.000  H
  H3       1.0000 0.26080  0.51840  0.91980  Biso   1.000  H
  H4       1.0000 0.23920  0.01840  0.58020  Biso   1.000  H
  H5       1.0000 0.82990  0.50390  0.04560  Biso   1.000  H
  H6       1.0000 0.67010  0.00390  0.45440  Biso   1.000  H
  H7       1.0000 0.17010  0.49610  0.95440  Biso   1.000  H
  H8       1.0000 0.32990  0.99610  0.54560  Biso   1.000  H
  N45      1.0000 0.64260  0.52130  0.26820  Biso   1.000  N
  N46      1.0000 0.85740  0.02130  0.23180  Biso   1.000  N
  N47      1.0000 0.35740  0.47870  0.73180  Biso   1.000  N
  N48      1.0000 0.14260  0.97870  0.76820  Biso   1.000  N
  N49      1.0000 0.61540  0.66670  0.29499  Biso   1.000  N
  N50      1.0000 0.88460  0.16670  0.20501  Biso   1.000  N
  N51      1.0000 0.38460  0.33330  0.70501  Biso   1.000  N
  N52      1.0000 0.11540  0.83330  0.79499  Biso   1.000  N
  H9       1.0000 0.54530  0.69290  0.29470  Biso   1.000  H
  H10      1.0000 0.95470  0.19290  0.20530  Biso   1.000  H
  H11      1.0000 0.45470  0.30710  0.70530  Biso   1.000  H
  H12      1.0000 0.04530  0.80710  0.79470  Biso   1.000  H
  H13      1.0000 0.68950  0.68990  0.30030  Biso   1.000  H
  H14      1.0000 0.81050  0.18990  0.19970  Biso   1.000  H
  H15      1.0000 0.31050  0.31010  0.69970  Biso   1.000  H
  H16      1.0000 0.18950  0.81010  0.80030  Biso   1.000  H
  C1       1.0000 0.05220  0.40860  0.26990  Biso   1.000  C
  C2       1.0000 0.44780  0.90860  0.23010  Biso   1.000  C
  C3       1.0000 0.94780  0.59140  0.73010  Biso   1.000  C
  C4       1.0000 0.55220  0.09140  0.76990  Biso   1.000  C
  H17      1.0000 0.96070  0.39950  0.26640  Biso   1.000  H
  H18      1.0000 0.53930  0.89950  0.23360  Biso   1.000  H
  H19      1.0000 0.03930  0.60050  0.73360  Biso   1.000  H
  H20      1.0000 0.46070  0.10050  0.76640  Biso   1.000  H
  H21      1.0000 0.09840  0.37430  0.29650  Biso   1.000  H
  H22      1.0000 0.40160  0.87430  0.20350  Biso   1.000  H
  H23      1.0000 0.90160  0.62570  0.70350  Biso   1.000  H
  H24      1.0000 0.59840  0.12570  0.79650  Biso   1.000  H
  H25      1.0000 0.07860  0.39940  0.23610  Biso   1.000  H
  H26      1.0000 0.42140  0.89940  0.26390  Biso   1.000  H
  H27      1.0000 0.92140  0.60060  0.76390  Biso   1.000  H
  H28      1.0000 0.57860  0.10060  0.73610  Biso   1.000  H
  C5       1.0000 0.04710  0.60696  0.39606  Biso   1.000  C
  C6       1.0000 0.45290  0.10696  0.10394  Biso   1.000  C
  C7       1.0000 0.95290  0.39304  0.60394  Biso   1.000  C
  C8       1.0000 0.54710  0.89304  0.89606  Biso   1.000  C
  C9       1.0000 0.07270  0.58197  0.34803  Biso   1.000  C
  C10      1.0000 0.42730  0.08197  0.15197  Biso   1.000  C
  C11      1.0000 0.92730  0.41803  0.65197  Biso   1.000  C
  C12      1.0000 0.57270  0.91803  0.84803  Biso   1.000  C
  C13      1.0000 0.05610  0.50611  0.33414  Biso   1.000  C
  C14      1.0000 0.44390  0.00611  0.16586  Biso   1.000  C
  C15      1.0000 0.94390  0.49389  0.66586  Biso   1.000  C
  C16      1.0000 0.55610  0.99389  0.83414  Biso   1.000  C
  C17      1.0000 0.01390  0.45525  0.36828  Biso   1.000  C
  C18      1.0000 0.48610  0.95525  0.13172  Biso   1.000  C
  C19      1.0000 0.98610  0.54475  0.63172  Biso   1.000  C
  C20      1.0000 0.51390  0.04475  0.86828  Biso   1.000  C
  H29      1.0000 0.00260  0.40340  0.35880  Biso   1.000  H
  H30      1.0000 0.49740  0.90340  0.14120  Biso   1.000  H
  H31      1.0000 0.99740  0.59660  0.64120  Biso   1.000  H
  H32      1.0000 0.50260  0.09660  0.85880  Biso   1.000  H
  C21      1.0000 0.98830  0.48025  0.41631  Biso   1.000  C
  C22      1.0000 0.51170  0.98025  0.08369  Biso   1.000  C
  C23      1.0000 0.01170  0.51975  0.58369  Biso   1.000  C
  C24      1.0000 0.48830  0.01975  0.91631  Biso   1.000  C
  H33      1.0000 0.95950  0.44550  0.43960  Biso   1.000  H
  H34      1.0000 0.54050  0.94550  0.06040  Biso   1.000  H
  H35      1.0000 0.04050  0.55450  0.56040  Biso   1.000  H
  H36      1.0000 0.45950  0.05450  0.93960  Biso   1.000  H
  C25      1.0000 0.00490  0.55610  0.43020  Biso   1.000  C
  C26      1.0000 0.49510  0.05610  0.06980  Biso   1.000  C
  C27      1.0000 0.99510  0.44390  0.56980  Biso   1.000  C
  C28      1.0000 0.50490  0.94390  0.93020  Biso   1.000  C
  H37      1.0000 0.98740  0.57320  0.46300  Biso   1.000  H
  H38      1.0000 0.51260  0.07320  0.03700  Biso   1.000  H
  H39      1.0000 0.01260  0.42680  0.53700  Biso   1.000  H
  H40      1.0000 0.48740  0.92680  0.96300  Biso   1.000  H
  C29      1.0000 0.06840  0.68300  0.41440  Biso   1.000  C
  C30      1.0000 0.43160  0.18300  0.08560  Biso   1.000  C
  C31      1.0000 0.93160  0.31700  0.58560  Biso   1.000  C
  C32      1.0000 0.56840  0.81700  0.91440  Biso   1.000  C
  H41      1.0000 0.04790  0.69290  0.44810  Biso   1.000  H
  H42      1.0000 0.45210  0.19290  0.05190  Biso   1.000  H
  H43      1.0000 0.95210  0.30710  0.55190  Biso   1.000  H
  H44      1.0000 0.54790  0.80710  0.94810  Biso   1.000  H
  C33      1.0000 0.13960  0.80820  0.42570  Biso   1.000  C
  C34      1.0000 0.36040  0.30820  0.07430  Biso   1.000  C
  C35      1.0000 0.86040  0.19180  0.57430  Biso   1.000  C
  C36      1.0000 0.63960  0.69180  0.92570  Biso   1.000  C
  H45      1.0000 0.09980  0.80270  0.45720  Biso   1.000  H
  H46      1.0000 0.40020  0.30270  0.04280  Biso   1.000  H
  H47      1.0000 0.90020  0.19730  0.54280  Biso   1.000  H
  H48      1.0000 0.59980  0.69730  0.95720  Biso   1.000  H
  H49      1.0000 0.23260  0.81200  0.43770  Biso   1.000  H
  H50      1.0000 0.26740  0.31200  0.06230  Biso   1.000  H
  H51      1.0000 0.76740  0.18800  0.56230  Biso   1.000  H
  H52      1.0000 0.73260  0.68800  0.93770  Biso   1.000  H
  C37      1.0000 0.09320  0.87890  0.39790  Biso   1.000  C
  C38      1.0000 0.40680  0.37890  0.10210  Biso   1.000  C
  C39      1.0000 0.90680  0.12110  0.60210  Biso   1.000  C
  C40      1.0000 0.59320  0.62110  0.89790  Biso   1.000  C
  H53      1.0000 0.09690  0.92030  0.42390  Biso   1.000  H
  H54      1.0000 0.40310  0.42030  0.07610  Biso   1.000  H
  H55      1.0000 0.90310  0.07970  0.57610  Biso   1.000  H
  H56      1.0000 0.59690  0.57970  0.92390  Biso   1.000  H
  H57      1.0000 0.00310  0.87200  0.38110  Biso   1.000  H
  H58      1.0000 0.49690  0.37200  0.11890  Biso   1.000  H
  H59      1.0000 0.99690  0.12800  0.61890  Biso   1.000  H
  H60      1.0000 0.50310  0.62800  0.88110  Biso   1.000  H
  C41      1.0000 0.16820  0.90200  0.35620  Biso   1.000  C
  C42      1.0000 0.33180  0.40200  0.14380  Biso   1.000  C
  C43      1.0000 0.83180  0.09800  0.64380  Biso   1.000  C
  C44      1.0000 0.66820  0.59800  0.85620  Biso   1.000  C
  H61      1.0000 0.14150  0.95340  0.34350  Biso   1.000  H
  H62      1.0000 0.35850  0.45340  0.15650  Biso   1.000  H
  H63      1.0000 0.85850  0.04660  0.65650  Biso   1.000  H
  H64      1.0000 0.64150  0.54660  0.84350  Biso   1.000  H
  H65      1.0000 0.25950  0.90420  0.37210  Biso   1.000  H
  H66      1.0000 0.24050  0.40420  0.12790  Biso   1.000  H
  H67      1.0000 0.74050  0.09580  0.62790  Biso   1.000  H
  H68      1.0000 0.75950  0.59580  0.87210  Biso   1.000  H
  C45      1.0000 0.14770  0.88260  0.26620  Biso   1.000  C
  C46      1.0000 0.35230  0.38260  0.23380  Biso   1.000  C
  C47      1.0000 0.85230  0.11740  0.73380  Biso   1.000  C
  C48      1.0000 0.64770  0.61740  0.76620  Biso   1.000  C
  H69      1.0000 0.15370  0.93630  0.26750  Biso   1.000  H
  H70      1.0000 0.34630  0.43630  0.23250  Biso   1.000  H
  H71      1.0000 0.84630  0.06370  0.73250  Biso   1.000  H
  H72      1.0000 0.65370  0.56370  0.76750  Biso   1.000  H
  C49      1.0000 0.13080  0.77230  0.20624  Biso   1.000  C
  C50      1.0000 0.36920  0.27230  0.29376  Biso   1.000  C
  C51      1.0000 0.86920  0.22770  0.79376  Biso   1.000  C
  C52      1.0000 0.63080  0.72770  0.70624  Biso   1.000  C
  C53      1.0000 0.13630  0.85000  0.21508  Biso   1.000  C
  C54      1.0000 0.36370  0.35000  0.28492  Biso   1.000  C
  C55      1.0000 0.86370  0.15000  0.78492  Biso   1.000  C
  C56      1.0000 0.63630  0.65000  0.71508  Biso   1.000  C
  C57      1.0000 0.13110  0.89965  0.17302  Biso   1.000  C
  C58      1.0000 0.36890  0.39965  0.32698  Biso   1.000  C
  C59      1.0000 0.86890  0.10035  0.82698  Biso   1.000  C
  C60      1.0000 0.63110  0.60035  0.67302  Biso   1.000  C
  H73      1.0000 0.13490  0.95270  0.17910  Biso   1.000  H
  H74      1.0000 0.36510  0.45270  0.32090  Biso   1.000  H
  H75      1.0000 0.86510  0.04730  0.82090  Biso   1.000  H
  H76      1.0000 0.63490  0.54730  0.67910  Biso   1.000  H
  C61      1.0000 0.12050  0.87170  0.12212  Biso   1.000  C
  C62      1.0000 0.37950  0.37170  0.37788  Biso   1.000  C
  C63      1.0000 0.87950  0.12830  0.87788  Biso   1.000  C
  C64      1.0000 0.62050  0.62830  0.62212  Biso   1.000  C
  H77      1.0000 0.11690  0.90560  0.09340  Biso   1.000  H
  H78      1.0000 0.38310  0.40560  0.40660  Biso   1.000  H
  H79      1.0000 0.88310  0.09440  0.90660  Biso   1.000  H
  H80      1.0000 0.61690  0.59440  0.59340  Biso   1.000  H
  C65      1.0000 0.11500  0.79400  0.11328  Biso   1.000  C
  C66      1.0000 0.38500  0.29400  0.38672  Biso   1.000  C
  C67      1.0000 0.88500  0.20600  0.88672  Biso   1.000  C
  C68      1.0000 0.61500  0.70600  0.61328  Biso   1.000  C
  H81      1.0000 0.10770  0.77490  0.07850  Biso   1.000  H
  H82      1.0000 0.39230  0.27490  0.42150  Biso   1.000  H
  H83      1.0000 0.89230  0.22510  0.92150  Biso   1.000  H
  H84      1.0000 0.60770  0.72510  0.57850  Biso   1.000  H
  C69      1.0000 0.12020  0.74432  0.15534  Biso   1.000  C
  C70      1.0000 0.37980  0.24432  0.34466  Biso   1.000  C
  C71      1.0000 0.87980  0.25568  0.84466  Biso   1.000  C
  C72      1.0000 0.62020  0.75568  0.65534  Biso   1.000  C
  C73      1.0000 0.16300  0.63510  0.10650  Biso   1.000  C
  C74      1.0000 0.33700  0.13510  0.39350  Biso   1.000  C
  C75      1.0000 0.83700  0.36490  0.89350  Biso   1.000  C
  C76      1.0000 0.66300  0.86490  0.60650  Biso   1.000  C
  H85      1.0000 0.24630  0.65730  0.10490  Biso   1.000  H
  H86      1.0000 0.25370  0.15730  0.39510  Biso   1.000  H
  H87      1.0000 0.75370  0.34270  0.89510  Biso   1.000  H
  H88      1.0000 0.74630  0.84270  0.60490  Biso   1.000  H
  H89      1.0000 0.10410  0.64620  0.07370  Biso   1.000  H
  H90      1.0000 0.39590  0.14620  0.42630  Biso   1.000  H
  H91      1.0000 0.89590  0.35380  0.92630  Biso   1.000  H
  H92      1.0000 0.60410  0.85380  0.57370  Biso   1.000  H
  H93      1.0000 0.17170  0.58020  0.11100  Biso   1.000  H
  H94      1.0000 0.32830  0.08020  0.38900  Biso   1.000  H
  H95      1.0000 0.82830  0.41980  0.88900  Biso   1.000  H
  H96      1.0000 0.67170  0.91980  0.61100  Biso   1.000  H
  C77      1.0000 0.99810  0.46220  0.14144  Biso   1.000  C
  C78      1.0000 0.50190  0.96220  0.35856  Biso   1.000  C
  C79      1.0000 0.00190  0.53780  0.85856  Biso   1.000  C
  C80      1.0000 0.49810  0.03780  0.64144  Biso   1.000  C
  C81      1.0000 0.03110  0.40550  0.03769  Biso   1.000  C
  C82      1.0000 0.46890  0.90550  0.46231  Biso   1.000  C
  C83      1.0000 0.96890  0.59450  0.96231  Biso   1.000  C
  C84      1.0000 0.53110  0.09450  0.53769  Biso   1.000  C
  C85      1.0000 0.79580  0.34730  0.14309  Biso   1.000  C
  C86      1.0000 0.70420  0.84730  0.35691  Biso   1.000  C
  C87      1.0000 0.20420  0.65270  0.85691  Biso   1.000  C
  C88      1.0000 0.29580  0.15270  0.64309  Biso   1.000  C
  C89      1.0000 0.03330  0.29650  0.12297  Biso   1.000  C
  C90      1.0000 0.46670  0.79650  0.37703  Biso   1.000  C
  C91      1.0000 0.96670  0.70350  0.87703  Biso   1.000  C
  C92      1.0000 0.53330  0.20350  0.62297  Biso   1.000  C
  C93      1.0000 0.79120  0.62670  0.22282  Biso   1.000  C
  C94      1.0000 0.70880  0.12670  0.27718  Biso   1.000  C
  C95      1.0000 0.20880  0.37330  0.77718  Biso   1.000  C
  C96      1.0000 0.29120  0.87330  0.72282  Biso   1.000  C
  C97      1.0000 0.58240  0.56090  0.15000  Biso   1.000  C
  C98      1.0000 0.91760  0.06090  0.35000  Biso   1.000  C
  C99      1.0000 0.41760  0.43910  0.85000  Biso   1.000  C
  C100     1.0000 0.08240  0.93910  0.65000  Biso   1.000  C
  C101     1.0000 0.56040  0.71440  0.18190  Biso   1.000  C
  C102     1.0000 0.93960  0.21440  0.31810  Biso   1.000  C
  C103     1.0000 0.43960  0.28560  0.81810  Biso   1.000  C
  C104     1.0000 0.06040  0.78560  0.68190  Biso   1.000  C
  C105     1.0000 0.40630  0.59750  0.22531  Biso   1.000  C
  C106     1.0000 0.09370  0.09750  0.27469  Biso   1.000  C
  C107     1.0000 0.59370  0.40250  0.77469  Biso   1.000  C
  C108     1.0000 0.90630  0.90250  0.72531  Biso   1.000  C
  C109     1.0000 0.69470  0.35459  0.00436  Biso   1.000  C
  C110     1.0000 0.80530  0.85459  0.49564  Biso   1.000  C
  C111     1.0000 0.30530  0.64541  0.99564  Biso   1.000  C
  C112     1.0000 0.19470  0.14541  0.50436  Biso   1.000  C
  C113     1.0000 0.60470  0.31500  0.96904  Biso   1.000  C
  C114     1.0000 0.89530  0.81500  0.53096  Biso   1.000  C
  C115     1.0000 0.39530  0.68500  0.03096  Biso   1.000  C
  C116     1.0000 0.10470  0.18500  0.46904  Biso   1.000  C
  H97      1.0000 0.53730  0.34140  0.94750  Biso   1.000  H
  H98      1.0000 0.96270  0.84140  0.55250  Biso   1.000  H
  H99      1.0000 0.46270  0.65860  0.05250  Biso   1.000  H
  H100     1.0000 0.03730  0.15860  0.44750  Biso   1.000  H
  C117     1.0000 0.61330  0.23670  0.96517  Biso   1.000  C
  C118     1.0000 0.88670  0.73670  0.53483  Biso   1.000  C
  C119     1.0000 0.38670  0.76330  0.03483  Biso   1.000  C
  C120     1.0000 0.11330  0.26330  0.46517  Biso   1.000  C
  H101     1.0000 0.55180  0.20970  0.94100  Biso   1.000  H
  H102     1.0000 0.94820  0.70970  0.55900  Biso   1.000  H
  H103     1.0000 0.44820  0.79030  0.05900  Biso   1.000  H
  H104     1.0000 0.05180  0.29030  0.44100  Biso   1.000  H
  C121     1.0000 0.71200  0.19807  0.99663  Biso   1.000  C
  C122     1.0000 0.78800  0.69807  0.50337  Biso   1.000  C
  C123     1.0000 0.28800  0.80193  0.00337  Biso   1.000  C
  C124     1.0000 0.21200  0.30193  0.49663  Biso   1.000  C
  H105     1.0000 0.71790  0.14460  0.99400  Biso   1.000  H
  H106     1.0000 0.78210  0.64460  0.50600  Biso   1.000  H
  H107     1.0000 0.28210  0.85540  0.00600  Biso   1.000  H
  H108     1.0000 0.21790  0.35540  0.49400  Biso   1.000  H
  C125     1.0000 0.80200  0.23764  0.03194  Biso   1.000  C
  C126     1.0000 0.69800  0.73764  0.46806  Biso   1.000  C
  C127     1.0000 0.19800  0.76236  0.96806  Biso   1.000  C
  C128     1.0000 0.30200  0.26236  0.53194  Biso   1.000  C
  H109     1.0000 0.86940  0.21120  0.05340  Biso   1.000  H
  H110     1.0000 0.63060  0.71120  0.44660  Biso   1.000  H
  H111     1.0000 0.13060  0.78880  0.94660  Biso   1.000  H
  H112     1.0000 0.36940  0.28880  0.55340  Biso   1.000  H
  N53      1.0000 0.79330  0.31590  0.03581  Biso   1.000  N
  N54      1.0000 0.70670  0.81590  0.46419  Biso   1.000  N
  N55      1.0000 0.20670  0.68410  0.96419  Biso   1.000  N
  N56      1.0000 0.29330  0.18410  0.53581  Biso   1.000  N
  C129     1.0000 0.69700  0.43710  0.01040  Biso   1.000  C
  C130     1.0000 0.80300  0.93710  0.48960  Biso   1.000  C
  C131     1.0000 0.30300  0.56290  0.98960  Biso   1.000  C
  C132     1.0000 0.19700  0.06290  0.51040  Biso   1.000  C
  H113     1.0000 0.71970  0.46010  0.97840  Biso   1.000  H
  H114     1.0000 0.78030  0.96010  0.52160  Biso   1.000  H
  H115     1.0000 0.28030  0.53990  0.02160  Biso   1.000  H
  H116     1.0000 0.21970  0.03990  0.47840  Biso   1.000  H
  H117     1.0000 0.61050  0.45470  0.01300  Biso   1.000  H
  H118     1.0000 0.88950  0.95470  0.48700  Biso   1.000  H
  H119     1.0000 0.38950  0.54530  0.98700  Biso   1.000  H
  H120     1.0000 0.11050  0.04530  0.51300  Biso   1.000  H
  C133     1.0000 0.65600  0.45070  0.25160  Biso   1.000  C
  C134     1.0000 0.84400  0.95070  0.24840  Biso   1.000  C
  C135     1.0000 0.34400  0.54930  0.74840  Biso   1.000  C
  C136     1.0000 0.15600  0.04930  0.75160  Biso   1.000  C
  H121     1.0000 0.64450  0.44200  0.21470  Biso   1.000  H
  H122     1.0000 0.85550  0.94200  0.28530  Biso   1.000  H
  H123     1.0000 0.35550  0.55800  0.78530  Biso   1.000  H
  H124     1.0000 0.14450  0.05800  0.71470  Biso   1.000  H
  C137     1.0000 0.68500  0.39040  0.28440  Biso   1.000  C
  C138     1.0000 0.81500  0.89040  0.21560  Biso   1.000  C
  C139     1.0000 0.31500  0.60960  0.71560  Biso   1.000  C
  C140     1.0000 0.18500  0.10960  0.78440  Biso   1.000  C
  H125     1.0000 0.69570  0.34120  0.27110  Biso   1.000  H
  H126     1.0000 0.80430  0.84120  0.22890  Biso   1.000  H
  H127     1.0000 0.30430  0.65880  0.72890  Biso   1.000  H
  H128     1.0000 0.19570  0.15880  0.77110  Biso   1.000  H
  C141     1.0000 0.69800  0.40330  0.33700  Biso   1.000  C
  C142     1.0000 0.80200  0.90330  0.16300  Biso   1.000  C
  C143     1.0000 0.30200  0.59670  0.66300  Biso   1.000  C
  C144     1.0000 0.19800  0.09670  0.83700  Biso   1.000  C
  H129     1.0000 0.71630  0.36260  0.36110  Biso   1.000  H
  H130     1.0000 0.78370  0.86260  0.13890  Biso   1.000  H
  H131     1.0000 0.28370  0.63740  0.63890  Biso   1.000  H
  H132     1.0000 0.21630  0.13740  0.86110  Biso   1.000  H
  C145     1.0000 0.68490  0.47460  0.35490  Biso   1.000  C
  C146     1.0000 0.81510  0.97460  0.14510  Biso   1.000  C
  C147     1.0000 0.31510  0.52540  0.64510  Biso   1.000  C
  C148     1.0000 0.18490  0.02540  0.85490  Biso   1.000  C
  H133     1.0000 0.69400  0.48400  0.39160  Biso   1.000  H
  H134     1.0000 0.80600  0.98400  0.10840  Biso   1.000  H
  H135     1.0000 0.30600  0.51600  0.60840  Biso   1.000  H
  H136     1.0000 0.19400  0.01600  0.89160  Biso   1.000  H
  C149     1.0000 0.65830  0.53310  0.31960  Biso   1.000  C
  C150     1.0000 0.84170  0.03310  0.18040  Biso   1.000  C
  C151     1.0000 0.34170  0.46690  0.68040  Biso   1.000  C
  C152     1.0000 0.15830  0.96690  0.81960  Biso   1.000  C
  C153     1.0000 0.62200  0.61060  0.33740  Biso   1.000  C
  C154     1.0000 0.87800  0.11060  0.16260  Biso   1.000  C
  C155     1.0000 0.37800  0.38940  0.66260  Biso   1.000  C
  C156     1.0000 0.12200  0.88940  0.83740  Biso   1.000  C
  H137     1.0000 0.53890  0.60750  0.34880  Biso   1.000  H
  H138     1.0000 0.96110  0.10750  0.15120  Biso   1.000  H
  H139     1.0000 0.46110  0.39250  0.65120  Biso   1.000  H
  H140     1.0000 0.03890  0.89250  0.84880  Biso   1.000  H
  H141     1.0000 0.68610  0.62710  0.36800  Biso   1.000  H
  H142     1.0000 0.81390  0.12710  0.13200  Biso   1.000  H
  H143     1.0000 0.31390  0.37290  0.63200  Biso   1.000  H
  H144     1.0000 0.18610  0.87290  0.86800  Biso   1.000  H
  N57      1.0000 0.58660  0.56070  0.46460  Biso   1.000  N
  N58      1.0000 0.91340  0.06070  0.03540  Biso   1.000  N
  N59      1.0000 0.41340  0.43930  0.53540  Biso   1.000  N
  N60      1.0000 0.08660  0.93930  0.96460  Biso   1.000  N
  C157     1.0000 0.48370  0.57270  0.45170  Biso   1.000  C
  C158     1.0000 0.01630  0.07270  0.04830  Biso   1.000  C
  C159     1.0000 0.51630  0.42730  0.54830  Biso   1.000  C
  C160     1.0000 0.98370  0.92730  0.95170  Biso   1.000  C
  C161     1.0000 0.36150  0.58170  0.43080  Biso   1.000  C
  C162     1.0000 0.13850  0.08170  0.06920  Biso   1.000  C
  C163     1.0000 0.63850  0.41830  0.56920  Biso   1.000  C
  C164     1.0000 0.86150  0.91830  0.93080  Biso   1.000  C
  H145     1.0000 0.34870  0.58110  0.39300  Biso   1.000  H
  H146     1.0000 0.15130  0.08110  0.10700  Biso   1.000  H
  H147     1.0000 0.65130  0.41890  0.60700  Biso   1.000  H
  H148     1.0000 0.84870  0.91890  0.89300  Biso   1.000  H
  H149     1.0000 0.30570  0.54560  0.44260  Biso   1.000  H
  H150     1.0000 0.19430  0.04560  0.05740  Biso   1.000  H
  H151     1.0000 0.69430  0.45440  0.55740  Biso   1.000  H
  H152     1.0000 0.80570  0.95440  0.94260  Biso   1.000  H
  H153     1.0000 0.34340  0.63140  0.44260  Biso   1.000  H
  H154     1.0000 0.15660  0.13140  0.05740  Biso   1.000  H
  H155     1.0000 0.65660  0.36860  0.55740  Biso   1.000  H
  H156     1.0000 0.84340  0.86860  0.94260  Biso   1.000  H
  N61      1.0000 0.73380  0.81100  0.03750  Biso   1.000  N
  N62      1.0000 0.76620  0.31100  0.46250  Biso   1.000  N
  N63      1.0000 0.26620  0.18900  0.96250  Biso   1.000  N
  N64      1.0000 0.23380  0.68900  0.53750  Biso   1.000  N
  C165     1.0000 0.76210  0.75700  0.05980  Biso   1.000  C
  C166     1.0000 0.73790  0.25700  0.44020  Biso   1.000  C
  C167     1.0000 0.23790  0.24300  0.94020  Biso   1.000  C
  C168     1.0000 0.26210  0.74300  0.55980  Biso   1.000  C
  C169     1.0000 0.78970  0.69170  0.08660  Biso   1.000  C
  C170     1.0000 0.71030  0.19170  0.41340  Biso   1.000  C
  C171     1.0000 0.21030  0.30830  0.91340  Biso   1.000  C
  C172     1.0000 0.28970  0.80830  0.58660  Biso   1.000  C
  H157     1.0000 0.83240  0.65700  0.06590  Biso   1.000  H
  H158     1.0000 0.66760  0.15700  0.43410  Biso   1.000  H
  H159     1.0000 0.16760  0.34300  0.93410  Biso   1.000  H
  H160     1.0000 0.33240  0.84300  0.56590  Biso   1.000  H
  H161     1.0000 0.71160  0.66820  0.09370  Biso   1.000  H
  H162     1.0000 0.78840  0.16820  0.40630  Biso   1.000  H
  H163     1.0000 0.28840  0.33180  0.90630  Biso   1.000  H
  H164     1.0000 0.21160  0.83180  0.59370  Biso   1.000  H
  H165     1.0000 0.84620  0.70290  0.12000  Biso   1.000  H
  H166     1.0000 0.65380  0.20290  0.38000  Biso   1.000  H
  H167     1.0000 0.15380  0.29710  0.88000  Biso   1.000  H
  H168     1.0000 0.34620  0.79710  0.62000  Biso   1.000  H
  H169     1.0000 0.66580  0.70600  0.29440  Biso   1.000  H
  H170     1.0000 0.83420  0.20600  0.20560  Biso   1.000  H
  H171     1.0000 0.33420  0.29400  0.70560  Biso   1.000  H
  H172     1.0000 0.16580  0.79400  0.79440  Biso   1.000  H
  H173     1.0000 0.53800  0.67330  0.30120  Biso   1.000  H
  H174     1.0000 0.96200  0.17330  0.19880  Biso   1.000  H
  H175     1.0000 0.46200  0.32670  0.69880  Biso   1.000  H
  H176     1.0000 0.03800  0.82670  0.80120  Biso   1.000  H
  C173     1.0000 0.68070  0.61540  0.33580  Biso   1.000  C
  C174     1.0000 0.81930  0.11540  0.16420  Biso   1.000  C
  C175     1.0000 0.31930  0.38460  0.66420  Biso   1.000  C
  C176     1.0000 0.18070  0.88460  0.83580  Biso   1.000  C
  H177     1.0000 0.64920  0.62440  0.36910  Biso   1.000  H
  H178     1.0000 0.85080  0.12440  0.13090  Biso   1.000  H
  H179     1.0000 0.35080  0.37560  0.63090  Biso   1.000  H
  H180     1.0000 0.14920  0.87560  0.86910  Biso   1.000  H
  H181     1.0000 0.77300  0.62610  0.34220  Biso   1.000  H
  H182     1.0000 0.72700  0.12610  0.15780  Biso   1.000  H
  H183     1.0000 0.22700  0.37390  0.65780  Biso   1.000  H
  H184     1.0000 0.27300  0.87390  0.84220  Biso   1.000  H
  N65      1.0000 0.63300  0.40540  0.54180  Biso   1.000  N
  N66      1.0000 0.86700  0.90540  0.95820  Biso   1.000  N
  N67      1.0000 0.36700  0.59460  0.45820  Biso   1.000  N
  N68      1.0000 0.13300  0.09460  0.04180  Biso   1.000  N
  C177     1.0000 0.66400  0.45980  0.52620  Biso   1.000  C
  C178     1.0000 0.83600  0.95980  0.97380  Biso   1.000  C
  C179     1.0000 0.33600  0.54020  0.47380  Biso   1.000  C
  C180     1.0000 0.16400  0.04020  0.02620  Biso   1.000  C
  C181     1.0000 0.66040  0.50720  0.48750  Biso   1.000  C
  C182     1.0000 0.83960  0.00720  0.01250  Biso   1.000  C
  C183     1.0000 0.33960  0.49280  0.51250  Biso   1.000  C
  C184     1.0000 0.16040  0.99280  0.98750  Biso   1.000  C
  H185     1.0000 0.74300  0.50380  0.47890  Biso   1.000  H
  H186     1.0000 0.75700  0.00380  0.02110  Biso   1.000  H
  H187     1.0000 0.25700  0.49620  0.52110  Biso   1.000  H
  H188     1.0000 0.24300  0.99620  0.97890  Biso   1.000  H
  H189     1.0000 0.59370  0.49850  0.45650  Biso   1.000  H
  H190     1.0000 0.90630  0.99850  0.04350  Biso   1.000  H
  H191     1.0000 0.40630  0.50150  0.54350  Biso   1.000  H
  H192     1.0000 0.09370  0.00150  0.95650  Biso   1.000  H
  H193     1.0000 0.64670  0.55930  0.50100  Biso   1.000  H
  H194     1.0000 0.85330  0.05930  0.99900  Biso   1.000  H
  H195     1.0000 0.35330  0.44070  0.49900  Biso   1.000  H
  H196     1.0000 0.14670  0.94070  0.00100  Biso   1.000  H
