data_image0
_cell_length_a       8.1974
_cell_length_b       8.328
_cell_length_c       12.5021
_cell_angle_alpha    84.332
_cell_angle_beta     71.887
_cell_angle_gamma    65.456

_symmetry_space_group_name_H-M    "P 1"
_symmetry_int_tables_number       1

loop_
  _symmetry_equiv_pos_as_xyz
  'x, y, z'

loop_
  _atom_site_label
  _atom_site_occupancy
  _atom_site_fract_x
  _atom_site_fract_y
  _atom_site_fract_z
  _atom_site_thermal_displace_type
  _atom_site_B_iso_or_equiv
  _atom_site_type_symbol
  O1       1.0000 0.95810  0.16590  0.35467  Biso   1.000  O
  O2       1.0000 0.04190  0.83410  0.64533  Biso   1.000  O
  Cu1      1.0000 0.08941  0.68955  0.51578  Biso   1.000  Cu
  Cu2      1.0000 0.91059  0.31045  0.48422  Biso   1.000  Cu
  O3       1.0000 0.95080  0.90530  0.41294  Biso   1.000  O
  O4       1.0000 0.04920  0.09470  0.58706  Biso   1.000  O
  N1       1.0000 0.80470  0.53050  0.57833  Biso   1.000  N
  N2       1.0000 0.19530  0.46950  0.42167  Biso   1.000  N
  N3       1.0000 0.64830  0.31940  0.56838  Biso   1.000  N
  N4       1.0000 0.35170  0.68060  0.43162  Biso   1.000  N
  N5       1.0000 0.85460  0.66100  0.59713  Biso   1.000  N
  N6       1.0000 0.14540  0.33900  0.40287  Biso   1.000  N
  N7       1.0000 0.55750  0.72530  0.70358  Biso   1.000  N
  N8       1.0000 0.44250  0.27470  0.29642  Biso   1.000  N
  C1       1.0000 0.24000  0.51090  0.05350  Biso   1.000  C
  C2       1.0000 0.76000  0.48910  0.94650  Biso   1.000  C
  H1       1.0000 0.19690  0.45560  0.12100  Biso   1.000  H
  H2       1.0000 0.80310  0.54440  0.87900  Biso   1.000  H
  H3       1.0000 0.37160  0.44330  0.01890  Biso   1.000  H
  H4       1.0000 0.62840  0.55670  0.98110  Biso   1.000  H
  H5       1.0000 0.17170  0.51620  0.00230  Biso   1.000  H
  H6       1.0000 0.82830  0.48380  0.99770  Biso   1.000  H
  C3       1.0000 0.20800  0.69530  0.08220  Biso   1.000  C
  C4       1.0000 0.79200  0.30470  0.91780  Biso   1.000  C
  C5       1.0000 0.25880  0.80340  0.99840  Biso   1.000  C
  C6       1.0000 0.74120  0.19660  0.00160  Biso   1.000  C
  H7       1.0000 0.31460  0.75960  0.92430  Biso   1.000  H
  H8       1.0000 0.68540  0.24040  0.07570  Biso   1.000  H
  C7       1.0000 0.22860  0.97500  0.02200  Biso   1.000  C
  C8       1.0000 0.77140  0.02500  0.97800  Biso   1.000  C
  C9       1.0000 0.28770  0.08740  0.92940  Biso   1.000  C
  C10      1.0000 0.71230  0.91260  0.07060  Biso   1.000  C
  H9       1.0000 0.34560  0.02100  0.85910  Biso   1.000  H
  H10      1.0000 0.65440  0.97900  0.14090  Biso   1.000  H
  H11      1.0000 0.37590  0.12200  0.94560  Biso   1.000  H
  H12      1.0000 0.62410  0.87800  0.05440  Biso   1.000  H
  H13      1.0000 0.17950  0.19080  0.92450  Biso   1.000  H
  H14      1.0000 0.82050  0.80920  0.07550  Biso   1.000  H
  C11      1.0000 0.14020  0.04080  0.13327  Biso   1.000  C
  C12      1.0000 0.85980  0.95920  0.86673  Biso   1.000  C
  H15      1.0000 0.11560  0.15630  0.15050  Biso   1.000  H
  H16      1.0000 0.88440  0.84370  0.84950  Biso   1.000  H
  C13      1.0000 0.12490  0.76240  0.19234  Biso   1.000  C
  C14      1.0000 0.87510  0.23760  0.80766  Biso   1.000  C
  H17      1.0000 0.09270  0.69100  0.24970  Biso   1.000  H
  H18      1.0000 0.90730  0.30900  0.75030  Biso   1.000  H
  C15      1.0000 0.08880  0.93480  0.21827  Biso   1.000  C
  C16      1.0000 0.91120  0.06520  0.78173  Biso   1.000  C
  C17      1.0000 0.99230  0.00440  0.33886  Biso   1.000  C
  C18      1.0000 0.00770  0.99560  0.66114  Biso   1.000  C
  C19      1.0000 0.57790  0.20300  0.55850  Biso   1.000  C
  C20      1.0000 0.42210  0.79700  0.44150  Biso   1.000  C
  H19      1.0000 0.65270  0.10560  0.50920  Biso   1.000  H
  H20      1.0000 0.34730  0.89440  0.49080  Biso   1.000  H
  C21      1.0000 0.39720  0.22530  0.62010  Biso   1.000  C
  C22      1.0000 0.60280  0.77470  0.37990  Biso   1.000  C
  H21      1.0000 0.35170  0.14320  0.61210  Biso   1.000  H
  H22      1.0000 0.64830  0.85680  0.38790  Biso   1.000  H
  C23      1.0000 0.28630  0.36730  0.69220  Biso   1.000  C
  C24      1.0000 0.71370  0.63270  0.30780  Biso   1.000  C
  H23      1.0000 0.16430  0.38360  0.73360  Biso   1.000  H
  H24      1.0000 0.83570  0.61640  0.26640  Biso   1.000  H
  C25      1.0000 0.35730  0.48810  0.70360  Biso   1.000  C
  C26      1.0000 0.64270  0.51190  0.29640  Biso   1.000  C
  H25      1.0000 0.28440  0.58640  0.75240  Biso   1.000  H
  H26      1.0000 0.71560  0.41360  0.24760  Biso   1.000  H
  C27      1.0000 0.53850  0.45800  0.64052  Biso   1.000  C
  C28      1.0000 0.46150  0.54200  0.35948  Biso   1.000  C
  C29      1.0000 0.62970  0.57480  0.64354  Biso   1.000  C
  C30      1.0000 0.37030  0.42520  0.35646  Biso   1.000  C
  C31      1.0000 0.70150  0.77320  0.67210  Biso   1.000  C
  C32      1.0000 0.29850  0.22680  0.32790  Biso   1.000  C
  H27      1.0000 0.69620  0.87550  0.69980  Biso   1.000  H
  H28      1.0000 0.30380  0.12450  0.30020  Biso   1.000  H
