data_image0
_cell_length_a       11.547
_cell_length_b       10.625
_cell_length_c       10.328
_cell_angle_alpha    71.17
_cell_angle_beta     116.87
_cell_angle_gamma    114.02

_symmetry_space_group_name_H-M    "P 1"
_symmetry_int_tables_number       1

loop_
  _symmetry_equiv_pos_as_xyz
  'x, y, z'

loop_
  _atom_site_label
  _atom_site_occupancy
  _atom_site_fract_x
  _atom_site_fract_y
  _atom_site_fract_z
  _atom_site_thermal_displace_type
  _atom_site_B_iso_or_equiv
  _atom_site_type_symbol
  K1       1.0000 0.66010  0.46110  0.08300  Biso   1.000  K
  K2       1.0000 0.33990  0.53890  0.91700  Biso   1.000  K
  K3       1.0000 0.82370  0.50460  0.81950  Biso   1.000  K
  K4       1.0000 0.17630  0.49540  0.18050  Biso   1.000  K
  Cu1      1.0000 0.95770  0.83950  0.91010  Biso   1.000  Cu
  Cu2      1.0000 0.04230  0.16050  0.08990  Biso   1.000  Cu
  O1       1.0000 0.41520  0.30310  0.10350  Biso   1.000  O
  O2       1.0000 0.58480  0.69690  0.89650  Biso   1.000  O
  O3       1.0000 0.08320  0.88560  0.17850  Biso   1.000  O
  O4       1.0000 0.91680  0.11440  0.82150  Biso   1.000  O
  O5       1.0000 0.75110  0.28580  0.05050  Biso   1.000  O
  O6       1.0000 0.24890  0.71420  0.94950  Biso   1.000  O
  O7       1.0000 0.87390  0.88370  0.19390  Biso   1.000  O
  O8       1.0000 0.12610  0.11630  0.80610  Biso   1.000  O
  N1       1.0000 0.21290  0.29530  0.07630  Biso   1.000  N
  N2       1.0000 0.78710  0.70470  0.92370  Biso   1.000  N
  N3       1.0000 0.14190  0.02780  0.15320  Biso   1.000  N
  N4       1.0000 0.85810  0.97220  0.84680  Biso   1.000  N
  N5       1.0000 0.94480  0.28980  0.05160  Biso   1.000  N
  N6       1.0000 0.05520  0.71020  0.94840  Biso   1.000  N
  N7       1.0000 0.88850  0.02390  0.14190  Biso   1.000  N
  N8       1.0000 0.11150  0.97610  0.85810  Biso   1.000  N
  C1       1.0000 0.30130  0.23590  0.11380  Biso   1.000  C
  C2       1.0000 0.69870  0.76410  0.88620  Biso   1.000  C
  C3       1.0000 0.26730  0.08760  0.15880  Biso   1.000  C
  C4       1.0000 0.73270  0.91240  0.84120  Biso   1.000  C
  C5       1.0000 0.36730  0.00840  0.21310  Biso   1.000  C
  C6       1.0000 0.63270  0.99160  0.78690  Biso   1.000  C
  C7       1.0000 0.83050  0.22470  0.07330  Biso   1.000  C
  C8       1.0000 0.16950  0.77530  0.92670  Biso   1.000  C
  C9       1.0000 0.79790  0.07470  0.13160  Biso   1.000  C
  C10      1.0000 0.20210  0.92530  0.86840  Biso   1.000  C
  C11      1.0000 0.67650  0.98350  0.16880  Biso   1.000  C
  C12      1.0000 0.32350  0.01650  0.83120  Biso   1.000  C
  Cu3      1.0000 0.83520  0.65060  0.39770  Biso   1.000  Cu
  Cu4      1.0000 0.16480  0.34940  0.60230  Biso   1.000  Cu
  O9       1.0000 0.12450  0.57080  0.36140  Biso   1.000  O
  O10      1.0000 0.87550  0.42920  0.63860  Biso   1.000  O
  O11      1.0000 0.06870  0.82870  0.60290  Biso   1.000  O
  O12      1.0000 0.93130  0.17130  0.39710  Biso   1.000  O
  O13      1.0000 0.44450  0.57690  0.24670  Biso   1.000  O
  O14      1.0000 0.55550  0.42310  0.75330  Biso   1.000  O
  O15      1.0000 0.83890  0.78590  0.60330  Biso   1.000  O
  O16      1.0000 0.16110  0.21410  0.39670  Biso   1.000  O
  N9       1.0000 0.91390  0.57790  0.31730  Biso   1.000  N
  N10      1.0000 0.08610  0.42210  0.68270  Biso   1.000  N
  N11      1.0000 0.02540  0.74240  0.50330  Biso   1.000  N
  N12      1.0000 0.97460  0.25760  0.49670  Biso   1.000  N
  N13      1.0000 0.64590  0.57210  0.28010  Biso   1.000  N
  N14      1.0000 0.35410  0.42790  0.71990  Biso   1.000  N
  N15      1.0000 0.76290  0.71350  0.49140  Biso   1.000  N
  N16      1.0000 0.23710  0.28650  0.50860  Biso   1.000  N
  C13      1.0000 0.04430  0.61500  0.37520  Biso   1.000  C
  C14      1.0000 0.95570  0.38500  0.62480  Biso   1.000  C
  C15      1.0000 0.11050  0.71070  0.47630  Biso   1.000  C
  C16      1.0000 0.88950  0.28930  0.52370  Biso   1.000  C
  C17      1.0000 0.26060  0.77330  0.54850  Biso   1.000  C
  C18      1.0000 0.73940  0.22670  0.45150  Biso   1.000  C
  C19      1.0000 0.57070  0.61080  0.31240  Biso   1.000  C
  C20      1.0000 0.42930  0.38920  0.68760  Biso   1.000  C
  C21      1.0000 0.62820  0.68120  0.43400  Biso   1.000  C
  C22      1.0000 0.37180  0.31880  0.56600  Biso   1.000  C
  C23      1.0000 0.55280  0.72860  0.48640  Biso   1.000  C
  C24      1.0000 0.44720  0.27140  0.51360  Biso   1.000  C
