data_image0
_cell_length_a       6.3772
_cell_length_b       19.271
_cell_length_c       16.092
_cell_angle_alpha    90
_cell_angle_beta     93
_cell_angle_gamma    90

_symmetry_space_group_name_H-M    "P 1"
_symmetry_int_tables_number       1

loop_
  _symmetry_equiv_pos_as_xyz
  'x, y, z'

loop_
  _atom_site_label
  _atom_site_occupancy
  _atom_site_fract_x
  _atom_site_fract_y
  _atom_site_fract_z
  _atom_site_thermal_displace_type
  _atom_site_B_iso_or_equiv
  _atom_site_type_symbol
  Cu1      1.0000 0.03973  0.56992  0.45210  Biso   1.000  Cu
  Cu2      1.0000 0.96027  0.06992  0.04790  Biso   1.000  Cu
  Cu3      1.0000 0.96027  0.43008  0.54790  Biso   1.000  Cu
  Cu4      1.0000 0.03973  0.93008  0.95210  Biso   1.000  Cu
  Cu5      1.0000 0.50000  0.50000  0.50000  Biso   1.000  Cu
  Cu6      1.0000 0.50000  0.00000  0.00000  Biso   1.000  Cu
  N1       1.0000 0.26600  0.44744  0.26194  Biso   1.000  N
  N2       1.0000 0.73400  0.94744  0.23806  Biso   1.000  N
  N3       1.0000 0.73400  0.55256  0.73806  Biso   1.000  N
  N4       1.0000 0.26600  0.05256  0.76194  Biso   1.000  N
  N5       1.0000 0.18280  0.51377  0.36447  Biso   1.000  N
  N6       1.0000 0.81720  0.01377  0.13553  Biso   1.000  N
  N7       1.0000 0.81720  0.48623  0.63553  Biso   1.000  N
  N8       1.0000 0.18280  0.98623  0.86447  Biso   1.000  N
  N9       1.0000 0.37010  0.48166  0.38606  Biso   1.000  N
  N10      1.0000 0.62990  0.98166  0.11394  Biso   1.000  N
  N11      1.0000 0.62990  0.51834  0.61394  Biso   1.000  N
  N12      1.0000 0.37010  0.01834  0.88606  Biso   1.000  N
  N13      1.0000 0.92240  0.39848  0.99214  Biso   1.000  N
  N14      1.0000 0.07760  0.89848  0.50786  Biso   1.000  N
  N15      1.0000 0.07760  0.60152  0.00786  Biso   1.000  N
  N16      1.0000 0.92240  0.10152  0.49214  Biso   1.000  N
  N17      1.0000 0.63620  0.43470  0.92480  Biso   1.000  N
  N18      1.0000 0.36380  0.93470  0.57520  Biso   1.000  N
  N19      1.0000 0.36380  0.56530  0.07520  Biso   1.000  N
  N20      1.0000 0.63620  0.06530  0.42480  Biso   1.000  N
  N21      1.0000 0.76950  0.40880  0.86690  Biso   1.000  N
  N22      1.0000 0.23050  0.90880  0.63310  Biso   1.000  N
  N23      1.0000 0.23050  0.59120  0.13310  Biso   1.000  N
  N24      1.0000 0.76950  0.09120  0.36690  Biso   1.000  N
  O1       1.0000 0.93770  0.63584  0.53368  Biso   1.000  O
  O2       1.0000 0.06230  0.13584  0.96632  Biso   1.000  O
  O3       1.0000 0.06230  0.36416  0.46632  Biso   1.000  O
  O4       1.0000 0.93770  0.86416  0.03368  Biso   1.000  O
  O5       1.0000 0.16230  0.62291  0.64385  Biso   1.000  O
  O6       1.0000 0.83770  0.12291  0.85615  Biso   1.000  O
  O7       1.0000 0.83770  0.37709  0.35615  Biso   1.000  O
  O8       1.0000 0.16230  0.87709  0.14385  Biso   1.000  O
  O9       1.0000 0.88200  0.87912  0.86366  Biso   1.000  O
  O10      1.0000 0.11800  0.37912  0.63634  Biso   1.000  O
  O11      1.0000 0.11800  0.12088  0.13634  Biso   1.000  O
  O12      1.0000 0.88200  0.62088  0.36366  Biso   1.000  O
  O13      1.0000 0.16350  0.81142  0.85782  Biso   1.000  O
  O14      1.0000 0.83650  0.31142  0.64218  Biso   1.000  O
  O15      1.0000 0.83650  0.18858  0.14218  Biso   1.000  O
  O16      1.0000 0.16350  0.68858  0.35782  Biso   1.000  O
  O17      1.0000 0.21500  0.51707  0.53242  Biso   1.000  O
  O18      1.0000 0.78500  0.01707  0.96758  Biso   1.000  O
  O19      1.0000 0.78500  0.48293  0.46758  Biso   1.000  O
  O20      1.0000 0.21500  0.98293  0.03242  Biso   1.000  O
  O21      1.0000 0.49390  0.62860  0.45673  Biso   1.000  O
  O22      1.0000 0.50610  0.12860  0.04327  Biso   1.000  O
  O23      1.0000 0.50610  0.37140  0.54327  Biso   1.000  O
  O24      1.0000 0.49390  0.87140  0.95673  Biso   1.000  O
  H1       1.0000 0.41010  0.64880  0.42440  Biso   1.000  H
  H2       1.0000 0.58990  0.14880  0.07560  Biso   1.000  H
  H3       1.0000 0.58990  0.35120  0.57560  Biso   1.000  H
  H4       1.0000 0.41010  0.85120  0.92440  Biso   1.000  H
  H5       1.0000 0.61580  0.63240  0.44190  Biso   1.000  H
  H6       1.0000 0.38420  0.13240  0.05810  Biso   1.000  H
  H7       1.0000 0.38420  0.36760  0.55810  Biso   1.000  H
  H8       1.0000 0.61580  0.86760  0.94190  Biso   1.000  H
  C1       1.0000 0.25650  0.40876  0.18487  Biso   1.000  C
  C2       1.0000 0.74350  0.90876  0.31513  Biso   1.000  C
  C3       1.0000 0.74350  0.59124  0.81513  Biso   1.000  C
  C4       1.0000 0.25650  0.09124  0.68487  Biso   1.000  C
  C5       1.0000 0.09330  0.42188  0.12770  Biso   1.000  C
  C6       1.0000 0.90670  0.92188  0.37230  Biso   1.000  C
  C7       1.0000 0.90670  0.57812  0.87230  Biso   1.000  C
  C8       1.0000 0.09330  0.07812  0.62770  Biso   1.000  C
  H9       1.0000 0.99340  0.45570  0.13740  Biso   1.000  H
  H10      1.0000 0.00660  0.95570  0.36260  Biso   1.000  H
  H11      1.0000 0.00660  0.54430  0.86260  Biso   1.000  H
  H12      1.0000 0.99340  0.04430  0.63740  Biso   1.000  H
  C9       1.0000 0.08280  0.38280  0.05460  Biso   1.000  C
  C10      1.0000 0.91720  0.88280  0.44540  Biso   1.000  C
  C11      1.0000 0.91720  0.61720  0.94540  Biso   1.000  C
  C12      1.0000 0.08280  0.11720  0.55460  Biso   1.000  C
  C13      1.0000 0.22540  0.33120  0.04180  Biso   1.000  C
  C14      1.0000 0.77460  0.83120  0.45820  Biso   1.000  C
  C15      1.0000 0.77460  0.66880  0.95820  Biso   1.000  C
  C16      1.0000 0.22540  0.16880  0.54180  Biso   1.000  C
  H13      1.0000 0.21170  0.30370  0.99430  Biso   1.000  H
  H14      1.0000 0.78830  0.80370  0.50570  Biso   1.000  H
  H15      1.0000 0.78830  0.69630  0.00570  Biso   1.000  H
  H16      1.0000 0.21170  0.19630  0.49430  Biso   1.000  H
  C17      1.0000 0.38860  0.32030  0.09930  Biso   1.000  C
  C18      1.0000 0.61140  0.82030  0.40070  Biso   1.000  C
  C19      1.0000 0.61140  0.67970  0.90070  Biso   1.000  C
  C20      1.0000 0.38860  0.17970  0.59930  Biso   1.000  C
  H17      1.0000 0.48790  0.28630  0.08970  Biso   1.000  H
  H18      1.0000 0.51210  0.78630  0.41030  Biso   1.000  H
  H19      1.0000 0.51210  0.71370  0.91030  Biso   1.000  H
  H20      1.0000 0.48790  0.21370  0.58970  Biso   1.000  H
  C21      1.0000 0.40700  0.35950  0.17170  Biso   1.000  C
  C22      1.0000 0.59300  0.85950  0.32830  Biso   1.000  C
  C23      1.0000 0.59300  0.64050  0.82830  Biso   1.000  C
  C24      1.0000 0.40700  0.14050  0.67170  Biso   1.000  C
  H21      1.0000 0.51850  0.35260  0.21040  Biso   1.000  H
  H22      1.0000 0.48150  0.85260  0.28960  Biso   1.000  H
  H23      1.0000 0.48150  0.64740  0.78960  Biso   1.000  H
  H24      1.0000 0.51850  0.14740  0.71040  Biso   1.000  H
  C25      1.0000 0.41820  0.44238  0.32393  Biso   1.000  C
  C26      1.0000 0.58180  0.94238  0.17607  Biso   1.000  C
  C27      1.0000 0.58180  0.55762  0.67607  Biso   1.000  C
  C28      1.0000 0.41820  0.05762  0.82393  Biso   1.000  C
  H25      1.0000 0.53820  0.41510  0.32230  Biso   1.000  H
  H26      1.0000 0.46180  0.91510  0.17770  Biso   1.000  H
  H27      1.0000 0.46180  0.58490  0.67770  Biso   1.000  H
  H28      1.0000 0.53820  0.08490  0.82230  Biso   1.000  H
  C29      1.0000 0.12240  0.49245  0.29037  Biso   1.000  C
  C30      1.0000 0.87760  0.99245  0.20963  Biso   1.000  C
  C31      1.0000 0.87760  0.50755  0.70963  Biso   1.000  C
  C32      1.0000 0.12240  0.00755  0.79037  Biso   1.000  C
  H29      1.0000 0.99930  0.50600  0.26120  Biso   1.000  H
  H30      1.0000 0.00070  0.00600  0.23880  Biso   1.000  H
  H31      1.0000 0.00070  0.49400  0.73880  Biso   1.000  H
  H32      1.0000 0.99930  0.99400  0.76120  Biso   1.000  H
  C33      1.0000 0.73450  0.42830  0.99870  Biso   1.000  C
  C34      1.0000 0.26550  0.92830  0.50130  Biso   1.000  C
  C35      1.0000 0.26550  0.57170  0.00130  Biso   1.000  C
  C36      1.0000 0.73450  0.07170  0.49870  Biso   1.000  C
  H33      1.0000 0.68050  0.44250  0.04850  Biso   1.000  H
  H34      1.0000 0.31950  0.94250  0.45150  Biso   1.000  H
  H35      1.0000 0.31950  0.55750  0.95150  Biso   1.000  H
  H36      1.0000 0.68050  0.05750  0.54850  Biso   1.000  H
  C37      1.0000 0.93640  0.38750  0.90760  Biso   1.000  C
  C38      1.0000 0.06360  0.88750  0.59240  Biso   1.000  C
  C39      1.0000 0.06360  0.61250  0.09240  Biso   1.000  C
  C40      1.0000 0.93640  0.11250  0.40760  Biso   1.000  C
  H37      1.0000 0.05090  0.36740  0.88340  Biso   1.000  H
  H38      1.0000 0.94910  0.86740  0.61660  Biso   1.000  H
  H39      1.0000 0.94910  0.63260  0.11660  Biso   1.000  H
  H40      1.0000 0.05090  0.13260  0.38340  Biso   1.000  H
  C41      1.0000 0.88810  0.70447  0.65262  Biso   1.000  C
  C42      1.0000 0.11190  0.20447  0.84738  Biso   1.000  C
  C43      1.0000 0.11190  0.29553  0.34738  Biso   1.000  C
  C44      1.0000 0.88810  0.79553  0.15262  Biso   1.000  C
  C45      1.0000 0.98130  0.73884  0.72096  Biso   1.000  C
  C46      1.0000 0.01870  0.23884  0.77904  Biso   1.000  C
  C47      1.0000 0.01870  0.26116  0.27904  Biso   1.000  C
  C48      1.0000 0.98130  0.76116  0.22096  Biso   1.000  C
  H41      1.0000 0.11890  0.72820  0.73850  Biso   1.000  H
  H42      1.0000 0.88110  0.22820  0.76150  Biso   1.000  H
  H43      1.0000 0.88110  0.27180  0.26150  Biso   1.000  H
  H44      1.0000 0.11890  0.77180  0.23850  Biso   1.000  H
  C49      1.0000 0.87260  0.78860  0.76336  Biso   1.000  C
  C50      1.0000 0.12740  0.28860  0.73664  Biso   1.000  C
  C51      1.0000 0.12740  0.21140  0.23664  Biso   1.000  C
  C52      1.0000 0.87260  0.71140  0.26336  Biso   1.000  C
  C53      1.0000 0.66360  0.80244  0.73928  Biso   1.000  C
  C54      1.0000 0.33640  0.30244  0.76072  Biso   1.000  C
  C55      1.0000 0.33640  0.19756  0.26072  Biso   1.000  C
  C56      1.0000 0.66360  0.69756  0.23928  Biso   1.000  C
  H45      1.0000 0.58840  0.83510  0.76820  Biso   1.000  H
  H46      1.0000 0.41160  0.33510  0.73180  Biso   1.000  H
  H47      1.0000 0.41160  0.16490  0.23180  Biso   1.000  H
  H48      1.0000 0.58840  0.66490  0.26820  Biso   1.000  H
  C57      1.0000 0.56740  0.76729  0.67182  Biso   1.000  C
  C58      1.0000 0.43260  0.26729  0.82818  Biso   1.000  C
  C59      1.0000 0.43260  0.23271  0.32818  Biso   1.000  C
  C60      1.0000 0.56740  0.73271  0.17182  Biso   1.000  C
  H49      1.0000 0.42710  0.77580  0.65670  Biso   1.000  H
  H50      1.0000 0.57290  0.27580  0.84330  Biso   1.000  H
  H51      1.0000 0.57290  0.22420  0.34330  Biso   1.000  H
  H52      1.0000 0.42710  0.72420  0.15670  Biso   1.000  H
  C61      1.0000 0.67940  0.71993  0.62734  Biso   1.000  C
  C62      1.0000 0.32060  0.21993  0.87266  Biso   1.000  C
  C63      1.0000 0.32060  0.28007  0.37266  Biso   1.000  C
  C64      1.0000 0.67940  0.78007  0.12734  Biso   1.000  C
  H53      1.0000 0.61650  0.69830  0.58070  Biso   1.000  H
  H54      1.0000 0.38350  0.19830  0.91930  Biso   1.000  H
  H55      1.0000 0.38350  0.30170  0.41930  Biso   1.000  H
  H56      1.0000 0.61650  0.80170  0.08070  Biso   1.000  H
  C65      1.0000 0.00870  0.65061  0.60683  Biso   1.000  C
  C66      1.0000 0.99130  0.15061  0.89317  Biso   1.000  C
  C67      1.0000 0.99130  0.34939  0.39317  Biso   1.000  C
  C68      1.0000 0.00870  0.84939  0.10683  Biso   1.000  C
  C69      1.0000 0.98450  0.82799  0.83385  Biso   1.000  C
  C70      1.0000 0.01550  0.32799  0.66615  Biso   1.000  C
  C71      1.0000 0.01550  0.17201  0.16615  Biso   1.000  C
  C72      1.0000 0.98450  0.67201  0.33385  Biso   1.000  C
  H57      1.0000 0.22100  0.54200  0.57000  Biso   1.000  H
  H58      1.0000 0.77900  0.04200  0.93000  Biso   1.000  H
  H59      1.0000 0.77900  0.45800  0.43000  Biso   1.000  H
  H60      1.0000 0.22100  0.95800  0.07000  Biso   1.000  H
  O25      1.0000 0.69020  0.52823  0.19710  Biso   1.000  O
  O26      1.0000 0.30980  0.02823  0.30290  Biso   1.000  O
  O27      1.0000 0.30980  0.47177  0.80290  Biso   1.000  O
  O28      1.0000 0.69020  0.97177  0.69710  Biso   1.000  O
  H61      1.0000 0.66780  0.53880  0.24480  Biso   1.000  H
  H62      1.0000 0.33220  0.03880  0.25520  Biso   1.000  H
  H63      1.0000 0.33220  0.46120  0.75520  Biso   1.000  H
  H64      1.0000 0.66780  0.96120  0.74480  Biso   1.000  H
  H65      1.0000 0.60630  0.54530  0.16190  Biso   1.000  H
  H66      1.0000 0.39370  0.04530  0.33810  Biso   1.000  H
  H67      1.0000 0.39370  0.45470  0.83810  Biso   1.000  H
  H68      1.0000 0.60630  0.95470  0.66190  Biso   1.000  H
