data_image0
_cell_length_a       8.143
_cell_length_b       8.646
_cell_length_c       16.787
_cell_angle_alpha    90
_cell_angle_beta     97.35
_cell_angle_gamma    90

_symmetry_space_group_name_H-M    "P 1"
_symmetry_int_tables_number       1

loop_
  _symmetry_equiv_pos_as_xyz
  'x, y, z'

loop_
  _atom_site_label
  _atom_site_occupancy
  _atom_site_fract_x
  _atom_site_fract_y
  _atom_site_fract_z
  _atom_site_thermal_displace_type
  _atom_site_B_iso_or_equiv
  _atom_site_type_symbol
  Cu1      1.0000 0.14180  0.07000  0.14590  Biso   1.000  Cu
  Cu2      1.0000 0.85820  0.57000  0.35410  Biso   1.000  Cu
  Cu3      1.0000 0.85820  0.93000  0.85410  Biso   1.000  Cu
  Cu4      1.0000 0.14180  0.43000  0.64590  Biso   1.000  Cu
  Cl1      1.0000 0.67480  0.14650  0.36110  Biso   1.000  Cl
  Cl2      1.0000 0.32520  0.64650  0.13890  Biso   1.000  Cl
  Cl3      1.0000 0.32520  0.85350  0.63890  Biso   1.000  Cl
  Cl4      1.0000 0.67480  0.35350  0.86110  Biso   1.000  Cl
  N1       1.0000 0.17700  0.10150  0.03550  Biso   1.000  N
  N2       1.0000 0.82300  0.60150  0.46450  Biso   1.000  N
  N3       1.0000 0.82300  0.89850  0.96450  Biso   1.000  N
  N4       1.0000 0.17700  0.39850  0.53550  Biso   1.000  N
  N5       1.0000 0.37690  0.15770  0.16720  Biso   1.000  N
  N6       1.0000 0.62310  0.65770  0.33280  Biso   1.000  N
  N7       1.0000 0.62310  0.84230  0.83280  Biso   1.000  N
  N8       1.0000 0.37690  0.34230  0.66720  Biso   1.000  N
  N9       1.0000 0.99860  0.30100  0.16590  Biso   1.000  N
  N10      1.0000 0.00140  0.80100  0.33410  Biso   1.000  N
  N11      1.0000 0.00140  0.69900  0.83410  Biso   1.000  N
  N12      1.0000 0.99860  0.19900  0.66590  Biso   1.000  N
  N13      1.0000 0.88050  0.48890  0.24390  Biso   1.000  N
  N14      1.0000 0.11950  0.98890  0.25610  Biso   1.000  N
  N15      1.0000 0.11950  0.51110  0.75610  Biso   1.000  N
  N16      1.0000 0.88050  0.01110  0.74390  Biso   1.000  N
  O1       1.0000 0.93060  0.96700  0.09410  Biso   1.000  O
  O2       1.0000 0.06940  0.46700  0.40590  Biso   1.000  O
  O3       1.0000 0.06940  0.03300  0.90590  Biso   1.000  O
  O4       1.0000 0.93060  0.53300  0.59410  Biso   1.000  O
  O5       1.0000 0.59030  0.27800  0.32790  Biso   1.000  O
  O6       1.0000 0.40970  0.77800  0.17210  Biso   1.000  O
  O7       1.0000 0.40970  0.72200  0.67210  Biso   1.000  O
  O8       1.0000 0.59030  0.22200  0.82790  Biso   1.000  O
  O9       1.0000 0.84270  0.16640  0.38720  Biso   1.000  O
  O10      1.0000 0.15730  0.66640  0.11280  Biso   1.000  O
  O11      1.0000 0.15730  0.83360  0.61280  Biso   1.000  O
  O12      1.0000 0.84270  0.33360  0.88720  Biso   1.000  O
  O13      1.0000 0.59710  0.10090  0.42740  Biso   1.000  O
  O14      1.0000 0.40290  0.60090  0.07260  Biso   1.000  O
  O15      1.0000 0.40290  0.89910  0.57260  Biso   1.000  O
  O16      1.0000 0.59710  0.39910  0.92740  Biso   1.000  O
  O17      1.0000 0.64250  0.02580  0.30530  Biso   1.000  O
  O18      1.0000 0.35750  0.52580  0.19470  Biso   1.000  O
  O19      1.0000 0.35750  0.97420  0.69470  Biso   1.000  O
  O20      1.0000 0.64250  0.47420  0.80530  Biso   1.000  O
  C1       1.0000 0.07010  0.03850  0.98160  Biso   1.000  C
  C2       1.0000 0.92990  0.53850  0.51840  Biso   1.000  C
  C3       1.0000 0.92990  0.96150  0.01840  Biso   1.000  C
  C4       1.0000 0.07010  0.46150  0.48160  Biso   1.000  C
  C5       1.0000 0.32800  0.17890  0.02200  Biso   1.000  C
  C6       1.0000 0.67200  0.67890  0.47800  Biso   1.000  C
  C7       1.0000 0.67200  0.82110  0.97800  Biso   1.000  C
  C8       1.0000 0.32800  0.32110  0.52200  Biso   1.000  C
  C9       1.0000 0.45430  0.14130  0.09210  Biso   1.000  C
  C10      1.0000 0.54570  0.64130  0.40790  Biso   1.000  C
  C11      1.0000 0.54570  0.85870  0.90790  Biso   1.000  C
  C12      1.0000 0.45430  0.35870  0.59210  Biso   1.000  C
  C13      1.0000 0.98320  0.37200  0.23480  Biso   1.000  C
  C14      1.0000 0.01680  0.87200  0.26520  Biso   1.000  C
  C15      1.0000 0.01680  0.62800  0.76520  Biso   1.000  C
  C16      1.0000 0.98320  0.12800  0.73480  Biso   1.000  C
  C17      1.0000 0.78570  0.53800  0.17760  Biso   1.000  C
  C18      1.0000 0.21430  0.03800  0.32240  Biso   1.000  C
  C19      1.0000 0.21430  0.46200  0.82240  Biso   1.000  C
  C20      1.0000 0.78570  0.96200  0.67760  Biso   1.000  C
  C21      1.0000 0.79150  0.46980  0.10450  Biso   1.000  C
  C22      1.0000 0.20850  0.96980  0.39550  Biso   1.000  C
  C23      1.0000 0.20850  0.53020  0.89550  Biso   1.000  C
  C24      1.0000 0.79150  0.03020  0.60450  Biso   1.000  C
  C25      1.0000 0.90190  0.35220  0.10070  Biso   1.000  C
  C26      1.0000 0.09810  0.85220  0.39930  Biso   1.000  C
  C27      1.0000 0.09810  0.64780  0.89930  Biso   1.000  C
  C28      1.0000 0.90190  0.14780  0.60070  Biso   1.000  C
