data_image0
_cell_length_a       10.1563
_cell_length_b       10.1563
_cell_length_c       17.3073
_cell_angle_alpha    90
_cell_angle_beta     90
_cell_angle_gamma    120

_symmetry_space_group_name_H-M    "P 1"
_symmetry_int_tables_number       1

loop_
  _symmetry_equiv_pos_as_xyz
  'x, y, z'

loop_
  _atom_site_label
  _atom_site_occupancy
  _atom_site_fract_x
  _atom_site_fract_y
  _atom_site_fract_z
  _atom_site_thermal_displace_type
  _atom_site_B_iso_or_equiv
  _atom_site_type_symbol
  Cu1      1.0000 0.14003  0.09362  0.10452  Biso   1.000  Cu
  Cu2      1.0000 0.90638  0.04641  0.43785  Biso   1.000  Cu
  Cu3      1.0000 0.95359  0.85997  0.77119  Biso   1.000  Cu
  Cu4      1.0000 0.85997  0.90638  0.60452  Biso   1.000  Cu
  Cu5      1.0000 0.09362  0.95359  0.93785  Biso   1.000  Cu
  Cu6      1.0000 0.04641  0.14003  0.27119  Biso   1.000  Cu
  C1       1.0000 0.48274  0.47293  0.20781  Biso   1.000  C
  C2       1.0000 0.52707  0.00981  0.54114  Biso   1.000  C
  C3       1.0000 0.99019  0.51726  0.87448  Biso   1.000  C
  C4       1.0000 0.51726  0.52707  0.70781  Biso   1.000  C
  C5       1.0000 0.47293  0.99019  0.04114  Biso   1.000  C
  C6       1.0000 0.00981  0.48274  0.37448  Biso   1.000  C
  C7       1.0000 0.41113  0.37901  0.14709  Biso   1.000  C
  C8       1.0000 0.62099  0.03212  0.48042  Biso   1.000  C
  C9       1.0000 0.96788  0.58887  0.81376  Biso   1.000  C
  C10      1.0000 0.58887  0.62099  0.64709  Biso   1.000  C
  C11      1.0000 0.37901  0.96788  0.98042  Biso   1.000  C
  C12      1.0000 0.03212  0.41113  0.31376  Biso   1.000  C
  N1       1.0000 0.28023  0.25853  0.17367  Biso   1.000  N
  N2       1.0000 0.74147  0.02170  0.50700  Biso   1.000  N
  N3       1.0000 0.97830  0.71977  0.84034  Biso   1.000  N
  N4       1.0000 0.71977  0.74147  0.67367  Biso   1.000  N
  N5       1.0000 0.25853  0.97830  0.00700  Biso   1.000  N
  N6       1.0000 0.02170  0.28023  0.34034  Biso   1.000  N
  N7       1.0000 0.27094  0.27799  0.25082  Biso   1.000  N
  N8       1.0000 0.72201  0.99295  0.58415  Biso   1.000  N
  N9       1.0000 0.00705  0.72906  0.91749  Biso   1.000  N
  N10      1.0000 0.72906  0.72201  0.75082  Biso   1.000  N
  N11      1.0000 0.27799  0.00705  0.08415  Biso   1.000  N
  N12      1.0000 0.99295  0.27094  0.41749  Biso   1.000  N
  C13      1.0000 0.39610  0.41050  0.27192  Biso   1.000  C
  C14      1.0000 0.58950  0.98560  0.60525  Biso   1.000  C
  C15      1.0000 0.01440  0.60390  0.93859  Biso   1.000  C
  C16      1.0000 0.60390  0.58950  0.77192  Biso   1.000  C
  C17      1.0000 0.41050  0.01440  0.10525  Biso   1.000  C
  C18      1.0000 0.98560  0.39610  0.43859  Biso   1.000  C
  N13      1.0000 0.62626  0.61474  0.20474  Biso   1.000  N
  N14      1.0000 0.38526  0.01152  0.53807  Biso   1.000  N
  N15      1.0000 0.98848  0.37374  0.87141  Biso   1.000  N
  N16      1.0000 0.37374  0.38526  0.70474  Biso   1.000  N
  N17      1.0000 0.61474  0.98848  0.03807  Biso   1.000  N
  N18      1.0000 0.01152  0.62626  0.37141  Biso   1.000  N
  C19      1.0000 0.64864  0.74216  0.24454  Biso   1.000  C
  C20      1.0000 0.25784  0.90648  0.57787  Biso   1.000  C
  C21      1.0000 0.09352  0.35136  0.91121  Biso   1.000  C
  C22      1.0000 0.35136  0.25784  0.74454  Biso   1.000  C
  C23      1.0000 0.74216  0.09352  0.07787  Biso   1.000  C
  C24      1.0000 0.90648  0.64864  0.41121  Biso   1.000  C
  C25      1.0000 0.78843  0.87146  0.23817  Biso   1.000  C
  C26      1.0000 0.12854  0.91697  0.57150  Biso   1.000  C
  C27      1.0000 0.08303  0.21157  0.90484  Biso   1.000  C
  C28      1.0000 0.21157  0.12854  0.73817  Biso   1.000  C
  C29      1.0000 0.87146  0.08303  0.07150  Biso   1.000  C
  C30      1.0000 0.91697  0.78843  0.40484  Biso   1.000  C
  C31      1.0000 0.90775  0.87606  0.19228  Biso   1.000  C
  C32      1.0000 0.12394  0.03169  0.52561  Biso   1.000  C
  C33      1.0000 0.96831  0.09225  0.85895  Biso   1.000  C
  C34      1.0000 0.09225  0.12394  0.69228  Biso   1.000  C
  C35      1.0000 0.87606  0.96831  0.02561  Biso   1.000  C
  C36      1.0000 0.03169  0.90775  0.35895  Biso   1.000  C
  C37      1.0000 0.87790  0.74302  0.15332  Biso   1.000  C
  C38      1.0000 0.25698  0.13488  0.48665  Biso   1.000  C
  C39      1.0000 0.86512  0.12210  0.81999  Biso   1.000  C
  C40      1.0000 0.12210  0.25698  0.65332  Biso   1.000  C
  C41      1.0000 0.74302  0.86512  0.98665  Biso   1.000  C
  C42      1.0000 0.13488  0.87790  0.31999  Biso   1.000  C
  C43      1.0000 0.73869  0.61672  0.16060  Biso   1.000  C
  C44      1.0000 0.38328  0.12197  0.49393  Biso   1.000  C
  C45      1.0000 0.87803  0.26131  0.82727  Biso   1.000  C
  C46      1.0000 0.26131  0.38328  0.66060  Biso   1.000  C
  C47      1.0000 0.61672  0.87803  0.99393  Biso   1.000  C
  C48      1.0000 0.12197  0.73869  0.32727  Biso   1.000  C
  O1       1.0000 0.03390  0.00348  0.19065  Biso   1.000  O
  O2       1.0000 0.99652  0.03042  0.52398  Biso   1.000  O
  O3       1.0000 0.96958  0.96610  0.85732  Biso   1.000  O
  O4       1.0000 0.96610  0.99652  0.69065  Biso   1.000  O
  O5       1.0000 0.00348  0.96958  0.02398  Biso   1.000  O
  O6       1.0000 0.03042  0.03390  0.35732  Biso   1.000  O
  O7       1.0000 0.82346  0.00230  0.27423  Biso   1.000  O
  O8       1.0000 0.99770  0.82116  0.60756  Biso   1.000  O
  O9       1.0000 0.17884  0.17654  0.94090  Biso   1.000  O
  O10      1.0000 0.17654  0.99770  0.77423  Biso   1.000  O
  O11      1.0000 0.00230  0.17884  0.10756  Biso   1.000  O
  O12      1.0000 0.82116  0.82346  0.44090  Biso   1.000  O
  C49      1.0000 0.52275  0.73603  0.29247  Biso   1.000  C
  C50      1.0000 0.26397  0.78672  0.62580  Biso   1.000  C
  C51      1.0000 0.21328  0.47725  0.95914  Biso   1.000  C
  C52      1.0000 0.47725  0.26397  0.79247  Biso   1.000  C
  C53      1.0000 0.73603  0.21328  0.12580  Biso   1.000  C
  C54      1.0000 0.78672  0.52275  0.45914  Biso   1.000  C
  O13      1.0000 0.99414  0.75396  0.11109  Biso   1.000  O
  O14      1.0000 0.24604  0.24018  0.44442  Biso   1.000  O
  O15      1.0000 0.75982  0.00586  0.77776  Biso   1.000  O
  O16      1.0000 0.00586  0.24604  0.61109  Biso   1.000  O
  O17      1.0000 0.75396  0.75982  0.94442  Biso   1.000  O
  O18      1.0000 0.24018  0.99414  0.27776  Biso   1.000  O
  C55      1.0000 0.69771  0.47000  0.12084  Biso   1.000  C
  C56      1.0000 0.53000  0.22771  0.45417  Biso   1.000  C
  C57      1.0000 0.77229  0.30229  0.78751  Biso   1.000  C
  C58      1.0000 0.30229  0.53000  0.62084  Biso   1.000  C
  C59      1.0000 0.47000  0.77229  0.95417  Biso   1.000  C
  C60      1.0000 0.22771  0.69771  0.28751  Biso   1.000  C
  H1       1.0000 0.44673  0.39496  0.09466  Biso   1.000  H
  H2       1.0000 0.60504  0.05177  0.42799  Biso   1.000  H
  H3       1.0000 0.94823  0.55327  0.76133  Biso   1.000  H
  H4       1.0000 0.55327  0.60504  0.59466  Biso   1.000  H
  H5       1.0000 0.39496  0.94823  0.92799  Biso   1.000  H
  H6       1.0000 0.05177  0.44673  0.26133  Biso   1.000  H
  H7       1.0000 0.41923  0.45257  0.32309  Biso   1.000  H
  H8       1.0000 0.54743  0.96666  0.65642  Biso   1.000  H
  H9       1.0000 0.03334  0.58077  0.98976  Biso   1.000  H
  H10      1.0000 0.58077  0.54743  0.82309  Biso   1.000  H
  H11      1.0000 0.45257  0.03334  0.15642  Biso   1.000  H
  H12      1.0000 0.96666  0.41923  0.48976  Biso   1.000  H
  H13      1.0000 0.78307  0.48199  0.09134  Biso   1.000  H
  H14      1.0000 0.51801  0.30108  0.42467  Biso   1.000  H
  H15      1.0000 0.69892  0.21693  0.75801  Biso   1.000  H
  H16      1.0000 0.21693  0.51801  0.59134  Biso   1.000  H
  H17      1.0000 0.48199  0.69892  0.92467  Biso   1.000  H
  H18      1.0000 0.30108  0.78307  0.25801  Biso   1.000  H
  H19      1.0000 0.67080  0.39155  0.15873  Biso   1.000  H
  H20      1.0000 0.60845  0.27925  0.49206  Biso   1.000  H
  H21      1.0000 0.72075  0.32920  0.82540  Biso   1.000  H
  H22      1.0000 0.32920  0.60845  0.65873  Biso   1.000  H
  H23      1.0000 0.39155  0.72075  0.99206  Biso   1.000  H
  H24      1.0000 0.27925  0.67080  0.32540  Biso   1.000  H
  H25      1.0000 0.61298  0.44236  0.08697  Biso   1.000  H
  H26      1.0000 0.55764  0.17062  0.42030  Biso   1.000  H
  H27      1.0000 0.82938  0.38702  0.75364  Biso   1.000  H
  H28      1.0000 0.38702  0.55764  0.58697  Biso   1.000  H
  H29      1.0000 0.44236  0.82938  0.92030  Biso   1.000  H
  H30      1.0000 0.17062  0.61298  0.25364  Biso   1.000  H
  H31      1.0000 0.55662  0.83327  0.31613  Biso   1.000  H
  H32      1.0000 0.16673  0.72335  0.64946  Biso   1.000  H
  H33      1.0000 0.27665  0.44338  0.98280  Biso   1.000  H
  H34      1.0000 0.44338  0.16673  0.81613  Biso   1.000  H
  H35      1.0000 0.83327  0.27665  0.14946  Biso   1.000  H
  H36      1.0000 0.72335  0.55662  0.48280  Biso   1.000  H
  H37      1.0000 0.43653  0.71085  0.26012  Biso   1.000  H
  H38      1.0000 0.28915  0.72568  0.59345  Biso   1.000  H
  H39      1.0000 0.27432  0.56347  0.92679  Biso   1.000  H
  H40      1.0000 0.56347  0.28915  0.76012  Biso   1.000  H
  H41      1.0000 0.71085  0.27432  0.09345  Biso   1.000  H
  H42      1.0000 0.72568  0.43653  0.42679  Biso   1.000  H
  H43      1.0000 0.49435  0.66005  0.33189  Biso   1.000  H
  H44      1.0000 0.33995  0.83430  0.66522  Biso   1.000  H
  H45      1.0000 0.16570  0.50565  0.99856  Biso   1.000  H
  H46      1.0000 0.50565  0.33995  0.83189  Biso   1.000  H
  H47      1.0000 0.66005  0.16570  0.16522  Biso   1.000  H
  H48      1.0000 0.83430  0.49435  0.49856  Biso   1.000  H
