data_image0
_cell_length_a       12.794
_cell_length_b       16.937
_cell_length_c       7.1307
_cell_angle_alpha    90
_cell_angle_beta     105.25
_cell_angle_gamma    90

_symmetry_space_group_name_H-M    "P 1"
_symmetry_int_tables_number       1

loop_
  _symmetry_equiv_pos_as_xyz
  'x, y, z'

loop_
  _atom_site_label
  _atom_site_occupancy
  _atom_site_fract_x
  _atom_site_fract_y
  _atom_site_fract_z
  _atom_site_thermal_displace_type
  _atom_site_B_iso_or_equiv
  _atom_site_type_symbol
  Co1      1.0000 0.24009  0.07694  0.44211  Biso   1.000  Co
  Co2      1.0000 0.75991  0.57694  0.05789  Biso   1.000  Co
  Co3      1.0000 0.75991  0.92306  0.55789  Biso   1.000  Co
  Co4      1.0000 0.24009  0.42306  0.94211  Biso   1.000  Co
  O1       1.0000 0.36310  0.05640  0.31920  Biso   1.000  O
  O2       1.0000 0.63690  0.55640  0.18080  Biso   1.000  O
  O3       1.0000 0.63690  0.94360  0.68080  Biso   1.000  O
  O4       1.0000 0.36310  0.44360  0.81920  Biso   1.000  O
  N1       1.0000 0.30050  0.19230  0.52560  Biso   1.000  N
  N2       1.0000 0.69950  0.69230  0.97440  Biso   1.000  N
  N3       1.0000 0.69950  0.80770  0.47440  Biso   1.000  N
  N4       1.0000 0.30050  0.30770  0.02560  Biso   1.000  N
  C1       1.0000 0.39940  0.09620  0.19960  Biso   1.000  C
  C2       1.0000 0.60060  0.59620  0.30040  Biso   1.000  C
  C3       1.0000 0.60060  0.90380  0.80040  Biso   1.000  C
  C4       1.0000 0.39940  0.40380  0.69960  Biso   1.000  C
  Cu1      1.0000 0.22508  0.28432  0.60578  Biso   1.000  Cu
  Cu2      1.0000 0.77492  0.78432  0.89422  Biso   1.000  Cu
  Cu3      1.0000 0.77492  0.71568  0.39422  Biso   1.000  Cu
  Cu4      1.0000 0.22508  0.21568  0.10578  Biso   1.000  Cu
  O5       1.0000 0.35490  0.15520  0.10220  Biso   1.000  O
  O6       1.0000 0.64510  0.65520  0.39780  Biso   1.000  O
  O7       1.0000 0.64510  0.84480  0.89780  Biso   1.000  O
  O8       1.0000 0.35490  0.34480  0.60220  Biso   1.000  O
  N5       1.0000 0.40100  0.19420  0.57570  Biso   1.000  N
  N6       1.0000 0.59900  0.69420  0.92430  Biso   1.000  N
  N7       1.0000 0.59900  0.80580  0.42430  Biso   1.000  N
  N8       1.0000 0.40100  0.30580  0.07570  Biso   1.000  N
  C5       1.0000 0.50940  0.07300  0.17780  Biso   1.000  C
  C6       1.0000 0.49060  0.57300  0.32220  Biso   1.000  C
  C7       1.0000 0.49060  0.92700  0.82220  Biso   1.000  C
  C8       1.0000 0.50940  0.42700  0.67780  Biso   1.000  C
  O9       1.0000 0.10040  0.22400  0.63080  Biso   1.000  O
  O10      1.0000 0.89960  0.72400  0.86920  Biso   1.000  O
  O11      1.0000 0.89960  0.77600  0.36920  Biso   1.000  O
  O12      1.0000 0.10040  0.27600  0.13080  Biso   1.000  O
  N9       1.0000 0.49310  0.19220  0.60650  Biso   1.000  N
  N10      1.0000 0.50690  0.69220  0.89350  Biso   1.000  N
  N11      1.0000 0.50690  0.80780  0.39350  Biso   1.000  N
  N12      1.0000 0.49310  0.30780  0.10650  Biso   1.000  N
  C9       1.0000 0.56130  0.00690  0.28170  Biso   1.000  C
  C10      1.0000 0.43870  0.50690  0.21830  Biso   1.000  C
  C11      1.0000 0.43870  0.99310  0.71830  Biso   1.000  C
  C12      1.0000 0.56130  0.49310  0.78170  Biso   1.000  C
  H1       1.0000 0.52300  0.97730  0.35120  Biso   1.000  H
  H2       1.0000 0.47700  0.47730  0.14880  Biso   1.000  H
  H3       1.0000 0.47700  0.02270  0.64880  Biso   1.000  H
  H4       1.0000 0.52300  0.52270  0.85120  Biso   1.000  H
  O13      1.0000 0.11740  0.09610  0.56720  Biso   1.000  O
  O14      1.0000 0.88260  0.59610  0.93280  Biso   1.000  O
  O15      1.0000 0.88260  0.90390  0.43280  Biso   1.000  O
  O16      1.0000 0.11740  0.40390  0.06720  Biso   1.000  O
  N13      1.0000 0.14840  0.12140  0.15370  Biso   1.000  N
  N14      1.0000 0.85160  0.62140  0.34630  Biso   1.000  N
  N15      1.0000 0.85160  0.87860  0.84630  Biso   1.000  N
  N16      1.0000 0.14840  0.37860  0.65370  Biso   1.000  N
  C13      1.0000 0.71440  0.02630  0.18030  Biso   1.000  C
  C14      1.0000 0.28560  0.52630  0.31970  Biso   1.000  C
  C15      1.0000 0.28560  0.97370  0.81970  Biso   1.000  C
  C16      1.0000 0.71440  0.47370  0.68030  Biso   1.000  C
  H5       1.0000 0.78370  0.01050  0.17810  Biso   1.000  H
  H6       1.0000 0.21630  0.51050  0.32190  Biso   1.000  H
  H7       1.0000 0.21630  0.98950  0.82190  Biso   1.000  H
  H8       1.0000 0.78370  0.48950  0.67810  Biso   1.000  H
  N17      1.0000 0.05040  0.11570  0.12650  Biso   1.000  N
  N18      1.0000 0.94960  0.61570  0.37350  Biso   1.000  N
  N19      1.0000 0.94960  0.88430  0.87350  Biso   1.000  N
  N20      1.0000 0.05040  0.38430  0.62650  Biso   1.000  N
  C17      1.0000 0.66980  0.09170  0.07440  Biso   1.000  C
  C18      1.0000 0.33020  0.59170  0.42560  Biso   1.000  C
  C19      1.0000 0.33020  0.90830  0.92560  Biso   1.000  C
  C20      1.0000 0.66980  0.40830  0.57440  Biso   1.000  C
  H9       1.0000 0.70910  0.11920  0.00300  Biso   1.000  H
  H10      1.0000 0.29090  0.61920  0.49700  Biso   1.000  H
  H11      1.0000 0.29090  0.88080  0.99700  Biso   1.000  H
  H12      1.0000 0.70910  0.38080  0.50300  Biso   1.000  H
  N21      1.0000 0.95890  0.10630  0.10100  Biso   1.000  N
  N22      1.0000 0.04110  0.60630  0.39900  Biso   1.000  N
  N23      1.0000 0.04110  0.89370  0.89900  Biso   1.000  N
  N24      1.0000 0.95890  0.39370  0.60100  Biso   1.000  N
  C21      1.0000 0.56570  0.11670  0.07380  Biso   1.000  C
  C22      1.0000 0.43430  0.61670  0.42620  Biso   1.000  C
  C23      1.0000 0.43430  0.88330  0.92620  Biso   1.000  C
  C24      1.0000 0.56570  0.38330  0.57380  Biso   1.000  C
  H13      1.0000 0.53530  0.16150  0.00540  Biso   1.000  H
  H14      1.0000 0.46470  0.66150  0.49460  Biso   1.000  H
  H15      1.0000 0.46470  0.83850  0.99460  Biso   1.000  H
  H16      1.0000 0.53530  0.33850  0.50540  Biso   1.000  H
  N25      1.0000 0.81850  0.04150  0.62780  Biso   1.000  N
  N26      1.0000 0.18150  0.54150  0.87220  Biso   1.000  N
  N27      1.0000 0.18150  0.95850  0.37220  Biso   1.000  N
  N28      1.0000 0.81850  0.45850  0.12780  Biso   1.000  N
  C25      1.0000 0.06850  0.15370  0.60790  Biso   1.000  C
  C26      1.0000 0.93150  0.65370  0.89210  Biso   1.000  C
  C27      1.0000 0.93150  0.84630  0.39210  Biso   1.000  C
  C28      1.0000 0.06850  0.34630  0.10790  Biso   1.000  C
  N29      1.0000 0.66140  0.98440  0.28680  Biso   1.000  N
  N30      1.0000 0.33860  0.48440  0.21320  Biso   1.000  N
  N31      1.0000 0.33860  0.01560  0.71320  Biso   1.000  N
  N32      1.0000 0.66140  0.51560  0.78680  Biso   1.000  N
  C29      1.0000 0.95430  0.13820  0.62740  Biso   1.000  C
  C30      1.0000 0.04570  0.63820  0.87260  Biso   1.000  C
  C31      1.0000 0.04570  0.86180  0.37260  Biso   1.000  C
  C32      1.0000 0.95430  0.36180  0.12740  Biso   1.000  C
  C33      1.0000 0.88360  0.19920  0.64000  Biso   1.000  C
  C34      1.0000 0.11640  0.69920  0.86000  Biso   1.000  C
  C35      1.0000 0.11640  0.80080  0.36000  Biso   1.000  C
  C36      1.0000 0.88360  0.30080  0.14000  Biso   1.000  C
  H17      1.0000 0.90560  0.25170  0.64510  Biso   1.000  H
  H18      1.0000 0.09440  0.75170  0.85490  Biso   1.000  H
  H19      1.0000 0.09440  0.74830  0.35490  Biso   1.000  H
  H20      1.0000 0.90560  0.24830  0.14510  Biso   1.000  H
  C37      1.0000 0.77890  0.17910  0.64490  Biso   1.000  C
  C38      1.0000 0.22110  0.67910  0.85510  Biso   1.000  C
  C39      1.0000 0.22110  0.82090  0.35510  Biso   1.000  C
  C40      1.0000 0.77890  0.32090  0.14490  Biso   1.000  C
  H21      1.0000 0.72900  0.21820  0.65150  Biso   1.000  H
  H22      1.0000 0.27100  0.71820  0.84850  Biso   1.000  H
  H23      1.0000 0.27100  0.78180  0.34850  Biso   1.000  H
  H24      1.0000 0.72900  0.28180  0.15150  Biso   1.000  H
  C41      1.0000 0.74990  0.10070  0.63980  Biso   1.000  C
  C42      1.0000 0.25010  0.60070  0.86020  Biso   1.000  C
  C43      1.0000 0.25010  0.89930  0.36020  Biso   1.000  C
  C44      1.0000 0.74990  0.39930  0.13980  Biso   1.000  C
  H25      1.0000 0.68000  0.08800  0.64490  Biso   1.000  H
  H26      1.0000 0.32000  0.58800  0.85510  Biso   1.000  H
  H27      1.0000 0.32000  0.91200  0.35510  Biso   1.000  H
  H28      1.0000 0.68000  0.41200  0.14490  Biso   1.000  H
  C45      1.0000 0.91960  0.06100  0.62620  Biso   1.000  C
  C46      1.0000 0.08040  0.56100  0.87380  Biso   1.000  C
  C47      1.0000 0.08040  0.93900  0.37380  Biso   1.000  C
  C48      1.0000 0.91960  0.43900  0.12620  Biso   1.000  C
  H29      1.0000 0.96870  0.02080  0.62420  Biso   1.000  H
  H30      1.0000 0.03130  0.52080  0.87580  Biso   1.000  H
  H31      1.0000 0.03130  0.97920  0.37580  Biso   1.000  H
  H32      1.0000 0.96870  0.47920  0.12420  Biso   1.000  H
