data_image0
_cell_length_a       12.885
_cell_length_b       16.966
_cell_length_c       7.1856
_cell_angle_alpha    90
_cell_angle_beta     105.33
_cell_angle_gamma    90

_symmetry_space_group_name_H-M    "P 1"
_symmetry_int_tables_number       1

loop_
  _symmetry_equiv_pos_as_xyz
  'x, y, z'

loop_
  _atom_site_label
  _atom_site_occupancy
  _atom_site_fract_x
  _atom_site_fract_y
  _atom_site_fract_z
  _atom_site_thermal_displace_type
  _atom_site_B_iso_or_equiv
  _atom_site_type_symbol
  Ni1      1.0000 0.75808  0.92443  0.55372  Biso   1.000  Ni
  Ni2      1.0000 0.24192  0.42443  0.94628  Biso   1.000  Ni
  Ni3      1.0000 0.24192  0.07557  0.44628  Biso   1.000  Ni
  Ni4      1.0000 0.75808  0.57557  0.05372  Biso   1.000  Ni
  O1       1.0000 0.63693  0.94539  0.68160  Biso   1.000  O
  O2       1.0000 0.36307  0.44539  0.81840  Biso   1.000  O
  O3       1.0000 0.36307  0.05461  0.31840  Biso   1.000  O
  O4       1.0000 0.63693  0.55461  0.18160  Biso   1.000  O
  N1       1.0000 0.69700  0.80921  0.46720  Biso   1.000  N
  N2       1.0000 0.30300  0.30921  0.03280  Biso   1.000  N
  N3       1.0000 0.30300  0.19079  0.53280  Biso   1.000  N
  N4       1.0000 0.69700  0.69079  0.96720  Biso   1.000  N
  C1       1.0000 0.60030  0.90510  0.79730  Biso   1.000  C
  C2       1.0000 0.39970  0.40510  0.70270  Biso   1.000  C
  C3       1.0000 0.39970  0.09490  0.20270  Biso   1.000  C
  C4       1.0000 0.60030  0.59490  0.29730  Biso   1.000  C
  Cu1      1.0000 0.77177  0.71662  0.38585  Biso   1.000  Cu
  Cu2      1.0000 0.22823  0.21662  0.11415  Biso   1.000  Cu
  Cu3      1.0000 0.22823  0.28338  0.61415  Biso   1.000  Cu
  Cu4      1.0000 0.77177  0.78338  0.88585  Biso   1.000  Cu
  O5       1.0000 0.64410  0.84546  0.89450  Biso   1.000  O
  O6       1.0000 0.35590  0.34546  0.60550  Biso   1.000  O
  O7       1.0000 0.35590  0.15454  0.10550  Biso   1.000  O
  O8       1.0000 0.64410  0.65454  0.39450  Biso   1.000  O
  N5       1.0000 0.59720  0.80721  0.42530  Biso   1.000  N
  N6       1.0000 0.40280  0.30721  0.07470  Biso   1.000  N
  N7       1.0000 0.40280  0.19279  0.57470  Biso   1.000  N
  N8       1.0000 0.59720  0.69279  0.92530  Biso   1.000  N
  C5       1.0000 0.49010  0.92864  0.81730  Biso   1.000  C
  C6       1.0000 0.50990  0.42864  0.68270  Biso   1.000  C
  C7       1.0000 0.50990  0.07136  0.18270  Biso   1.000  C
  C8       1.0000 0.49010  0.57136  0.31730  Biso   1.000  C
  O9       1.0000 0.89670  0.77713  0.36300  Biso   1.000  O
  O10      1.0000 0.10330  0.27713  0.13700  Biso   1.000  O
  O11      1.0000 0.10330  0.22287  0.63700  Biso   1.000  O
  O12      1.0000 0.89670  0.72287  0.86300  Biso   1.000  O
  N9       1.0000 0.50440  0.80810  0.38990  Biso   1.000  N
  N10      1.0000 0.49560  0.30810  0.11010  Biso   1.000  N
  N11      1.0000 0.49560  0.19190  0.61010  Biso   1.000  N
  N12      1.0000 0.50440  0.69190  0.88990  Biso   1.000  N
  C9       1.0000 0.43840  0.99379  0.71360  Biso   1.000  C
  C10      1.0000 0.56160  0.49379  0.78640  Biso   1.000  C
  C11      1.0000 0.56160  0.00621  0.28640  Biso   1.000  C
  C12      1.0000 0.43840  0.50621  0.21360  Biso   1.000  C
  H1       1.0000 0.47640  0.02370  0.64540  Biso   1.000  H
  H2       1.0000 0.52360  0.52370  0.85460  Biso   1.000  H
  H3       1.0000 0.52360  0.97630  0.35460  Biso   1.000  H
  H4       1.0000 0.47640  0.47630  0.14540  Biso   1.000  H
  O13      1.0000 0.88087  0.90552  0.42780  Biso   1.000  O
  O14      1.0000 0.11913  0.40552  0.07220  Biso   1.000  O
  O15      1.0000 0.11913  0.09448  0.57220  Biso   1.000  O
  O16      1.0000 0.88087  0.59448  0.92780  Biso   1.000  O
  N13      1.0000 0.84820  0.87864  0.82780  Biso   1.000  N
  N14      1.0000 0.15180  0.37864  0.67220  Biso   1.000  N
  N15      1.0000 0.15180  0.12136  0.17220  Biso   1.000  N
  N16      1.0000 0.84820  0.62136  0.32780  Biso   1.000  N
  C13      1.0000 0.28470  0.97400  0.81490  Biso   1.000  C
  C14      1.0000 0.71530  0.47400  0.68510  Biso   1.000  C
  C15      1.0000 0.71530  0.02600  0.18510  Biso   1.000  C
  C16      1.0000 0.28470  0.52600  0.31490  Biso   1.000  C
  H5       1.0000 0.21570  0.98940  0.81660  Biso   1.000  H
  H6       1.0000 0.78430  0.48940  0.68340  Biso   1.000  H
  H7       1.0000 0.78430  0.01060  0.18340  Biso   1.000  H
  H8       1.0000 0.21570  0.51060  0.31660  Biso   1.000  H
  N17      1.0000 0.94570  0.88492  0.86350  Biso   1.000  N
  N18      1.0000 0.05430  0.38492  0.63650  Biso   1.000  N
  N19      1.0000 0.05430  0.11508  0.13650  Biso   1.000  N
  N20      1.0000 0.94570  0.61508  0.36350  Biso   1.000  N
  C17      1.0000 0.33020  0.90930  0.92320  Biso   1.000  C
  C18      1.0000 0.66980  0.40930  0.57680  Biso   1.000  C
  C19      1.0000 0.66980  0.09070  0.07680  Biso   1.000  C
  C20      1.0000 0.33020  0.59070  0.42320  Biso   1.000  C
  H9       1.0000 0.29180  0.88200  0.99540  Biso   1.000  H
  H10      1.0000 0.70820  0.38200  0.50460  Biso   1.000  H
  H11      1.0000 0.70820  0.11800  0.00460  Biso   1.000  H
  H12      1.0000 0.29180  0.61800  0.49540  Biso   1.000  H
  N21      1.0000 0.03740  0.89380  0.89390  Biso   1.000  N
  N22      1.0000 0.96260  0.39380  0.60610  Biso   1.000  N
  N23      1.0000 0.96260  0.10620  0.10610  Biso   1.000  N
  N24      1.0000 0.03740  0.60620  0.39390  Biso   1.000  N
  C21      1.0000 0.43410  0.88500  0.92410  Biso   1.000  C
  C22      1.0000 0.56590  0.38500  0.57590  Biso   1.000  C
  C23      1.0000 0.56590  0.11500  0.07590  Biso   1.000  C
  C24      1.0000 0.43410  0.61500  0.42410  Biso   1.000  C
  H13      1.0000 0.46500  0.84090  0.99390  Biso   1.000  H
  H14      1.0000 0.53500  0.34090  0.50610  Biso   1.000  H
  H15      1.0000 0.53500  0.15910  0.00610  Biso   1.000  H
  H16      1.0000 0.46500  0.65910  0.49390  Biso   1.000  H
  N25      1.0000 0.18130  0.95878  0.37030  Biso   1.000  N
  N26      1.0000 0.81870  0.45878  0.12970  Biso   1.000  N
  N27      1.0000 0.81870  0.04122  0.62970  Biso   1.000  N
  N28      1.0000 0.18130  0.54122  0.87030  Biso   1.000  N
  C25      1.0000 0.92920  0.84770  0.38560  Biso   1.000  C
  C26      1.0000 0.07080  0.34770  0.11440  Biso   1.000  C
  C27      1.0000 0.07080  0.15230  0.61440  Biso   1.000  C
  C28      1.0000 0.92920  0.65230  0.88560  Biso   1.000  C
  N29      1.0000 0.33680  0.01589  0.70620  Biso   1.000  N
  N30      1.0000 0.66320  0.51589  0.79380  Biso   1.000  N
  N31      1.0000 0.66320  0.98411  0.29380  Biso   1.000  N
  N32      1.0000 0.33680  0.48411  0.20620  Biso   1.000  N
  C29      1.0000 0.04220  0.86225  0.36490  Biso   1.000  C
  C30      1.0000 0.95780  0.36225  0.13510  Biso   1.000  C
  C31      1.0000 0.95780  0.13775  0.63510  Biso   1.000  C
  C32      1.0000 0.04220  0.63775  0.86490  Biso   1.000  C
  C33      1.0000 0.11210  0.80140  0.35050  Biso   1.000  C
  C34      1.0000 0.88790  0.30140  0.14950  Biso   1.000  C
  C35      1.0000 0.88790  0.19860  0.64950  Biso   1.000  C
  C36      1.0000 0.11210  0.69860  0.85050  Biso   1.000  C
  H17      1.0000 0.08950  0.74920  0.34480  Biso   1.000  H
  H18      1.0000 0.91050  0.24920  0.15520  Biso   1.000  H
  H19      1.0000 0.91050  0.25080  0.65520  Biso   1.000  H
  H20      1.0000 0.08950  0.75080  0.84480  Biso   1.000  H
  C37      1.0000 0.21690  0.82020  0.34490  Biso   1.000  C
  C38      1.0000 0.78310  0.32020  0.15510  Biso   1.000  C
  C39      1.0000 0.78310  0.17980  0.65510  Biso   1.000  C
  C40      1.0000 0.21690  0.67980  0.84490  Biso   1.000  C
  H21      1.0000 0.26480  0.78070  0.33270  Biso   1.000  H
  H22      1.0000 0.73520  0.28070  0.16730  Biso   1.000  H
  H23      1.0000 0.73520  0.21930  0.66730  Biso   1.000  H
  H24      1.0000 0.26480  0.71930  0.83270  Biso   1.000  H
  C41      1.0000 0.24860  0.89890  0.35760  Biso   1.000  C
  C42      1.0000 0.75140  0.39890  0.14240  Biso   1.000  C
  C43      1.0000 0.75140  0.10110  0.64240  Biso   1.000  C
  C44      1.0000 0.24860  0.60110  0.85760  Biso   1.000  C
  H25      1.0000 0.31900  0.91090  0.35750  Biso   1.000  H
  H26      1.0000 0.68100  0.41090  0.14250  Biso   1.000  H
  H27      1.0000 0.68100  0.08910  0.64250  Biso   1.000  H
  H28      1.0000 0.31900  0.58910  0.85750  Biso   1.000  H
  C45      1.0000 0.08020  0.93965  0.37140  Biso   1.000  C
  C46      1.0000 0.91980  0.43965  0.12860  Biso   1.000  C
  C47      1.0000 0.91980  0.06035  0.62860  Biso   1.000  C
  C48      1.0000 0.08020  0.56035  0.87140  Biso   1.000  C
  H29      1.0000 0.03280  0.98030  0.37690  Biso   1.000  H
  H30      1.0000 0.96720  0.48030  0.12310  Biso   1.000  H
  H31      1.0000 0.96720  0.01970  0.62310  Biso   1.000  H
  H32      1.0000 0.03280  0.51970  0.87690  Biso   1.000  H
