data_image0
_cell_length_a       11.3822
_cell_length_b       11.1231
_cell_length_c       15.3382
_cell_angle_alpha    90
_cell_angle_beta     105.212
_cell_angle_gamma    90

_symmetry_space_group_name_H-M    "P 1"
_symmetry_int_tables_number       1

loop_
  _symmetry_equiv_pos_as_xyz
  'x, y, z'

loop_
  _atom_site_label
  _atom_site_occupancy
  _atom_site_fract_x
  _atom_site_fract_y
  _atom_site_fract_z
  _atom_site_thermal_displace_type
  _atom_site_B_iso_or_equiv
  _atom_site_type_symbol
  Cu1      1.0000 0.29582  0.08830  0.00683  Biso   1.000  Cu
  Cu2      1.0000 0.20418  0.58830  0.49317  Biso   1.000  Cu
  Cu3      1.0000 0.70418  0.91170  0.99317  Biso   1.000  Cu
  Cu4      1.0000 0.79582  0.41170  0.50683  Biso   1.000  Cu
  S1       1.0000 0.28663  0.40743  0.04268  Biso   1.000  S
  S2       1.0000 0.21337  0.90743  0.45732  Biso   1.000  S
  S3       1.0000 0.71337  0.59257  0.95732  Biso   1.000  S
  S4       1.0000 0.78663  0.09257  0.54268  Biso   1.000  S
  P1       1.0000 0.03249  0.54180  0.63395  Biso   1.000  P
  P2       1.0000 0.46751  0.04180  0.86605  Biso   1.000  P
  P3       1.0000 0.96751  0.45820  0.36605  Biso   1.000  P
  P4       1.0000 0.53249  0.95820  0.13395  Biso   1.000  P
  N1       1.0000 0.18250  0.09841  0.08752  Biso   1.000  N
  N2       1.0000 0.31750  0.59841  0.41248  Biso   1.000  N
  N3       1.0000 0.81750  0.90159  0.91248  Biso   1.000  N
  N4       1.0000 0.68250  0.40159  0.58752  Biso   1.000  N
  N5       1.0000 0.14376  0.13762  0.91307  Biso   1.000  N
  N6       1.0000 0.35624  0.63762  0.58693  Biso   1.000  N
  N7       1.0000 0.85624  0.86238  0.08693  Biso   1.000  N
  N8       1.0000 0.64376  0.36238  0.41307  Biso   1.000  N
  O1       1.0000 0.34719  0.29200  0.03903  Biso   1.000  O
  O2       1.0000 0.15281  0.79200  0.46097  Biso   1.000  O
  O3       1.0000 0.65281  0.70800  0.96097  Biso   1.000  O
  O4       1.0000 0.84719  0.20800  0.53903  Biso   1.000  O
  O5       1.0000 0.37691  0.50076  0.07314  Biso   1.000  O
  O6       1.0000 0.12309  0.00076  0.42686  Biso   1.000  O
  O7       1.0000 0.62309  0.49924  0.92686  Biso   1.000  O
  O8       1.0000 0.87691  0.99924  0.57314  Biso   1.000  O
  O9       1.0000 0.19440  0.40147  0.09090  Biso   1.000  O
  O10      1.0000 0.30560  0.90147  0.40910  Biso   1.000  O
  O11      1.0000 0.80560  0.59853  0.90910  Biso   1.000  O
  O12      1.0000 0.69440  0.09853  0.59090  Biso   1.000  O
  O13      1.0000 0.92876  0.45668  0.60555  Biso   1.000  O
  O14      1.0000 0.57124  0.95668  0.89445  Biso   1.000  O
  O15      1.0000 0.07124  0.54332  0.39445  Biso   1.000  O
  O16      1.0000 0.42876  0.04332  0.10555  Biso   1.000  O
  O17      1.0000 0.98644  0.67257  0.63698  Biso   1.000  O
  O18      1.0000 0.51356  0.17257  0.86302  Biso   1.000  O
  O19      1.0000 0.01356  0.32743  0.36302  Biso   1.000  O
  O20      1.0000 0.48644  0.82743  0.13698  Biso   1.000  O
  O21      1.0000 0.12808  0.53421  0.58349  Biso   1.000  O
  O22      1.0000 0.37192  0.03421  0.91651  Biso   1.000  O
  O23      1.0000 0.87192  0.46579  0.41651  Biso   1.000  O
  O24      1.0000 0.62808  0.96579  0.08349  Biso   1.000  O
  O25      1.0000 0.42105  0.70687  0.98968  Biso   1.000  O
  O26      1.0000 0.07895  0.20687  0.51032  Biso   1.000  O
  O27      1.0000 0.57895  0.29313  0.01032  Biso   1.000  O
  O28      1.0000 0.92105  0.79313  0.48968  Biso   1.000  O
  C1       1.0000 0.20670  0.07930  0.17596  Biso   1.000  C
  C2       1.0000 0.29330  0.57930  0.32404  Biso   1.000  C
  C3       1.0000 0.79330  0.92070  0.82404  Biso   1.000  C
  C4       1.0000 0.70670  0.42070  0.67596  Biso   1.000  C
  C5       1.0000 0.11980  0.10030  0.22444  Biso   1.000  C
  C6       1.0000 0.38020  0.60030  0.27556  Biso   1.000  C
  C7       1.0000 0.88020  0.89970  0.77556  Biso   1.000  C
  C8       1.0000 0.61980  0.39970  0.72444  Biso   1.000  C
  C9       1.0000 0.00630  0.13900  0.17975  Biso   1.000  C
  C10      1.0000 0.49370  0.63900  0.32025  Biso   1.000  C
  C11      1.0000 0.99370  0.86100  0.82025  Biso   1.000  C
  C12      1.0000 0.50630  0.36100  0.67975  Biso   1.000  C
  C13      1.0000 0.97611  0.15630  0.08624  Biso   1.000  C
  C14      1.0000 0.52389  0.65630  0.41376  Biso   1.000  C
  C15      1.0000 0.02389  0.84370  0.91376  Biso   1.000  C
  C16      1.0000 0.47611  0.34370  0.58624  Biso   1.000  C
  C17      1.0000 0.85890  0.19310  0.03180  Biso   1.000  C
  C18      1.0000 0.64110  0.69310  0.46820  Biso   1.000  C
  C19      1.0000 0.14110  0.80690  0.96820  Biso   1.000  C
  C20      1.0000 0.35890  0.30690  0.53180  Biso   1.000  C
  C21      1.0000 0.83850  0.20910  0.94220  Biso   1.000  C
  C22      1.0000 0.66150  0.70910  0.55780  Biso   1.000  C
  C23      1.0000 0.16150  0.79090  0.05780  Biso   1.000  C
  C24      1.0000 0.33850  0.29090  0.44220  Biso   1.000  C
  C25      1.0000 0.93228  0.19230  0.89679  Biso   1.000  C
  C26      1.0000 0.56772  0.69230  0.60321  Biso   1.000  C
  C27      1.0000 0.06772  0.80770  0.10321  Biso   1.000  C
  C28      1.0000 0.43228  0.30770  0.39679  Biso   1.000  C
  C29      1.0000 0.91910  0.20930  0.80425  Biso   1.000  C
  C30      1.0000 0.58090  0.70930  0.69575  Biso   1.000  C
  C31      1.0000 0.08090  0.79070  0.19575  Biso   1.000  C
  C32      1.0000 0.41910  0.29070  0.30425  Biso   1.000  C
  C33      1.0000 0.01590  0.19470  0.76885  Biso   1.000  C
  C34      1.0000 0.48410  0.69470  0.73115  Biso   1.000  C
  C35      1.0000 0.98410  0.80530  0.23115  Biso   1.000  C
  C36      1.0000 0.51590  0.30530  0.26885  Biso   1.000  C
  C37      1.0000 0.12800  0.15860  0.82514  Biso   1.000  C
  C38      1.0000 0.37200  0.65860  0.67486  Biso   1.000  C
  C39      1.0000 0.87200  0.84140  0.17486  Biso   1.000  C
  C40      1.0000 0.62800  0.34140  0.32514  Biso   1.000  C
  C41      1.0000 0.04780  0.15539  0.94851  Biso   1.000  C
  C42      1.0000 0.45220  0.65539  0.55149  Biso   1.000  C
  C43      1.0000 0.95220  0.84461  0.05149  Biso   1.000  C
  C44      1.0000 0.54780  0.34461  0.44851  Biso   1.000  C
  C45      1.0000 0.06921  0.13596  0.04337  Biso   1.000  C
  C46      1.0000 0.43079  0.63596  0.45663  Biso   1.000  C
  C47      1.0000 0.93079  0.86404  0.95663  Biso   1.000  C
  C48      1.0000 0.56921  0.36404  0.54337  Biso   1.000  C
  C49      1.0000 0.21317  0.44406  0.92878  Biso   1.000  C
  C50      1.0000 0.28683  0.94406  0.57122  Biso   1.000  C
  C51      1.0000 0.78683  0.55594  0.07122  Biso   1.000  C
  C52      1.0000 0.71317  0.05594  0.42878  Biso   1.000  C
  C53      1.0000 0.10107  0.50140  0.90714  Biso   1.000  C
  C54      1.0000 0.39893  0.00140  0.59286  Biso   1.000  C
  C55      1.0000 0.89893  0.49860  0.09286  Biso   1.000  C
  C56      1.0000 0.60107  0.99860  0.40714  Biso   1.000  C
  C57      1.0000 0.04695  0.53392  0.81815  Biso   1.000  C
  C58      1.0000 0.45305  0.03392  0.68185  Biso   1.000  C
  C59      1.0000 0.95305  0.46608  0.18185  Biso   1.000  C
  C60      1.0000 0.54695  0.96608  0.31815  Biso   1.000  C
  C61      1.0000 0.10349  0.50790  0.75006  Biso   1.000  C
  C62      1.0000 0.39651  0.00790  0.74994  Biso   1.000  C
  C63      1.0000 0.89651  0.49210  0.24994  Biso   1.000  C
  C64      1.0000 0.60349  0.99210  0.25006  Biso   1.000  C
  C65      1.0000 0.21623  0.45000  0.77313  Biso   1.000  C
  C66      1.0000 0.28377  0.95000  0.72687  Biso   1.000  C
  C67      1.0000 0.78377  0.55000  0.22687  Biso   1.000  C
  C68      1.0000 0.71623  0.05000  0.27313  Biso   1.000  C
  C69      1.0000 0.27090  0.41840  0.86182  Biso   1.000  C
  C70      1.0000 0.22910  0.91840  0.63818  Biso   1.000  C
  C71      1.0000 0.72910  0.58160  0.13818  Biso   1.000  C
  C72      1.0000 0.77090  0.08160  0.36182  Biso   1.000  C
  H1       1.0000 0.29010  0.05530  0.20780  Biso   1.000  H
  H2       1.0000 0.20990  0.55530  0.29220  Biso   1.000  H
  H3       1.0000 0.70990  0.94470  0.79220  Biso   1.000  H
  H4       1.0000 0.79010  0.44470  0.70780  Biso   1.000  H
  H5       1.0000 0.14050  0.09050  0.29120  Biso   1.000  H
  H6       1.0000 0.35950  0.59050  0.20880  Biso   1.000  H
  H7       1.0000 0.85950  0.90950  0.70880  Biso   1.000  H
  H8       1.0000 0.64050  0.40950  0.79120  Biso   1.000  H
  H9       1.0000 0.94740  0.15860  0.20810  Biso   1.000  H
  H10      1.0000 0.55260  0.65860  0.29190  Biso   1.000  H
  H11      1.0000 0.05260  0.84140  0.79190  Biso   1.000  H
  H12      1.0000 0.44740  0.34140  0.70810  Biso   1.000  H
  H13      1.0000 0.79870  0.20920  0.06570  Biso   1.000  H
  H14      1.0000 0.70130  0.70920  0.43430  Biso   1.000  H
  H15      1.0000 0.20130  0.79080  0.93430  Biso   1.000  H
  H16      1.0000 0.29870  0.29080  0.56570  Biso   1.000  H
  H17      1.0000 0.76150  0.23030  0.90590  Biso   1.000  H
  H18      1.0000 0.73850  0.73030  0.59410  Biso   1.000  H
  H19      1.0000 0.23850  0.76970  0.09410  Biso   1.000  H
  H20      1.0000 0.26150  0.26970  0.40590  Biso   1.000  H
  H21      1.0000 0.84210  0.22930  0.76870  Biso   1.000  H
  H22      1.0000 0.65790  0.72930  0.73130  Biso   1.000  H
  H23      1.0000 0.15790  0.77070  0.23130  Biso   1.000  H
  H24      1.0000 0.34210  0.27070  0.26870  Biso   1.000  H
  H25      1.0000 0.01280  0.20170  0.70590  Biso   1.000  H
  H26      1.0000 0.48720  0.70170  0.79410  Biso   1.000  H
  H27      1.0000 0.98720  0.79830  0.29410  Biso   1.000  H
  H28      1.0000 0.51280  0.29830  0.20590  Biso   1.000  H
  H29      1.0000 0.20130  0.14570  0.80090  Biso   1.000  H
  H30      1.0000 0.29870  0.64570  0.69910  Biso   1.000  H
  H31      1.0000 0.79870  0.85430  0.19910  Biso   1.000  H
  H32      1.0000 0.70130  0.35430  0.30090  Biso   1.000  H
  H33      1.0000 0.06520  0.51580  0.95210  Biso   1.000  H
  H34      1.0000 0.43480  0.01580  0.54790  Biso   1.000  H
  H35      1.0000 0.93480  0.48420  0.04790  Biso   1.000  H
  H36      1.0000 0.56520  0.98420  0.45210  Biso   1.000  H
  H37      1.0000 0.97240  0.57710  0.80310  Biso   1.000  H
  H38      1.0000 0.52760  0.07710  0.69690  Biso   1.000  H
  H39      1.0000 0.02760  0.42290  0.19690  Biso   1.000  H
  H40      1.0000 0.47240  0.92290  0.30310  Biso   1.000  H
  H41      1.0000 0.25710  0.42900  0.72750  Biso   1.000  H
  H42      1.0000 0.24290  0.92900  0.77250  Biso   1.000  H
  H43      1.0000 0.74290  0.57100  0.27250  Biso   1.000  H
  H44      1.0000 0.75710  0.07100  0.22750  Biso   1.000  H
  H45      1.0000 0.34730  0.37020  0.87970  Biso   1.000  H
  H46      1.0000 0.15270  0.87020  0.62030  Biso   1.000  H
  H47      1.0000 0.65270  0.62980  0.12030  Biso   1.000  H
  H48      1.0000 0.84730  0.12980  0.37970  Biso   1.000  H
  H49      1.0000 0.96210  0.70650  0.58090  Biso   1.000  H
  H50      1.0000 0.53790  0.20650  0.91910  Biso   1.000  H
  H51      1.0000 0.03790  0.29350  0.41910  Biso   1.000  H
  H52      1.0000 0.46210  0.79350  0.08090  Biso   1.000  H
  H53      1.0000 0.48730  0.70090  0.96840  Biso   1.000  H
  H54      1.0000 0.01270  0.20090  0.53160  Biso   1.000  H
  H55      1.0000 0.51270  0.29910  0.03160  Biso   1.000  H
  H56      1.0000 0.98730  0.79910  0.46840  Biso   1.000  H
  H57      1.0000 0.41350  0.63190  0.00940  Biso   1.000  H
  H58      1.0000 0.08650  0.13190  0.49060  Biso   1.000  H
  H59      1.0000 0.58650  0.36810  0.99060  Biso   1.000  H
  H60      1.0000 0.91350  0.86810  0.50940  Biso   1.000  H
