data_image0
_cell_length_a       10.1238
_cell_length_b       10.4815
_cell_length_c       13.143
_cell_angle_alpha    69.569
_cell_angle_beta     75.034
_cell_angle_gamma    63.557

_symmetry_space_group_name_H-M    "P 1"
_symmetry_int_tables_number       1

loop_
  _symmetry_equiv_pos_as_xyz
  'x, y, z'

loop_
  _atom_site_label
  _atom_site_occupancy
  _atom_site_fract_x
  _atom_site_fract_y
  _atom_site_fract_z
  _atom_site_thermal_displace_type
  _atom_site_B_iso_or_equiv
  _atom_site_type_symbol
  Cu1      1.0000 0.96707  0.12749  0.05461  Biso   1.000  Cu
  Cu2      1.0000 0.03293  0.87251  0.94539  Biso   1.000  Cu
  P1       1.0000 0.70266  0.18682  0.93516  Biso   1.000  P
  P2       1.0000 0.29734  0.81318  0.06484  Biso   1.000  P
  P3       1.0000 0.73083  0.11258  0.26210  Biso   1.000  P
  P4       1.0000 0.26917  0.88742  0.73790  Biso   1.000  P
  P5       1.0000 0.61198  0.54804  0.58913  Biso   1.000  P
  P6       1.0000 0.38802  0.45196  0.41087  Biso   1.000  P
  O1       1.0000 0.85518  0.08751  0.97433  Biso   1.000  O
  O2       1.0000 0.14482  0.91249  0.02567  Biso   1.000  O
  O3       1.0000 0.62204  0.30893  0.99673  Biso   1.000  O
  O4       1.0000 0.37796  0.69107  0.00327  Biso   1.000  O
  O5       1.0000 0.70833  0.25572  0.81371  Biso   1.000  O
  O6       1.0000 0.29167  0.74428  0.18629  Biso   1.000  O
  O7       1.0000 0.87428  0.04301  0.19428  Biso   1.000  O
  O8       1.0000 0.12572  0.95699  0.80572  Biso   1.000  O
  O9       1.0000 0.59824  0.21672  0.20239  Biso   1.000  O
  O10      1.0000 0.40176  0.78328  0.79761  Biso   1.000  O
  O11      1.0000 0.76444  0.19120  0.32935  Biso   1.000  O
  O12      1.0000 0.23556  0.80880  0.67065  Biso   1.000  O
  O13      1.0000 0.44820  0.58003  0.60924  Biso   1.000  O
  O14      1.0000 0.55180  0.41997  0.39076  Biso   1.000  O
  O15      1.0000 0.69140  0.49368  0.68906  Biso   1.000  O
  O16      1.0000 0.30860  0.50632  0.31094  Biso   1.000  O
  O17      1.0000 0.69620  0.42952  0.52282  Biso   1.000  O
  O18      1.0000 0.30380  0.57048  0.47718  Biso   1.000  O
  N1       1.0000 0.08044  0.17711  0.12860  Biso   1.000  N
  N2       1.0000 0.91956  0.82289  0.87140  Biso   1.000  N
  N3       1.0000 0.03588  0.26432  0.92206  Biso   1.000  N
  N4       1.0000 0.96412  0.73568  0.07794  Biso   1.000  N
  C1       1.0000 0.59271  0.07743  0.97040  Biso   1.000  C
  C2       1.0000 0.40729  0.92257  0.02960  Biso   1.000  C
  C3       1.0000 0.69190  0.95980  0.36132  Biso   1.000  C
  C4       1.0000 0.30810  0.04020  0.63868  Biso   1.000  C
  C5       1.0000 0.64010  0.71250  0.50538  Biso   1.000  C
  C6       1.0000 0.35990  0.28750  0.49462  Biso   1.000  C
  C7       1.0000 0.79410  0.85440  0.43320  Biso   1.000  C
  C8       1.0000 0.20590  0.14560  0.56680  Biso   1.000  C
  C9       1.0000 0.76810  0.73260  0.50437  Biso   1.000  C
  C10      1.0000 0.23190  0.26740  0.49563  Biso   1.000  C
  C11      1.0000 0.53780  0.81890  0.43490  Biso   1.000  C
  C12      1.0000 0.46220  0.18110  0.56510  Biso   1.000  C
  C13      1.0000 0.56390  0.94170  0.36346  Biso   1.000  C
  C14      1.0000 0.43610  0.05830  0.63654  Biso   1.000  C
  C15      1.0000 0.01760  0.30040  0.81746  Biso   1.000  C
  C16      1.0000 0.98240  0.69960  0.18254  Biso   1.000  C
  C17      1.0000 0.07290  0.39890  0.73583  Biso   1.000  C
  C18      1.0000 0.92710  0.60110  0.26417  Biso   1.000  C
  C19      1.0000 0.14890  0.46100  0.76200  Biso   1.000  C
  C20      1.0000 0.85110  0.53900  0.23800  Biso   1.000  C
  C21      1.0000 0.17170  0.42400  0.87200  Biso   1.000  C
  C22      1.0000 0.82830  0.57600  0.12800  Biso   1.000  C
  C23      1.0000 0.25330  0.47790  0.91000  Biso   1.000  C
  C24      1.0000 0.74670  0.52210  0.09000  Biso   1.000  C
  C25      1.0000 0.27540  0.43320  0.01590  Biso   1.000  C
  C26      1.0000 0.72460  0.56680  0.98410  Biso   1.000  C
  C27      1.0000 0.21980  0.32860  0.09490  Biso   1.000  C
  C28      1.0000 0.78020  0.67140  0.90510  Biso   1.000  C
  C29      1.0000 0.24320  0.27180  0.20600  Biso   1.000  C
  C30      1.0000 0.75680  0.72820  0.79400  Biso   1.000  C
  C31      1.0000 0.18860  0.16960  0.27270  Biso   1.000  C
  C32      1.0000 0.81140  0.83040  0.72730  Biso   1.000  C
  C33      1.0000 0.10680  0.12380  0.23202  Biso   1.000  C
  C34      1.0000 0.89320  0.87620  0.76798  Biso   1.000  C
  C35      1.0000 0.13710  0.27680  0.06005  Biso   1.000  C
  C36      1.0000 0.86290  0.72320  0.93995  Biso   1.000  C
  C37      1.0000 0.11290  0.32460  0.94877  Biso   1.000  C
  C38      1.0000 0.88710  0.67540  0.05123  Biso   1.000  C
  C39      1.0000 0.50330  0.09770  0.89638  Biso   1.000  C
  C40      1.0000 0.49670  0.90230  0.10362  Biso   1.000  C
  C41      1.0000 0.58890  0.97930  0.07406  Biso   1.000  C
  C42      1.0000 0.41110  0.02070  0.92594  Biso   1.000  C
  O19      1.0000 0.11120  0.87620  0.46450  Biso   1.000  O
  O20      1.0000 0.88880  0.12380  0.53550  Biso   1.000  O
  H1       1.0000 0.49360  0.01700  0.31160  Biso   1.000  H
  H2       1.0000 0.50640  0.98300  0.68840  Biso   1.000  H
  H3       1.0000 0.44660  0.80590  0.43830  Biso   1.000  H
  H4       1.0000 0.55340  0.19410  0.56170  Biso   1.000  H
  H5       1.0000 0.83510  0.65680  0.55050  Biso   1.000  H
  H6       1.0000 0.16490  0.34320  0.44950  Biso   1.000  H
  H7       1.0000 0.88680  0.86910  0.43380  Biso   1.000  H
  H8       1.0000 0.11320  0.13090  0.56620  Biso   1.000  H
  H9       1.0000 0.96110  0.25500  0.80250  Biso   1.000  H
  H10      1.0000 0.03890  0.74500  0.19750  Biso   1.000  H
  H11      1.0000 0.05450  0.41820  0.66220  Biso   1.000  H
  H12      1.0000 0.94550  0.58180  0.33780  Biso   1.000  H
  H13      1.0000 0.18610  0.52090  0.70940  Biso   1.000  H
  H14      1.0000 0.81390  0.47910  0.29060  Biso   1.000  H
  H15      1.0000 0.29250  0.54160  0.85820  Biso   1.000  H
  H16      1.0000 0.70750  0.45840  0.14180  Biso   1.000  H
  H17      1.0000 0.32420  0.47610  0.04390  Biso   1.000  H
  H18      1.0000 0.67580  0.52390  0.95610  Biso   1.000  H
  H19      1.0000 0.29630  0.30370  0.23070  Biso   1.000  H
  H20      1.0000 0.70370  0.69630  0.76930  Biso   1.000  H
  H21      1.0000 0.19270  0.13360  0.34190  Biso   1.000  H
  H22      1.0000 0.80730  0.86640  0.65810  Biso   1.000  H
  H23      1.0000 0.06500  0.06010  0.27740  Biso   1.000  H
  H24      1.0000 0.93500  0.93990  0.72260  Biso   1.000  H
  H25      1.0000 0.65960  0.96050  0.12950  Biso   1.000  H
  H26      1.0000 0.34040  0.03950  0.87050  Biso   1.000  H
  H27      1.0000 0.50130  0.17310  0.82040  Biso   1.000  H
  H28      1.0000 0.49870  0.82690  0.17960  Biso   1.000  H
  H29      1.0000 0.64210  0.42850  0.48870  Biso   1.000  H
  H30      1.0000 0.35790  0.57150  0.51130  Biso   1.000  H
  H31      1.0000 0.68740  0.25830  0.35150  Biso   1.000  H
  H32      1.0000 0.31260  0.74170  0.64850  Biso   1.000  H
  H33      1.0000 0.60690  0.28280  0.07240  Biso   1.000  H
  H34      1.0000 0.39310  0.71720  0.92760  Biso   1.000  H
  H35      1.0000 0.69870  0.37570  0.75080  Biso   1.000  H
  H36      1.0000 0.30130  0.62430  0.24920  Biso   1.000  H
