data_image0
_cell_length_a       9.143
_cell_length_b       9.4
_cell_length_c       11.457
_cell_angle_alpha    101.379
_cell_angle_beta     91.586
_cell_angle_gamma    114.862

_symmetry_space_group_name_H-M    "P 1"
_symmetry_int_tables_number       1

loop_
  _symmetry_equiv_pos_as_xyz
  'x, y, z'

loop_
  _atom_site_label
  _atom_site_occupancy
  _atom_site_fract_x
  _atom_site_fract_y
  _atom_site_fract_z
  _atom_site_thermal_displace_type
  _atom_site_B_iso_or_equiv
  _atom_site_type_symbol
  Cu1      1.0000 0.81255  0.55583  0.37058  Biso   1.000  Cu
  Cu2      1.0000 0.18745  0.44417  0.62942  Biso   1.000  Cu
  P1       1.0000 0.84274  0.28221  0.47920  Biso   1.000  P
  P2       1.0000 0.15726  0.71779  0.52080  Biso   1.000  P
  P3       1.0000 0.81869  0.34008  0.07954  Biso   1.000  P
  P4       1.0000 0.18131  0.65992  0.92046  Biso   1.000  P
  O1       1.0000 0.80796  0.42575  0.48303  Biso   1.000  O
  O2       1.0000 0.19204  0.57425  0.51697  Biso   1.000  O
  O3       1.0000 0.89217  0.22801  0.35500  Biso   1.000  O
  O4       1.0000 0.10783  0.77199  0.64500  Biso   1.000  O
  O5       1.0000 0.96214  0.29713  0.57953  Biso   1.000  O
  O6       1.0000 0.03786  0.70287  0.42047  Biso   1.000  O
  O7       1.0000 0.79878  0.46016  0.02009  Biso   1.000  O
  O8       1.0000 0.20122  0.53984  0.97991  Biso   1.000  O
  O9       1.0000 0.84219  0.38427  0.21526  Biso   1.000  O
  O10      1.0000 0.15781  0.61573  0.78474  Biso   1.000  O
  O11      1.0000 0.95903  0.29898  0.03213  Biso   1.000  O
  O12      1.0000 0.04097  0.70102  0.96787  Biso   1.000  O
  N1       1.0000 0.79099  0.69353  0.26563  Biso   1.000  N
  N2       1.0000 0.20901  0.30647  0.73437  Biso   1.000  N
  N3       1.0000 0.56780  0.45679  0.33534  Biso   1.000  N
  N4       1.0000 0.43220  0.54321  0.66466  Biso   1.000  N
  C1       1.0000 0.65306  0.11920  0.49113  Biso   1.000  C
  C2       1.0000 0.34694  0.88080  0.50887  Biso   1.000  C
  C3       1.0000 0.57430  0.98410  0.39745  Biso   1.000  C
  C4       1.0000 0.42570  0.01590  0.60255  Biso   1.000  C
  C5       1.0000 0.57770  0.13360  0.59367  Biso   1.000  C
  C6       1.0000 0.42230  0.86640  0.40633  Biso   1.000  C
  C7       1.0000 0.64019  0.14837  0.03440  Biso   1.000  C
  C8       1.0000 0.35981  0.85163  0.96560  Biso   1.000  C
  C9       1.0000 0.53329  0.09049  0.11654  Biso   1.000  C
  C10      1.0000 0.46671  0.90951  0.88346  Biso   1.000  C
  C11      1.0000 0.60485  0.05569  0.91718  Biso   1.000  C
  C12      1.0000 0.39515  0.94431  0.08282  Biso   1.000  C
  C13      1.0000 0.91420  0.81430  0.23581  Biso   1.000  C
  C14      1.0000 0.08580  0.18570  0.76419  Biso   1.000  C
  C15      1.0000 0.89220  0.88710  0.14718  Biso   1.000  C
  C16      1.0000 0.10780  0.11290  0.85282  Biso   1.000  C
  C17      1.0000 0.73890  0.83130  0.08788  Biso   1.000  C
  C18      1.0000 0.26110  0.16870  0.91212  Biso   1.000  C
  C19      1.0000 0.61020  0.70610  0.11782  Biso   1.000  C
  C20      1.0000 0.38980  0.29390  0.88218  Biso   1.000  C
  C21      1.0000 0.63970  0.63970  0.20802  Biso   1.000  C
  C22      1.0000 0.36030  0.36030  0.79198  Biso   1.000  C
  C23      1.0000 0.51320  0.50850  0.24997  Biso   1.000  C
  C24      1.0000 0.48680  0.49150  0.75003  Biso   1.000  C
  C25      1.0000 0.34820  0.44380  0.20902  Biso   1.000  C
  C26      1.0000 0.65180  0.55620  0.79098  Biso   1.000  C
  C27      1.0000 0.23870  0.32550  0.25860  Biso   1.000  C
  C28      1.0000 0.76130  0.67450  0.74140  Biso   1.000  C
  C29      1.0000 0.29440  0.27530  0.34700  Biso   1.000  C
  C30      1.0000 0.70560  0.72470  0.65300  Biso   1.000  C
  C31      1.0000 0.46030  0.34250  0.38295  Biso   1.000  C
  C32      1.0000 0.53970  0.65750  0.61705  Biso   1.000  C
  H1       1.0000 0.67400  0.09370  0.86180  Biso   1.000  H
  H2       1.0000 0.32600  0.90630  0.13820  Biso   1.000  H
  H3       1.0000 0.01500  0.85380  0.28270  Biso   1.000  H
  H4       1.0000 0.98500  0.14620  0.71730  Biso   1.000  H
  H5       1.0000 0.62890  0.21970  0.65620  Biso   1.000  H
  H6       1.0000 0.37110  0.78030  0.34380  Biso   1.000  H
  H7       1.0000 0.55490  0.15760  0.19710  Biso   1.000  H
  H8       1.0000 0.44510  0.84240  0.80290  Biso   1.000  H
  H9       1.0000 0.50080  0.31070  0.44020  Biso   1.000  H
  H10      1.0000 0.49920  0.68930  0.55980  Biso   1.000  H
  H11      1.0000 0.72130  0.88690  0.02690  Biso   1.000  H
  H12      1.0000 0.27870  0.11310  0.97310  Biso   1.000  H
  H13      1.0000 0.62280  0.97530  0.33020  Biso   1.000  H
  H14      1.0000 0.37720  0.02470  0.66980  Biso   1.000  H
  H15      1.0000 0.13650  0.29880  0.24180  Biso   1.000  H
  H16      1.0000 0.86350  0.70120  0.75820  Biso   1.000  H
  H17      1.0000 0.98960  0.97160  0.12840  Biso   1.000  H
  H18      1.0000 0.01040  0.02840  0.87160  Biso   1.000  H
  H19      1.0000 0.50050  0.66530  0.07660  Biso   1.000  H
  H20      1.0000 0.49950  0.33470  0.92340  Biso   1.000  H
  H21      1.0000 0.30780  0.47960  0.15230  Biso   1.000  H
  H22      1.0000 0.69220  0.52040  0.84770  Biso   1.000  H
  H23      1.0000 0.22460  0.20750  0.38890  Biso   1.000  H
  H24      1.0000 0.77540  0.79250  0.61110  Biso   1.000  H
  H25      1.0000 0.87500  0.28140  0.30220  Biso   1.000  H
  H26      1.0000 0.12500  0.71860  0.69780  Biso   1.000  H
  H27      1.0000 0.03940  0.38340  0.01420  Biso   1.000  H
  H28      1.0000 0.96060  0.61660  0.98580  Biso   1.000  H
