data_image0
_cell_length_a       9.708
_cell_length_b       14.111
_cell_length_c       16.579
_cell_angle_alpha    72.751
_cell_angle_beta     87.723
_cell_angle_gamma    71.095

_symmetry_space_group_name_H-M    "P 1"
_symmetry_int_tables_number       1

loop_
  _symmetry_equiv_pos_as_xyz
  'x, y, z'

loop_
  _atom_site_label
  _atom_site_occupancy
  _atom_site_fract_x
  _atom_site_fract_y
  _atom_site_fract_z
  _atom_site_thermal_displace_type
  _atom_site_B_iso_or_equiv
  _atom_site_type_symbol
  Cu1      1.0000 0.13284  0.00201  0.00130  Biso   1.000  Cu
  Cu2      1.0000 0.86716  0.99799  0.99870  Biso   1.000  Cu
  N1       1.0000 0.35730  0.00050  0.00103  Biso   1.000  N
  N2       1.0000 0.64270  0.99950  0.99897  Biso   1.000  N
  O1       1.0000 0.08440  0.08500  0.88179  Biso   1.000  O
  O2       1.0000 0.91560  0.91500  0.11821  Biso   1.000  O
  O3       1.0000 0.17870  0.87300  0.96970  Biso   1.000  O
  O4       1.0000 0.82130  0.12700  0.03030  Biso   1.000  O
  C1       1.0000 0.04490  0.68650  0.91720  Biso   1.000  C
  C2       1.0000 0.95510  0.31350  0.08280  Biso   1.000  C
  H1       1.0000 0.94300  0.72290  0.91300  Biso   1.000  H
  H2       1.0000 0.05700  0.27710  0.08700  Biso   1.000  H
  C3       1.0000 0.14100  0.72900  0.94090  Biso   1.000  C
  C4       1.0000 0.85900  0.27100  0.05910  Biso   1.000  C
  C5       1.0000 0.26220  0.27210  0.88570  Biso   1.000  C
  C6       1.0000 0.73780  0.72790  0.11430  Biso   1.000  C
  H3       1.0000 0.20160  0.22930  0.89490  Biso   1.000  H
  H4       1.0000 0.79840  0.77070  0.10510  Biso   1.000  H
  C7       1.0000 0.29800  0.43370  0.88770  Biso   1.000  C
  C8       1.0000 0.70200  0.56630  0.11230  Biso   1.000  C
  C9       1.0000 0.29100  0.67570  0.94400  Biso   1.000  C
  C10      1.0000 0.70900  0.32430  0.05600  Biso   1.000  C
  H5       1.0000 0.35880  0.70450  0.95870  Biso   1.000  H
  H6       1.0000 0.64120  0.29550  0.04130  Biso   1.000  H
  C11      1.0000 0.34060  0.58140  0.92560  Biso   1.000  C
  C12      1.0000 0.65940  0.41860  0.07440  Biso   1.000  C
  H7       1.0000 0.44260  0.54620  0.92790  Biso   1.000  H
  H8       1.0000 0.55740  0.45380  0.07210  Biso   1.000  H
  C13      1.0000 0.09530  0.59240  0.89960  Biso   1.000  C
  C14      1.0000 0.90470  0.40760  0.10040  Biso   1.000  C
  H9       1.0000 0.02720  0.56440  0.88410  Biso   1.000  H
  H10      1.0000 0.97280  0.43560  0.11590  Biso   1.000  H
  C15      1.0000 0.24440  0.53660  0.90390  Biso   1.000  C
  C16      1.0000 0.75560  0.46340  0.09610  Biso   1.000  C
  C17      1.0000 0.08660  0.83060  0.96160  Biso   1.000  C
  C18      1.0000 0.91340  0.16940  0.03840  Biso   1.000  C
  C19      1.0000 0.45400  0.95280  0.95490  Biso   1.000  C
  C20      1.0000 0.54600  0.04720  0.04510  Biso   1.000  C
  H11      1.0000 0.42380  0.91780  0.92160  Biso   1.000  H
  H12      1.0000 0.57620  0.08220  0.07840  Biso   1.000  H
  C21      1.0000 0.21480  0.36750  0.90110  Biso   1.000  C
  C22      1.0000 0.78520  0.63250  0.09890  Biso   1.000  C
  H13      1.0000 0.12080  0.38920  0.92190  Biso   1.000  H
  H14      1.0000 0.87920  0.61080  0.07810  Biso   1.000  H
  C23      1.0000 0.43680  0.39790  0.85810  Biso   1.000  C
  C24      1.0000 0.56320  0.60210  0.14190  Biso   1.000  C
  H15      1.0000 0.49710  0.44100  0.84790  Biso   1.000  H
  H16      1.0000 0.50290  0.55900  0.15210  Biso   1.000  H
  C25      1.0000 0.40060  0.23900  0.85620  Biso   1.000  C
  C26      1.0000 0.59940  0.76100  0.14380  Biso   1.000  C
  H17      1.0000 0.43500  0.17340  0.84480  Biso   1.000  H
  H18      1.0000 0.56500  0.82660  0.15520  Biso   1.000  H
  C27      1.0000 0.48780  0.30180  0.84350  Biso   1.000  C
  C28      1.0000 0.51220  0.69820  0.15650  Biso   1.000  C
  H19      1.0000 0.58310  0.27860  0.82470  Biso   1.000  H
  H20      1.0000 0.41690  0.72140  0.17530  Biso   1.000  H
  C29      1.0000 0.96260  0.10680  0.84480  Biso   1.000  C
  C30      1.0000 0.03740  0.89320  0.15520  Biso   1.000  C
  O5       1.0000 0.85730  0.07930  0.87912  Biso   1.000  O
  O6       1.0000 0.14270  0.92070  0.12088  Biso   1.000  O
  C31      1.0000 0.93560  0.17500  0.75540  Biso   1.000  C
  C32      1.0000 0.06440  0.82500  0.24460  Biso   1.000  C
  C33      1.0000 0.03360  0.22530  0.71740  Biso   1.000  C
  C34      1.0000 0.96640  0.77470  0.28260  Biso   1.000  C
  H21      1.0000 0.12080  0.21350  0.74840  Biso   1.000  H
  H22      1.0000 0.87920  0.78650  0.25160  Biso   1.000  H
  C35      1.0000 0.81130  0.19050  0.70690  Biso   1.000  C
  C36      1.0000 0.18870  0.80950  0.29310  Biso   1.000  C
  H23      1.0000 0.74350  0.15620  0.73140  Biso   1.000  H
  H24      1.0000 0.25650  0.84380  0.26860  Biso   1.000  H
  C37      1.0000 0.78530  0.25370  0.62560  Biso   1.000  C
  C38      1.0000 0.21470  0.74630  0.37440  Biso   1.000  C
  H25      1.0000 0.69990  0.26200  0.59450  Biso   1.000  H
  H26      1.0000 0.30010  0.73800  0.40550  Biso   1.000  H
  C39      1.0000 0.00730  0.29190  0.63560  Biso   1.000  C
  C40      1.0000 0.99270  0.70810  0.36440  Biso   1.000  C
  H27      1.0000 0.07410  0.32770  0.61240  Biso   1.000  H
  H28      1.0000 0.92590  0.67230  0.38760  Biso   1.000  H
  C41      1.0000 0.88210  0.30750  0.58590  Biso   1.000  C
  C42      1.0000 0.11790  0.69250  0.41410  Biso   1.000  C
  C43      1.0000 0.85110  0.37920  0.49960  Biso   1.000  C
  C44      1.0000 0.14890  0.62080  0.50040  Biso   1.000  C
  C45      1.0000 0.96410  0.39180  0.44740  Biso   1.000  C
  C46      1.0000 0.03590  0.60820  0.55260  Biso   1.000  C
  H29      1.0000 0.06250  0.35370  0.46800  Biso   1.000  H
  H30      1.0000 0.93750  0.64630  0.53200  Biso   1.000  H
  C47      1.0000 0.71120  0.43630  0.46800  Biso   1.000  C
  C48      1.0000 0.28880  0.56370  0.53200  Biso   1.000  C
  H31      1.0000 0.63260  0.42790  0.50220  Biso   1.000  H
  H32      1.0000 0.36740  0.57210  0.49780  Biso   1.000  H
  C49      1.0000 0.93320  0.46020  0.36520  Biso   1.000  C
  C50      1.0000 0.06680  0.53980  0.63480  Biso   1.000  C
  H33      1.0000 0.01150  0.46650  0.33010  Biso   1.000  H
  H34      1.0000 0.98850  0.53350  0.66990  Biso   1.000  H
  C51      1.0000 0.68170  0.50730  0.38620  Biso   1.000  C
  C52      1.0000 0.31830  0.49270  0.61380  Biso   1.000  C
  H35      1.0000 0.58390  0.54840  0.36610  Biso   1.000  H
  H36      1.0000 0.41610  0.45160  0.63390  Biso   1.000  H
  C53      1.0000 0.79600  0.51730  0.33420  Biso   1.000  C
  C54      1.0000 0.20400  0.48270  0.66580  Biso   1.000  C
  H37      1.0000 0.77710  0.56360  0.27800  Biso   1.000  H
  H38      1.0000 0.22290  0.43640  0.72200  Biso   1.000  H
  O7       1.0000 0.95210  0.86770  0.96830  Biso   1.000  O
  O8       1.0000 0.04790  0.13230  0.03170  Biso   1.000  O
  C55      1.0000 0.40550  0.04820  0.04680  Biso   1.000  C
  C56      1.0000 0.59450  0.95180  0.95320  Biso   1.000  C
  H39      1.0000 0.34060  0.08330  0.08110  Biso   1.000  H
  H40      1.0000 0.65940  0.91670  0.91890  Biso   1.000  H
  C57      1.0000 0.22800  0.49240  0.14120  Biso   1.000  C
  C58      1.0000 0.77200  0.50760  0.85880  Biso   1.000  C
  H41      1.0000 0.18380  0.51590  0.08550  Biso   1.000  H
  H42      1.0000 0.81620  0.48410  0.91450  Biso   1.000  H
  C59      1.0000 0.20480  0.55900  0.18680  Biso   1.000  C
  C60      1.0000 0.79520  0.44100  0.81320  Biso   1.000  C
  H43      1.0000 0.14230  0.62900  0.16240  Biso   1.000  H
  H44      1.0000 0.85770  0.37100  0.83760  Biso   1.000  H
  C61      1.0000 0.31490  0.39050  0.17420  Biso   1.000  C
  C62      1.0000 0.68510  0.60950  0.82580  Biso   1.000  C
  C63      1.0000 0.26300  0.53350  0.26270  Biso   1.000  C
  C64      1.0000 0.73700  0.46650  0.73730  Biso   1.000  C
  H45      1.0000 0.24200  0.58520  0.29140  Biso   1.000  H
  H46      1.0000 0.75800  0.41480  0.70860  Biso   1.000  H
  C65      1.0000 0.34970  0.43840  0.30060  Biso   1.000  C
  C66      1.0000 0.65030  0.56160  0.69940  Biso   1.000  C
  H47      1.0000 0.39180  0.42130  0.35600  Biso   1.000  H
  H48      1.0000 0.60820  0.57870  0.64400  Biso   1.000  H
  C67      1.0000 0.38030  0.36040  0.25730  Biso   1.000  C
  C68      1.0000 0.61970  0.63960  0.74270  Biso   1.000  C
  H49      1.0000 0.44230  0.29060  0.28330  Biso   1.000  H
  H50      1.0000 0.55770  0.70940  0.71670  Biso   1.000  H
  C69      1.0000 0.34570  0.31150  0.13080  Biso   1.000  C
  C70      1.0000 0.65430  0.68850  0.86920  Biso   1.000  C
  H51      1.0000 0.39520  0.33550  0.07910  Biso   1.000  H
  H52      1.0000 0.60480  0.66450  0.92090  Biso   1.000  H
  H53      1.0000 0.25080  0.31040  0.11190  Biso   1.000  H
  H54      1.0000 0.74920  0.68960  0.88810  Biso   1.000  H
  O9       1.0000 0.43380  0.20200  0.17500  Biso   1.000  O
  O10      1.0000 0.56620  0.79800  0.82500  Biso   1.000  O
  H55      1.0000 0.44940  0.29460  0.11730  Biso   1.000  H
  H56      1.0000 0.55060  0.70540  0.88270  Biso   1.000  H
  H57      1.0000 0.28670  0.34350  0.07630  Biso   1.000  H
  H58      1.0000 0.71330  0.65650  0.92370  Biso   1.000  H
  O11      1.0000 0.32000  0.21170  0.17310  Biso   1.000  O
  O12      1.0000 0.68000  0.78830  0.82690  Biso   1.000  O
