data_image0
_cell_length_a       23.32
_cell_length_b       9.5701
_cell_length_c       26.478
_cell_angle_alpha    90
_cell_angle_beta     103.799
_cell_angle_gamma    90

_symmetry_space_group_name_H-M    "P 1"
_symmetry_int_tables_number       1

loop_
  _symmetry_equiv_pos_as_xyz
  'x, y, z'

loop_
  _atom_site_label
  _atom_site_occupancy
  _atom_site_fract_x
  _atom_site_fract_y
  _atom_site_fract_z
  _atom_site_thermal_displace_type
  _atom_site_B_iso_or_equiv
  _atom_site_type_symbol
  Cu1      1.0000 0.00000  0.86702  0.25000  Biso   1.000  Cu
  Cu2      1.0000 0.50000  0.36702  0.25000  Biso   1.000  Cu
  Cu3      1.0000 0.00000  0.13298  0.75000  Biso   1.000  Cu
  Cu4      1.0000 0.50000  0.63298  0.75000  Biso   1.000  Cu
  Cu5      1.0000 0.00000  0.59344  0.25000  Biso   1.000  Cu
  Cu6      1.0000 0.50000  0.09344  0.25000  Biso   1.000  Cu
  Cu7      1.0000 0.00000  0.40656  0.75000  Biso   1.000  Cu
  Cu8      1.0000 0.50000  0.90656  0.75000  Biso   1.000  Cu
  O1       1.0000 0.95824  0.84040  0.30613  Biso   1.000  O
  O2       1.0000 0.04176  0.84040  0.19387  Biso   1.000  O
  O3       1.0000 0.45824  0.34040  0.30613  Biso   1.000  O
  O4       1.0000 0.54176  0.34040  0.19387  Biso   1.000  O
  O5       1.0000 0.04176  0.15960  0.69387  Biso   1.000  O
  O6       1.0000 0.95824  0.15960  0.80613  Biso   1.000  O
  O7       1.0000 0.54176  0.65960  0.69387  Biso   1.000  O
  O8       1.0000 0.45824  0.65960  0.80613  Biso   1.000  O
  O9       1.0000 0.98048  0.61180  0.31770  Biso   1.000  O
  O10      1.0000 0.01952  0.61180  0.18230  Biso   1.000  O
  O11      1.0000 0.48048  0.11180  0.31770  Biso   1.000  O
  O12      1.0000 0.51952  0.11180  0.18230  Biso   1.000  O
  O13      1.0000 0.01952  0.38820  0.68230  Biso   1.000  O
  O14      1.0000 0.98048  0.38820  0.81770  Biso   1.000  O
  O15      1.0000 0.51952  0.88820  0.68230  Biso   1.000  O
  O16      1.0000 0.48048  0.88820  0.81770  Biso   1.000  O
  O17      1.0000 0.92418  0.84790  0.19771  Biso   1.000  O
  O18      1.0000 0.07582  0.84790  0.30229  Biso   1.000  O
  O19      1.0000 0.42418  0.34790  0.19771  Biso   1.000  O
  O20      1.0000 0.57582  0.34790  0.30229  Biso   1.000  O
  O21      1.0000 0.07582  0.15210  0.80229  Biso   1.000  O
  O22      1.0000 0.92418  0.15210  0.69771  Biso   1.000  O
  O23      1.0000 0.57582  0.65210  0.80229  Biso   1.000  O
  O24      1.0000 0.42418  0.65210  0.69771  Biso   1.000  O
  O25      1.0000 0.91517  0.62120  0.21555  Biso   1.000  O
  O26      1.0000 0.08483  0.62120  0.28445  Biso   1.000  O
  O27      1.0000 0.41517  0.12120  0.21555  Biso   1.000  O
  O28      1.0000 0.58483  0.12120  0.28445  Biso   1.000  O
  O29      1.0000 0.08483  0.37880  0.78445  Biso   1.000  O
  O30      1.0000 0.91517  0.37880  0.71555  Biso   1.000  O
  O31      1.0000 0.58483  0.87880  0.78445  Biso   1.000  O
  O32      1.0000 0.41517  0.87880  0.71555  Biso   1.000  O
  N1       1.0000 0.00000  0.09550  0.25000  Biso   1.000  N
  N2       1.0000 0.50000  0.59550  0.25000  Biso   1.000  N
  N3       1.0000 0.00000  0.90450  0.75000  Biso   1.000  N
  N4       1.0000 0.50000  0.40450  0.75000  Biso   1.000  N
  N5       1.0000 0.00000  0.36450  0.25000  Biso   1.000  N
  N6       1.0000 0.50000  0.86450  0.25000  Biso   1.000  N
  N7       1.0000 0.00000  0.63550  0.75000  Biso   1.000  N
  N8       1.0000 0.50000  0.13550  0.75000  Biso   1.000  N
  C1       1.0000 0.95960  0.72550  0.33070  Biso   1.000  C
  C2       1.0000 0.04040  0.72550  0.16930  Biso   1.000  C
  C3       1.0000 0.45960  0.22550  0.33070  Biso   1.000  C
  C4       1.0000 0.54040  0.22550  0.16930  Biso   1.000  C
  C5       1.0000 0.04040  0.27450  0.66930  Biso   1.000  C
  C6       1.0000 0.95960  0.27450  0.83070  Biso   1.000  C
  C7       1.0000 0.54040  0.77450  0.66930  Biso   1.000  C
  C8       1.0000 0.45960  0.77450  0.83070  Biso   1.000  C
  C9       1.0000 0.93520  0.72050  0.37700  Biso   1.000  C
  C10      1.0000 0.06480  0.72050  0.12300  Biso   1.000  C
  C11      1.0000 0.43520  0.22050  0.37700  Biso   1.000  C
  C12      1.0000 0.56480  0.22050  0.12300  Biso   1.000  C
  C13      1.0000 0.06480  0.27950  0.62300  Biso   1.000  C
  C14      1.0000 0.93520  0.27950  0.87700  Biso   1.000  C
  C15      1.0000 0.56480  0.77950  0.62300  Biso   1.000  C
  C16      1.0000 0.43520  0.77950  0.87700  Biso   1.000  C
  C17      1.0000 0.91120  0.83920  0.39500  Biso   1.000  C
  C18      1.0000 0.08880  0.83920  0.10500  Biso   1.000  C
  C19      1.0000 0.41120  0.33920  0.39500  Biso   1.000  C
  C20      1.0000 0.58880  0.33920  0.10500  Biso   1.000  C
  C21      1.0000 0.08880  0.16080  0.60500  Biso   1.000  C
  C22      1.0000 0.91120  0.16080  0.89500  Biso   1.000  C
  C23      1.0000 0.58880  0.66080  0.60500  Biso   1.000  C
  C24      1.0000 0.41120  0.66080  0.89500  Biso   1.000  C
  H1       1.0000 0.91040  0.92480  0.37670  Biso   1.000  H
  H2       1.0000 0.08960  0.92480  0.12330  Biso   1.000  H
  H3       1.0000 0.41040  0.42480  0.37670  Biso   1.000  H
  H4       1.0000 0.58960  0.42480  0.12330  Biso   1.000  H
  H5       1.0000 0.08960  0.07520  0.62330  Biso   1.000  H
  H6       1.0000 0.91040  0.07520  0.87670  Biso   1.000  H
  H7       1.0000 0.58960  0.57520  0.62330  Biso   1.000  H
  H8       1.0000 0.41040  0.57520  0.87670  Biso   1.000  H
  C25      1.0000 0.88910  0.83490  0.43760  Biso   1.000  C
  C26      1.0000 0.11090  0.83490  0.06240  Biso   1.000  C
  C27      1.0000 0.38910  0.33490  0.43760  Biso   1.000  C
  C28      1.0000 0.61090  0.33490  0.06240  Biso   1.000  C
  C29      1.0000 0.11090  0.16510  0.56240  Biso   1.000  C
  C30      1.0000 0.88910  0.16510  0.93760  Biso   1.000  C
  C31      1.0000 0.61090  0.66510  0.56240  Biso   1.000  C
  C32      1.0000 0.38910  0.66510  0.93760  Biso   1.000  C
  H9       1.0000 0.87370  0.91820  0.44880  Biso   1.000  H
  H10      1.0000 0.12630  0.91820  0.05120  Biso   1.000  H
  H11      1.0000 0.37370  0.41820  0.44880  Biso   1.000  H
  H12      1.0000 0.62630  0.41820  0.05120  Biso   1.000  H
  H13      1.0000 0.12630  0.08180  0.55120  Biso   1.000  H
  H14      1.0000 0.87370  0.08180  0.94880  Biso   1.000  H
  H15      1.0000 0.62630  0.58180  0.55120  Biso   1.000  H
  H16      1.0000 0.37370  0.58180  0.94880  Biso   1.000  H
  C33      1.0000 0.88820  0.71100  0.46630  Biso   1.000  C
  C34      1.0000 0.11180  0.71100  0.03370  Biso   1.000  C
  C35      1.0000 0.38820  0.21100  0.46630  Biso   1.000  C
  C36      1.0000 0.61180  0.21100  0.03370  Biso   1.000  C
  C37      1.0000 0.11180  0.28900  0.53370  Biso   1.000  C
  C38      1.0000 0.88820  0.28900  0.96630  Biso   1.000  C
  C39      1.0000 0.61180  0.78900  0.53370  Biso   1.000  C
  C40      1.0000 0.38820  0.78900  0.96630  Biso   1.000  C
  C41      1.0000 0.91000  0.59180  0.44690  Biso   1.000  C
  C42      1.0000 0.09000  0.59180  0.05310  Biso   1.000  C
  C43      1.0000 0.41000  0.09180  0.44690  Biso   1.000  C
  C44      1.0000 0.59000  0.09180  0.05310  Biso   1.000  C
  C45      1.0000 0.09000  0.40820  0.55310  Biso   1.000  C
  C46      1.0000 0.91000  0.40820  0.94690  Biso   1.000  C
  C47      1.0000 0.59000  0.90820  0.55310  Biso   1.000  C
  C48      1.0000 0.41000  0.90820  0.94690  Biso   1.000  C
  H17      1.0000 0.90810  0.50450  0.46340  Biso   1.000  H
  H18      1.0000 0.09190  0.50450  0.03660  Biso   1.000  H
  H19      1.0000 0.40810  0.00450  0.46340  Biso   1.000  H
  H20      1.0000 0.59190  0.00450  0.03660  Biso   1.000  H
  H21      1.0000 0.09190  0.49550  0.53660  Biso   1.000  H
  H22      1.0000 0.90810  0.49550  0.96340  Biso   1.000  H
  H23      1.0000 0.59190  0.99550  0.53660  Biso   1.000  H
  H24      1.0000 0.40810  0.99550  0.96340  Biso   1.000  H
  C49      1.0000 0.93370  0.59750  0.40530  Biso   1.000  C
  C50      1.0000 0.06630  0.59750  0.09470  Biso   1.000  C
  C51      1.0000 0.43370  0.09750  0.40530  Biso   1.000  C
  C52      1.0000 0.56630  0.09750  0.09470  Biso   1.000  C
  C53      1.0000 0.06630  0.40250  0.59470  Biso   1.000  C
  C54      1.0000 0.93370  0.40250  0.90530  Biso   1.000  C
  C55      1.0000 0.56630  0.90250  0.59470  Biso   1.000  C
  C56      1.0000 0.43370  0.90250  0.90530  Biso   1.000  C
  H25      1.0000 0.95010  0.51480  0.39470  Biso   1.000  H
  H26      1.0000 0.04990  0.51480  0.10530  Biso   1.000  H
  H27      1.0000 0.45010  0.01480  0.39470  Biso   1.000  H
  H28      1.0000 0.54990  0.01480  0.10530  Biso   1.000  H
  H29      1.0000 0.04990  0.48520  0.60530  Biso   1.000  H
  H30      1.0000 0.95010  0.48520  0.89470  Biso   1.000  H
  H31      1.0000 0.54990  0.98520  0.60530  Biso   1.000  H
  H32      1.0000 0.45010  0.98520  0.89470  Biso   1.000  H
  C57      1.0000 0.86570  0.70520  0.51420  Biso   1.000  C
  C58      1.0000 0.13430  0.70520  0.98580  Biso   1.000  C
  C59      1.0000 0.36570  0.20520  0.51420  Biso   1.000  C
  C60      1.0000 0.63430  0.20520  0.98580  Biso   1.000  C
  C61      1.0000 0.13430  0.29480  0.48580  Biso   1.000  C
  C62      1.0000 0.86570  0.29480  0.01420  Biso   1.000  C
  C63      1.0000 0.63430  0.79480  0.48580  Biso   1.000  C
  C64      1.0000 0.36570  0.79480  0.01420  Biso   1.000  C
  C65      1.0000 0.88690  0.61050  0.55280  Biso   1.000  C
  C66      1.0000 0.11310  0.61050  0.94720  Biso   1.000  C
  C67      1.0000 0.38690  0.11050  0.55280  Biso   1.000  C
  C68      1.0000 0.61310  0.11050  0.94720  Biso   1.000  C
  C69      1.0000 0.11310  0.38950  0.44720  Biso   1.000  C
  C70      1.0000 0.88690  0.38950  0.05280  Biso   1.000  C
  C71      1.0000 0.61310  0.88950  0.44720  Biso   1.000  C
  C72      1.0000 0.38690  0.88950  0.05280  Biso   1.000  C
  H33      1.0000 0.91760  0.54840  0.54950  Biso   1.000  H
  H34      1.0000 0.08240  0.54840  0.95050  Biso   1.000  H
  H35      1.0000 0.41760  0.04840  0.54950  Biso   1.000  H
  H36      1.0000 0.58240  0.04840  0.95050  Biso   1.000  H
  H37      1.0000 0.08240  0.45160  0.45050  Biso   1.000  H
  H38      1.0000 0.91760  0.45160  0.04950  Biso   1.000  H
  H39      1.0000 0.58240  0.95160  0.45050  Biso   1.000  H
  H40      1.0000 0.41760  0.95160  0.04950  Biso   1.000  H
  C73      1.0000 0.86400  0.60370  0.59710  Biso   1.000  C
  C74      1.0000 0.13600  0.60370  0.90290  Biso   1.000  C
  C75      1.0000 0.36400  0.10370  0.59710  Biso   1.000  C
  C76      1.0000 0.63600  0.10370  0.90290  Biso   1.000  C
  C77      1.0000 0.13600  0.39630  0.40290  Biso   1.000  C
  C78      1.0000 0.86400  0.39630  0.09710  Biso   1.000  C
  C79      1.0000 0.63600  0.89630  0.40290  Biso   1.000  C
  C80      1.0000 0.36400  0.89630  0.09710  Biso   1.000  C
  H41      1.0000 0.87910  0.53500  0.62270  Biso   1.000  H
  H42      1.0000 0.12090  0.53500  0.87730  Biso   1.000  H
  H43      1.0000 0.37910  0.03500  0.62270  Biso   1.000  H
  H44      1.0000 0.62090  0.03500  0.87730  Biso   1.000  H
  H45      1.0000 0.12090  0.46500  0.37730  Biso   1.000  H
  H46      1.0000 0.87910  0.46500  0.12270  Biso   1.000  H
  H47      1.0000 0.62090  0.96500  0.37730  Biso   1.000  H
  H48      1.0000 0.37910  0.96500  0.12270  Biso   1.000  H
  C81      1.0000 0.80190  0.78910  0.56910  Biso   1.000  C
  C82      1.0000 0.19810  0.78910  0.93090  Biso   1.000  C
  C83      1.0000 0.30190  0.28910  0.56910  Biso   1.000  C
  C84      1.0000 0.69810  0.28910  0.93090  Biso   1.000  C
  C85      1.0000 0.19810  0.21090  0.43090  Biso   1.000  C
  C86      1.0000 0.80190  0.21090  0.06910  Biso   1.000  C
  C87      1.0000 0.69810  0.71090  0.43090  Biso   1.000  C
  C88      1.0000 0.30190  0.71090  0.06910  Biso   1.000  C
  H49      1.0000 0.77330  0.85420  0.57480  Biso   1.000  H
  H50      1.0000 0.22670  0.85420  0.92520  Biso   1.000  H
  H51      1.0000 0.27330  0.35420  0.57480  Biso   1.000  H
  H52      1.0000 0.72670  0.35420  0.92520  Biso   1.000  H
  H53      1.0000 0.22670  0.14580  0.42520  Biso   1.000  H
  H54      1.0000 0.77330  0.14580  0.07480  Biso   1.000  H
  H55      1.0000 0.72670  0.64580  0.42520  Biso   1.000  H
  H56      1.0000 0.27330  0.64580  0.07480  Biso   1.000  H
  C89      1.0000 0.82280  0.79680  0.52400  Biso   1.000  C
  C90      1.0000 0.17720  0.79680  0.97600  Biso   1.000  C
  C91      1.0000 0.32280  0.29680  0.52400  Biso   1.000  C
  C92      1.0000 0.67720  0.29680  0.97600  Biso   1.000  C
  C93      1.0000 0.17720  0.20320  0.47600  Biso   1.000  C
  C94      1.0000 0.82280  0.20320  0.02400  Biso   1.000  C
  C95      1.0000 0.67720  0.70320  0.47600  Biso   1.000  C
  C96      1.0000 0.32280  0.70320  0.02400  Biso   1.000  C
  H57      1.0000 0.80740  0.86690  0.49910  Biso   1.000  H
  H58      1.0000 0.19260  0.86690  0.00090  Biso   1.000  H
  H59      1.0000 0.30740  0.36690  0.49910  Biso   1.000  H
  H60      1.0000 0.69260  0.36690  0.00090  Biso   1.000  H
  H61      1.0000 0.19260  0.13310  0.50090  Biso   1.000  H
  H62      1.0000 0.80740  0.13310  0.99910  Biso   1.000  H
  H63      1.0000 0.69260  0.63310  0.50090  Biso   1.000  H
  H64      1.0000 0.30740  0.63310  0.99910  Biso   1.000  H
  C97      1.0000 0.89600  0.73410  0.19380  Biso   1.000  C
  C98      1.0000 0.10400  0.73410  0.30620  Biso   1.000  C
  C99      1.0000 0.39600  0.23410  0.19380  Biso   1.000  C
  C100     1.0000 0.60400  0.23410  0.30620  Biso   1.000  C
  C101     1.0000 0.10400  0.26590  0.80620  Biso   1.000  C
  C102     1.0000 0.89600  0.26590  0.69380  Biso   1.000  C
  C103     1.0000 0.60400  0.76590  0.80620  Biso   1.000  C
  C104     1.0000 0.39600  0.76590  0.69380  Biso   1.000  C
  C105     1.0000 0.83530  0.73350  0.16000  Biso   1.000  C
  C106     1.0000 0.16470  0.73350  0.34000  Biso   1.000  C
  C107     1.0000 0.33530  0.23350  0.16000  Biso   1.000  C
  C108     1.0000 0.66470  0.23350  0.34000  Biso   1.000  C
  C109     1.0000 0.16470  0.26650  0.84000  Biso   1.000  C
  C110     1.0000 0.83530  0.26650  0.66000  Biso   1.000  C
  C111     1.0000 0.66470  0.76650  0.84000  Biso   1.000  C
  C112     1.0000 0.33530  0.76650  0.66000  Biso   1.000  C
  C113     1.0000 0.81670  0.83530  0.12230  Biso   1.000  C
  C114     1.0000 0.18330  0.83530  0.37770  Biso   1.000  C
  C115     1.0000 0.31670  0.33530  0.12230  Biso   1.000  C
  C116     1.0000 0.68330  0.33530  0.37770  Biso   1.000  C
  C117     1.0000 0.18330  0.16470  0.87770  Biso   1.000  C
  C118     1.0000 0.81670  0.16470  0.62230  Biso   1.000  C
  C119     1.0000 0.68330  0.66470  0.87770  Biso   1.000  C
  C120     1.0000 0.31670  0.66470  0.62230  Biso   1.000  C
  H65      1.0000 0.84300  0.90820  0.11840  Biso   1.000  H
  H66      1.0000 0.15700  0.90820  0.38160  Biso   1.000  H
  H67      1.0000 0.34300  0.40820  0.11840  Biso   1.000  H
  H68      1.0000 0.65700  0.40820  0.38160  Biso   1.000  H
  H69      1.0000 0.15700  0.09180  0.88160  Biso   1.000  H
  H70      1.0000 0.84300  0.09180  0.61840  Biso   1.000  H
  H71      1.0000 0.65700  0.59180  0.88160  Biso   1.000  H
  H72      1.0000 0.34300  0.59180  0.61840  Biso   1.000  H
  C121     1.0000 0.76120  0.83130  0.09090  Biso   1.000  C
  C122     1.0000 0.23880  0.83130  0.40910  Biso   1.000  C
  C123     1.0000 0.26120  0.33130  0.09090  Biso   1.000  C
  C124     1.0000 0.73880  0.33130  0.40910  Biso   1.000  C
  C125     1.0000 0.23880  0.16870  0.90910  Biso   1.000  C
  C126     1.0000 0.76120  0.16870  0.59090  Biso   1.000  C
  C127     1.0000 0.73880  0.66870  0.90910  Biso   1.000  C
  C128     1.0000 0.26120  0.66870  0.59090  Biso   1.000  C
  H73      1.0000 0.74980  0.90020  0.06450  Biso   1.000  H
  H74      1.0000 0.25020  0.90020  0.43550  Biso   1.000  H
  H75      1.0000 0.24980  0.40020  0.06450  Biso   1.000  H
  H76      1.0000 0.75020  0.40020  0.43550  Biso   1.000  H
  H77      1.0000 0.25020  0.09980  0.93550  Biso   1.000  H
  H78      1.0000 0.74980  0.09980  0.56450  Biso   1.000  H
  H79      1.0000 0.75020  0.59980  0.93550  Biso   1.000  H
  H80      1.0000 0.24980  0.59980  0.56450  Biso   1.000  H
  C129     1.0000 0.72070  0.72800  0.09650  Biso   1.000  C
  C130     1.0000 0.27930  0.72800  0.40350  Biso   1.000  C
  C131     1.0000 0.22070  0.22800  0.09650  Biso   1.000  C
  C132     1.0000 0.77930  0.22800  0.40350  Biso   1.000  C
  C133     1.0000 0.27930  0.27200  0.90350  Biso   1.000  C
  C134     1.0000 0.72070  0.27200  0.59650  Biso   1.000  C
  C135     1.0000 0.77930  0.77200  0.90350  Biso   1.000  C
  C136     1.0000 0.22070  0.77200  0.59650  Biso   1.000  C
  C137     1.0000 0.73970  0.62790  0.13420  Biso   1.000  C
  C138     1.0000 0.26030  0.62790  0.36580  Biso   1.000  C
  C139     1.0000 0.23970  0.12790  0.13420  Biso   1.000  C
  C140     1.0000 0.76030  0.12790  0.36580  Biso   1.000  C
  C141     1.0000 0.26030  0.37210  0.86580  Biso   1.000  C
  C142     1.0000 0.73970  0.37210  0.63420  Biso   1.000  C
  C143     1.0000 0.76030  0.87210  0.86580  Biso   1.000  C
  C144     1.0000 0.23970  0.87210  0.63420  Biso   1.000  C
  H81      1.0000 0.71310  0.55650  0.13890  Biso   1.000  H
  H82      1.0000 0.28690  0.55650  0.36110  Biso   1.000  H
  H83      1.0000 0.21310  0.05650  0.13890  Biso   1.000  H
  H84      1.0000 0.78690  0.05650  0.36110  Biso   1.000  H
  H85      1.0000 0.28690  0.44350  0.86110  Biso   1.000  H
  H86      1.0000 0.71310  0.44350  0.63890  Biso   1.000  H
  H87      1.0000 0.78690  0.94350  0.86110  Biso   1.000  H
  H88      1.0000 0.21310  0.94350  0.63890  Biso   1.000  H
  C145     1.0000 0.79630  0.62910  0.16520  Biso   1.000  C
  C146     1.0000 0.20370  0.62910  0.33480  Biso   1.000  C
  C147     1.0000 0.29630  0.12910  0.16520  Biso   1.000  C
  C148     1.0000 0.70370  0.12910  0.33480  Biso   1.000  C
  C149     1.0000 0.20370  0.37090  0.83480  Biso   1.000  C
  C150     1.0000 0.79630  0.37090  0.66520  Biso   1.000  C
  C151     1.0000 0.70370  0.87090  0.83480  Biso   1.000  C
  C152     1.0000 0.29630  0.87090  0.66520  Biso   1.000  C
  H89      1.0000 0.80860  0.55750  0.19030  Biso   1.000  H
  H90      1.0000 0.19140  0.55750  0.30970  Biso   1.000  H
  H91      1.0000 0.30860  0.05750  0.19030  Biso   1.000  H
  H92      1.0000 0.69140  0.05750  0.30970  Biso   1.000  H
  H93      1.0000 0.19140  0.44250  0.80970  Biso   1.000  H
  H94      1.0000 0.80860  0.44250  0.69030  Biso   1.000  H
  H95      1.0000 0.69140  0.94250  0.80970  Biso   1.000  H
  H96      1.0000 0.30860  0.94250  0.69030  Biso   1.000  H
  C153     1.0000 0.66010  0.72390  0.06330  Biso   1.000  C
  C154     1.0000 0.33990  0.72390  0.43670  Biso   1.000  C
  C155     1.0000 0.16010  0.22390  0.06330  Biso   1.000  C
  C156     1.0000 0.83990  0.22390  0.43670  Biso   1.000  C
  C157     1.0000 0.33990  0.27610  0.93670  Biso   1.000  C
  C158     1.0000 0.66010  0.27610  0.56330  Biso   1.000  C
  C159     1.0000 0.83990  0.77610  0.93670  Biso   1.000  C
  C160     1.0000 0.16010  0.77610  0.56330  Biso   1.000  C
  C161     1.0000 0.64940  0.73330  0.00940  Biso   1.000  C
  C162     1.0000 0.35060  0.73330  0.49060  Biso   1.000  C
  C163     1.0000 0.14940  0.23330  0.00940  Biso   1.000  C
  C164     1.0000 0.85060  0.23330  0.49060  Biso   1.000  C
  C165     1.0000 0.35060  0.26670  0.99060  Biso   1.000  C
  C166     1.0000 0.64940  0.26670  0.50940  Biso   1.000  C
  C167     1.0000 0.85060  0.76670  0.99060  Biso   1.000  C
  C168     1.0000 0.14940  0.76670  0.50940  Biso   1.000  C
  H97      1.0000 0.68160  0.74640  0.99360  Biso   1.000  H
  H98      1.0000 0.31840  0.74640  0.50640  Biso   1.000  H
  H99      1.0000 0.18160  0.24640  0.99360  Biso   1.000  H
  H100     1.0000 0.81840  0.24640  0.50640  Biso   1.000  H
  H101     1.0000 0.31840  0.25360  0.00640  Biso   1.000  H
  H102     1.0000 0.68160  0.25360  0.49360  Biso   1.000  H
  H103     1.0000 0.81840  0.75360  0.00640  Biso   1.000  H
  H104     1.0000 0.18160  0.75360  0.49360  Biso   1.000  H
  C169     1.0000 0.59320  0.72400  0.97880  Biso   1.000  C
  C170     1.0000 0.40680  0.72400  0.52120  Biso   1.000  C
  C171     1.0000 0.09320  0.22400  0.97880  Biso   1.000  C
  C172     1.0000 0.90680  0.22400  0.52120  Biso   1.000  C
  C173     1.0000 0.40680  0.27600  0.02120  Biso   1.000  C
  C174     1.0000 0.59320  0.27600  0.47880  Biso   1.000  C
  C175     1.0000 0.90680  0.77600  0.02120  Biso   1.000  C
  C176     1.0000 0.09320  0.77600  0.47880  Biso   1.000  C
  H105     1.0000 0.58670  0.72940  0.94200  Biso   1.000  H
  H106     1.0000 0.41330  0.72940  0.55800  Biso   1.000  H
  H107     1.0000 0.08670  0.22940  0.94200  Biso   1.000  H
  H108     1.0000 0.91330  0.22940  0.55800  Biso   1.000  H
  H109     1.0000 0.41330  0.27060  0.05800  Biso   1.000  H
  H110     1.0000 0.58670  0.27060  0.44200  Biso   1.000  H
  H111     1.0000 0.91330  0.77060  0.05800  Biso   1.000  H
  H112     1.0000 0.08670  0.77060  0.44200  Biso   1.000  H
  C177     1.0000 0.54550  0.70660  0.00110  Biso   1.000  C
  C178     1.0000 0.45450  0.70660  0.49890  Biso   1.000  C
  C179     1.0000 0.04550  0.20660  0.00110  Biso   1.000  C
  C180     1.0000 0.95450  0.20660  0.49890  Biso   1.000  C
  C181     1.0000 0.45450  0.29340  0.99890  Biso   1.000  C
  C182     1.0000 0.54550  0.29340  0.50110  Biso   1.000  C
  C183     1.0000 0.95450  0.79340  0.99890  Biso   1.000  C
  C184     1.0000 0.04550  0.79340  0.50110  Biso   1.000  C
  H113     1.0000 0.50660  0.69910  0.97980  Biso   1.000  H
  H114     1.0000 0.49340  0.69910  0.52020  Biso   1.000  H
  H115     1.0000 0.00660  0.19910  0.97980  Biso   1.000  H
  H116     1.0000 0.99340  0.19910  0.52020  Biso   1.000  H
  H117     1.0000 0.49340  0.30090  0.02020  Biso   1.000  H
  H118     1.0000 0.50660  0.30090  0.47980  Biso   1.000  H
  H119     1.0000 0.99340  0.80090  0.02020  Biso   1.000  H
  H120     1.0000 0.00660  0.80090  0.47980  Biso   1.000  H
  C185     1.0000 0.55490  0.70040  0.05370  Biso   1.000  C
  C186     1.0000 0.44510  0.70040  0.44630  Biso   1.000  C
  C187     1.0000 0.05490  0.20040  0.05370  Biso   1.000  C
  C188     1.0000 0.94510  0.20040  0.44630  Biso   1.000  C
  C189     1.0000 0.44510  0.29960  0.94630  Biso   1.000  C
  C190     1.0000 0.55490  0.29960  0.55370  Biso   1.000  C
  C191     1.0000 0.94510  0.79960  0.94630  Biso   1.000  C
  C192     1.0000 0.05490  0.79960  0.55370  Biso   1.000  C
  H121     1.0000 0.52240  0.69040  0.06930  Biso   1.000  H
  H122     1.0000 0.47760  0.69040  0.43070  Biso   1.000  H
  H123     1.0000 0.02240  0.19040  0.06930  Biso   1.000  H
  H124     1.0000 0.97760  0.19040  0.43070  Biso   1.000  H
  H125     1.0000 0.47760  0.30960  0.93070  Biso   1.000  H
  H126     1.0000 0.52240  0.30960  0.56930  Biso   1.000  H
  H127     1.0000 0.97760  0.80960  0.93070  Biso   1.000  H
  H128     1.0000 0.02240  0.80960  0.56930  Biso   1.000  H
  C193     1.0000 0.61170  0.70860  0.08490  Biso   1.000  C
  C194     1.0000 0.38830  0.70860  0.41510  Biso   1.000  C
  C195     1.0000 0.11170  0.20860  0.08490  Biso   1.000  C
  C196     1.0000 0.88830  0.20860  0.41510  Biso   1.000  C
  C197     1.0000 0.38830  0.29140  0.91510  Biso   1.000  C
  C198     1.0000 0.61170  0.29140  0.58490  Biso   1.000  C
  C199     1.0000 0.88830  0.79140  0.91510  Biso   1.000  C
  C200     1.0000 0.11170  0.79140  0.58490  Biso   1.000  C
  H129     1.0000 0.61770  0.70360  0.12160  Biso   1.000  H
  H130     1.0000 0.38230  0.70360  0.37840  Biso   1.000  H
  H131     1.0000 0.11770  0.20360  0.12160  Biso   1.000  H
  H132     1.0000 0.88230  0.20360  0.37840  Biso   1.000  H
  H133     1.0000 0.38230  0.29640  0.87840  Biso   1.000  H
  H134     1.0000 0.61770  0.29640  0.62160  Biso   1.000  H
  H135     1.0000 0.88230  0.79640  0.87840  Biso   1.000  H
  H136     1.0000 0.11770  0.79640  0.62160  Biso   1.000  H
  C201     1.0000 0.01350  0.14510  0.19860  Biso   1.000  C
  C202     1.0000 0.98650  0.14510  0.30140  Biso   1.000  C
  C203     1.0000 0.51350  0.64510  0.19860  Biso   1.000  C
  C204     1.0000 0.48650  0.64510  0.30140  Biso   1.000  C
  C205     1.0000 0.98650  0.85490  0.80140  Biso   1.000  C
  C206     1.0000 0.01350  0.85490  0.69860  Biso   1.000  C
  C207     1.0000 0.48650  0.35490  0.80140  Biso   1.000  C
  C208     1.0000 0.51350  0.35490  0.69860  Biso   1.000  C
  H137     1.0000 0.05240  0.10870  0.19600  Biso   1.000  H
  H138     1.0000 0.94760  0.10870  0.30400  Biso   1.000  H
  H139     1.0000 0.55240  0.60870  0.19600  Biso   1.000  H
  H140     1.0000 0.44760  0.60870  0.30400  Biso   1.000  H
  H141     1.0000 0.94760  0.89130  0.80400  Biso   1.000  H
  H142     1.0000 0.05240  0.89130  0.69600  Biso   1.000  H
  H143     1.0000 0.44760  0.39130  0.80400  Biso   1.000  H
  H144     1.0000 0.55240  0.39130  0.69600  Biso   1.000  H
  H145     1.0000 0.98310  0.10880  0.16880  Biso   1.000  H
  H146     1.0000 0.01690  0.10880  0.33120  Biso   1.000  H
  H147     1.0000 0.48310  0.60880  0.16880  Biso   1.000  H
  H148     1.0000 0.51690  0.60880  0.33120  Biso   1.000  H
  H149     1.0000 0.01690  0.89120  0.83120  Biso   1.000  H
  H150     1.0000 0.98310  0.89120  0.66880  Biso   1.000  H
  H151     1.0000 0.51690  0.39120  0.83120  Biso   1.000  H
  H152     1.0000 0.48310  0.39120  0.66880  Biso   1.000  H
  C209     1.0000 0.01390  0.30540  0.19720  Biso   1.000  C
  C210     1.0000 0.98610  0.30540  0.30280  Biso   1.000  C
  C211     1.0000 0.51390  0.80540  0.19720  Biso   1.000  C
  C212     1.0000 0.48610  0.80540  0.30280  Biso   1.000  C
  C213     1.0000 0.98610  0.69460  0.80280  Biso   1.000  C
  C214     1.0000 0.01390  0.69460  0.69720  Biso   1.000  C
  C215     1.0000 0.48610  0.19460  0.80280  Biso   1.000  C
  C216     1.0000 0.51390  0.19460  0.69720  Biso   1.000  C
  H153     1.0000 0.98370  0.33920  0.16670  Biso   1.000  H
  H154     1.0000 0.01630  0.33920  0.33330  Biso   1.000  H
  H155     1.0000 0.48370  0.83920  0.16670  Biso   1.000  H
  H156     1.0000 0.51630  0.83920  0.33330  Biso   1.000  H
  H157     1.0000 0.01630  0.66080  0.83330  Biso   1.000  H
  H158     1.0000 0.98370  0.66080  0.66670  Biso   1.000  H
  H159     1.0000 0.51630  0.16080  0.83330  Biso   1.000  H
  H160     1.0000 0.48370  0.16080  0.66670  Biso   1.000  H
  H161     1.0000 0.05300  0.33910  0.19390  Biso   1.000  H
  H162     1.0000 0.94700  0.33910  0.30610  Biso   1.000  H
  H163     1.0000 0.55300  0.83910  0.19390  Biso   1.000  H
  H164     1.0000 0.44700  0.83910  0.30610  Biso   1.000  H
  H165     1.0000 0.94700  0.66090  0.80610  Biso   1.000  H
  H166     1.0000 0.05300  0.66090  0.69390  Biso   1.000  H
  H167     1.0000 0.44700  0.16090  0.80610  Biso   1.000  H
  H168     1.0000 0.55300  0.16090  0.69390  Biso   1.000  H
  C217     1.0000 0.94380  0.14920  0.25150  Biso   1.000  C
  C218     1.0000 0.05620  0.14920  0.24850  Biso   1.000  C
  C219     1.0000 0.44380  0.64920  0.25150  Biso   1.000  C
  C220     1.0000 0.55620  0.64920  0.24850  Biso   1.000  C
  C221     1.0000 0.05620  0.85080  0.74850  Biso   1.000  C
  C222     1.0000 0.94380  0.85080  0.75150  Biso   1.000  C
  C223     1.0000 0.55620  0.35080  0.74850  Biso   1.000  C
  C224     1.0000 0.44380  0.35080  0.75150  Biso   1.000  C
  H169     1.0000 0.06700  0.11510  0.21670  Biso   1.000  H
  H170     1.0000 0.93300  0.11510  0.28330  Biso   1.000  H
  H171     1.0000 0.56700  0.61510  0.21670  Biso   1.000  H
  H172     1.0000 0.43300  0.61510  0.28330  Biso   1.000  H
  H173     1.0000 0.93300  0.88490  0.78330  Biso   1.000  H
  H174     1.0000 0.06700  0.88490  0.71670  Biso   1.000  H
  H175     1.0000 0.43300  0.38490  0.78330  Biso   1.000  H
  H176     1.0000 0.56700  0.38490  0.71670  Biso   1.000  H
  H177     1.0000 0.91400  0.11400  0.22100  Biso   1.000  H
  H178     1.0000 0.08600  0.11400  0.27900  Biso   1.000  H
  H179     1.0000 0.41400  0.61400  0.22100  Biso   1.000  H
  H180     1.0000 0.58600  0.61400  0.27900  Biso   1.000  H
  H181     1.0000 0.08600  0.88600  0.77900  Biso   1.000  H
  H182     1.0000 0.91400  0.88600  0.72100  Biso   1.000  H
  H183     1.0000 0.58600  0.38600  0.77900  Biso   1.000  H
  H184     1.0000 0.41400  0.38600  0.72100  Biso   1.000  H
  C225     1.0000 0.05700  0.31230  0.24890  Biso   1.000  C
  C226     1.0000 0.94300  0.31230  0.25110  Biso   1.000  C
  C227     1.0000 0.55700  0.81230  0.24890  Biso   1.000  C
  C228     1.0000 0.44300  0.81230  0.25110  Biso   1.000  C
  C229     1.0000 0.94300  0.68770  0.75110  Biso   1.000  C
  C230     1.0000 0.05700  0.68770  0.74890  Biso   1.000  C
  C231     1.0000 0.44300  0.18770  0.75110  Biso   1.000  C
  C232     1.0000 0.55700  0.18770  0.74890  Biso   1.000  C
  H185     1.0000 0.08660  0.34610  0.27980  Biso   1.000  H
  H186     1.0000 0.91340  0.34610  0.22020  Biso   1.000  H
  H187     1.0000 0.58660  0.84610  0.27980  Biso   1.000  H
  H188     1.0000 0.41340  0.84610  0.22020  Biso   1.000  H
  H189     1.0000 0.91340  0.65390  0.72020  Biso   1.000  H
  H190     1.0000 0.08660  0.65390  0.77980  Biso   1.000  H
  H191     1.0000 0.41340  0.15390  0.72020  Biso   1.000  H
  H192     1.0000 0.58660  0.15390  0.77980  Biso   1.000  H
  H193     1.0000 0.06840  0.34710  0.21740  Biso   1.000  H
  H194     1.0000 0.93160  0.34710  0.28260  Biso   1.000  H
  H195     1.0000 0.56840  0.84710  0.21740  Biso   1.000  H
  H196     1.0000 0.43160  0.84710  0.28260  Biso   1.000  H
  H197     1.0000 0.93160  0.65290  0.78260  Biso   1.000  H
  H198     1.0000 0.06840  0.65290  0.71740  Biso   1.000  H
  H199     1.0000 0.43160  0.15290  0.78260  Biso   1.000  H
  H200     1.0000 0.56840  0.15290  0.71740  Biso   1.000  H
  C233     1.0000 0.04700  0.15320  0.29230  Biso   1.000  C
  C234     1.0000 0.95300  0.15320  0.20770  Biso   1.000  C
  C235     1.0000 0.54700  0.65320  0.29230  Biso   1.000  C
  C236     1.0000 0.45300  0.65320  0.20770  Biso   1.000  C
  C237     1.0000 0.95300  0.84680  0.70770  Biso   1.000  C
  C238     1.0000 0.04700  0.84680  0.79230  Biso   1.000  C
  C239     1.0000 0.45300  0.34680  0.70770  Biso   1.000  C
  C240     1.0000 0.54700  0.34680  0.79230  Biso   1.000  C
  H201     1.0000 0.91420  0.11810  0.21120  Biso   1.000  H
  H202     1.0000 0.08580  0.11810  0.28880  Biso   1.000  H
  H203     1.0000 0.41420  0.61810  0.21120  Biso   1.000  H
  H204     1.0000 0.58580  0.61810  0.28880  Biso   1.000  H
  H205     1.0000 0.08580  0.88190  0.78880  Biso   1.000  H
  H206     1.0000 0.91420  0.88190  0.71120  Biso   1.000  H
  H207     1.0000 0.58580  0.38190  0.78880  Biso   1.000  H
  H208     1.0000 0.41420  0.38190  0.71120  Biso   1.000  H
  H209     1.0000 0.95900  0.12130  0.17380  Biso   1.000  H
  H210     1.0000 0.04100  0.12130  0.32620  Biso   1.000  H
  H211     1.0000 0.45900  0.62130  0.17380  Biso   1.000  H
  H212     1.0000 0.54100  0.62130  0.32620  Biso   1.000  H
  H213     1.0000 0.04100  0.87870  0.82620  Biso   1.000  H
  H214     1.0000 0.95900  0.87870  0.67380  Biso   1.000  H
  H215     1.0000 0.54100  0.37870  0.82620  Biso   1.000  H
  H216     1.0000 0.45900  0.37870  0.67380  Biso   1.000  H
  C241     1.0000 0.95320  0.31220  0.20930  Biso   1.000  C
  C242     1.0000 0.04680  0.31220  0.29070  Biso   1.000  C
  C243     1.0000 0.45320  0.81220  0.20930  Biso   1.000  C
  C244     1.0000 0.54680  0.81220  0.29070  Biso   1.000  C
  C245     1.0000 0.04680  0.68780  0.79070  Biso   1.000  C
  C246     1.0000 0.95320  0.68780  0.70930  Biso   1.000  C
  C247     1.0000 0.54680  0.18780  0.79070  Biso   1.000  C
  C248     1.0000 0.45320  0.18780  0.70930  Biso   1.000  C
  C249     1.0000 0.82250  0.68870  0.60460  Biso   1.000  C
  C250     1.0000 0.17750  0.68870  0.89540  Biso   1.000  C
  C251     1.0000 0.32250  0.18870  0.60460  Biso   1.000  C
  C252     1.0000 0.67750  0.18870  0.89540  Biso   1.000  C
  C253     1.0000 0.17750  0.31130  0.39540  Biso   1.000  C
  C254     1.0000 0.82250  0.31130  0.10460  Biso   1.000  C
  C255     1.0000 0.67750  0.81130  0.39540  Biso   1.000  C
  C256     1.0000 0.32250  0.81130  0.10460  Biso   1.000  C
  H217     1.0000 0.80710  0.67950  0.63460  Biso   1.000  H
  H218     1.0000 0.19290  0.67950  0.86540  Biso   1.000  H
  H219     1.0000 0.30710  0.17950  0.63460  Biso   1.000  H
  H220     1.0000 0.69290  0.17950  0.86540  Biso   1.000  H
  H221     1.0000 0.19290  0.32050  0.36540  Biso   1.000  H
  H222     1.0000 0.80710  0.32050  0.13460  Biso   1.000  H
  H223     1.0000 0.69290  0.82050  0.36540  Biso   1.000  H
  H224     1.0000 0.30710  0.82050  0.13460  Biso   1.000  H
  H225     1.0000 0.04230  0.34890  0.32450  Biso   1.000  H
  H226     1.0000 0.95770  0.34890  0.17550  Biso   1.000  H
  H227     1.0000 0.54230  0.84890  0.32450  Biso   1.000  H
  H228     1.0000 0.45770  0.84890  0.17550  Biso   1.000  H
  H229     1.0000 0.95770  0.65110  0.67550  Biso   1.000  H
  H230     1.0000 0.04230  0.65110  0.82450  Biso   1.000  H
  H231     1.0000 0.45770  0.15110  0.67550  Biso   1.000  H
  H232     1.0000 0.54230  0.15110  0.82450  Biso   1.000  H
  H233     1.0000 0.08510  0.34560  0.28530  Biso   1.000  H
  H234     1.0000 0.91490  0.34560  0.21470  Biso   1.000  H
  H235     1.0000 0.58510  0.84560  0.28530  Biso   1.000  H
  H236     1.0000 0.41490  0.84560  0.21470  Biso   1.000  H
  H237     1.0000 0.91490  0.65440  0.71470  Biso   1.000  H
  H238     1.0000 0.08510  0.65440  0.78530  Biso   1.000  H
  H239     1.0000 0.41490  0.15440  0.71470  Biso   1.000  H
  H240     1.0000 0.58510  0.15440  0.78530  Biso   1.000  H
