data_image0
_cell_length_a       12.797
_cell_length_b       12.797
_cell_length_c       39.098
_cell_angle_alpha    90
_cell_angle_beta     90
_cell_angle_gamma    90

_symmetry_space_group_name_H-M    "P 1"
_symmetry_int_tables_number       1

loop_
  _symmetry_equiv_pos_as_xyz
  'x, y, z'

loop_
  _atom_site_label
  _atom_site_occupancy
  _atom_site_fract_x
  _atom_site_fract_y
  _atom_site_fract_z
  _atom_site_thermal_displace_type
  _atom_site_B_iso_or_equiv
  _atom_site_type_symbol
  I1       1.0000 0.74610  0.16890  0.14847  Biso   1.000  I
  I2       1.0000 0.83110  0.74610  0.39847  Biso   1.000  I
  I3       1.0000 0.25390  0.83110  0.64847  Biso   1.000  I
  I4       1.0000 0.16890  0.25390  0.89847  Biso   1.000  I
  C1       1.0000 0.67790  0.02340  0.15080  Biso   1.000  C
  C2       1.0000 0.97660  0.67790  0.40080  Biso   1.000  C
  C3       1.0000 0.32210  0.97660  0.65080  Biso   1.000  C
  C4       1.0000 0.02340  0.32210  0.90080  Biso   1.000  C
  C5       1.0000 0.65650  0.96650  0.12140  Biso   1.000  C
  C6       1.0000 0.03350  0.65650  0.37140  Biso   1.000  C
  C7       1.0000 0.34350  0.03350  0.62140  Biso   1.000  C
  C8       1.0000 0.96650  0.34350  0.87140  Biso   1.000  C
  C9       1.0000 0.66790  0.97660  0.18280  Biso   1.000  C
  C10      1.0000 0.02340  0.66790  0.43280  Biso   1.000  C
  C11      1.0000 0.33210  0.02340  0.68280  Biso   1.000  C
  C12      1.0000 0.97660  0.33210  0.93280  Biso   1.000  C
  C13      1.0000 0.62520  0.86280  0.12380  Biso   1.000  C
  C14      1.0000 0.13720  0.62520  0.37380  Biso   1.000  C
  C15      1.0000 0.37480  0.13720  0.62380  Biso   1.000  C
  C16      1.0000 0.86280  0.37480  0.87380  Biso   1.000  C
  H1       1.0000 0.66330  0.99850  0.09960  Biso   1.000  H
  H2       1.0000 0.00150  0.66330  0.34960  Biso   1.000  H
  H3       1.0000 0.33670  0.00150  0.59960  Biso   1.000  H
  H4       1.0000 0.99850  0.33670  0.84960  Biso   1.000  H
  H5       1.0000 0.68260  0.01550  0.20290  Biso   1.000  H
  H6       1.0000 0.98450  0.68260  0.45290  Biso   1.000  H
  H7       1.0000 0.31740  0.98450  0.70290  Biso   1.000  H
  H8       1.0000 0.01550  0.31740  0.95290  Biso   1.000  H
  C17      1.0000 0.63660  0.87280  0.18520  Biso   1.000  C
  C18      1.0000 0.12720  0.63660  0.43520  Biso   1.000  C
  C19      1.0000 0.36340  0.12720  0.68520  Biso   1.000  C
  C20      1.0000 0.87280  0.36340  0.93520  Biso   1.000  C
  C21      1.0000 0.61520  0.81590  0.15570  Biso   1.000  C
  C22      1.0000 0.18410  0.61520  0.40570  Biso   1.000  C
  C23      1.0000 0.38480  0.18410  0.65570  Biso   1.000  C
  C24      1.0000 0.81590  0.38480  0.90570  Biso   1.000  C
  H9       1.0000 0.61060  0.82390  0.10370  Biso   1.000  H
  H10      1.0000 0.17610  0.61060  0.35370  Biso   1.000  H
  H11      1.0000 0.38940  0.17610  0.60370  Biso   1.000  H
  H12      1.0000 0.82390  0.38940  0.85370  Biso   1.000  H
  H13      1.0000 0.62980  0.84080  0.20700  Biso   1.000  H
  H14      1.0000 0.15920  0.62980  0.45700  Biso   1.000  H
  H15      1.0000 0.37020  0.15920  0.70700  Biso   1.000  H
  H16      1.0000 0.84080  0.37020  0.95700  Biso   1.000  H
  C25      1.0000 0.56800  0.70700  0.15560  Biso   1.000  C
  C26      1.0000 0.29300  0.56800  0.40560  Biso   1.000  C
  C27      1.0000 0.43200  0.29300  0.65560  Biso   1.000  C
  C28      1.0000 0.70700  0.43200  0.90560  Biso   1.000  C
  O1       1.0000 0.56450  0.66310  0.12900  Biso   1.000  O
  O2       1.0000 0.33690  0.56450  0.37900  Biso   1.000  O
  O3       1.0000 0.43550  0.33690  0.62900  Biso   1.000  O
  O4       1.0000 0.66310  0.43550  0.87900  Biso   1.000  O
  O5       1.0000 0.56290  0.66090  0.18650  Biso   1.000  O
  O6       1.0000 0.33910  0.56290  0.43650  Biso   1.000  O
  O7       1.0000 0.43710  0.33910  0.68650  Biso   1.000  O
  O8       1.0000 0.66090  0.43710  0.93650  Biso   1.000  O
  Cu1      1.0000 0.52790  0.50860  0.12554  Biso   1.000  Cu
  Cu2      1.0000 0.49140  0.52790  0.37554  Biso   1.000  Cu
  Cu3      1.0000 0.47210  0.49140  0.62554  Biso   1.000  Cu
  Cu4      1.0000 0.50860  0.47210  0.87554  Biso   1.000  Cu
  Cu5      1.0000 0.52370  0.51460  0.19300  Biso   1.000  Cu
  Cu6      1.0000 0.48540  0.52370  0.44300  Biso   1.000  Cu
  Cu7      1.0000 0.47630  0.48540  0.69300  Biso   1.000  Cu
  Cu8      1.0000 0.51460  0.47630  0.94300  Biso   1.000  Cu
  O9       1.0000 0.67490  0.47140  0.13190  Biso   1.000  O
  O10      1.0000 0.52860  0.67490  0.38190  Biso   1.000  O
  O11      1.0000 0.32510  0.52860  0.63190  Biso   1.000  O
  O12      1.0000 0.47140  0.32510  0.88190  Biso   1.000  O
  O13      1.0000 0.49770  0.35890  0.13230  Biso   1.000  O
  O14      1.0000 0.64110  0.49770  0.38230  Biso   1.000  O
  O15      1.0000 0.50230  0.64110  0.63230  Biso   1.000  O
  O16      1.0000 0.35890  0.50230  0.88230  Biso   1.000  O
  O17      1.0000 0.37230  0.54030  0.13010  Biso   1.000  O
  O18      1.0000 0.45970  0.37230  0.38010  Biso   1.000  O
  O19      1.0000 0.62770  0.45970  0.63010  Biso   1.000  O
  O20      1.0000 0.54030  0.62770  0.88010  Biso   1.000  O
  N1       1.0000 0.53240  0.50340  0.06870  Biso   1.000  N
  N2       1.0000 0.49660  0.53240  0.31870  Biso   1.000  N
  N3       1.0000 0.46760  0.49660  0.56870  Biso   1.000  N
  N4       1.0000 0.50340  0.46760  0.81870  Biso   1.000  N
  O21      1.0000 0.66460  0.47720  0.19010  Biso   1.000  O
  O22      1.0000 0.52280  0.66460  0.44010  Biso   1.000  O
  O23      1.0000 0.33540  0.52280  0.69010  Biso   1.000  O
  O24      1.0000 0.47720  0.33540  0.94010  Biso   1.000  O
  O25      1.0000 0.48460  0.37000  0.18820  Biso   1.000  O
  O26      1.0000 0.63000  0.48460  0.43820  Biso   1.000  O
  O27      1.0000 0.51540  0.63000  0.68820  Biso   1.000  O
  O28      1.0000 0.37000  0.51540  0.93820  Biso   1.000  O
  O29      1.0000 0.37940  0.55360  0.18570  Biso   1.000  O
  O30      1.0000 0.44640  0.37940  0.43570  Biso   1.000  O
  O31      1.0000 0.62060  0.44640  0.68570  Biso   1.000  O
  O32      1.0000 0.55360  0.62060  0.93570  Biso   1.000  O
  N5       1.0000 0.51800  0.48620  0.99800  Biso   1.000  N
  N6       1.0000 0.51380  0.51800  0.24800  Biso   1.000  N
  N7       1.0000 0.48200  0.51380  0.49800  Biso   1.000  N
  N8       1.0000 0.48620  0.48200  0.74800  Biso   1.000  N
  C29      1.0000 0.71210  0.45570  0.16020  Biso   1.000  C
  C30      1.0000 0.54430  0.71210  0.41020  Biso   1.000  C
  C31      1.0000 0.28790  0.54430  0.66020  Biso   1.000  C
  C32      1.0000 0.45570  0.28790  0.91020  Biso   1.000  C
  C33      1.0000 0.47540  0.31610  0.15710  Biso   1.000  C
  C34      1.0000 0.68390  0.47540  0.40710  Biso   1.000  C
  C35      1.0000 0.52460  0.68390  0.65710  Biso   1.000  C
  C36      1.0000 0.31610  0.52460  0.90710  Biso   1.000  C
  C37      1.0000 0.32800  0.57260  0.15640  Biso   1.000  C
  C38      1.0000 0.42740  0.32800  0.40640  Biso   1.000  C
  C39      1.0000 0.67200  0.42740  0.65640  Biso   1.000  C
  C40      1.0000 0.57260  0.67200  0.90640  Biso   1.000  C
  C41      1.0000 0.47080  0.57310  0.05040  Biso   1.000  C
  C42      1.0000 0.42690  0.47080  0.30040  Biso   1.000  C
  C43      1.0000 0.52920  0.42690  0.55040  Biso   1.000  C
  C44      1.0000 0.57310  0.52920  0.80040  Biso   1.000  C
  C45      1.0000 0.58690  0.42510  0.05170  Biso   1.000  C
  C46      1.0000 0.57490  0.58690  0.30170  Biso   1.000  C
  C47      1.0000 0.41310  0.57490  0.55170  Biso   1.000  C
  C48      1.0000 0.42510  0.41310  0.80170  Biso   1.000  C
  C49      1.0000 0.82860  0.41830  0.16530  Biso   1.000  C
  C50      1.0000 0.58170  0.82860  0.41530  Biso   1.000  C
  C51      1.0000 0.17140  0.58170  0.66530  Biso   1.000  C
  C52      1.0000 0.41830  0.17140  0.91530  Biso   1.000  C
  C53      1.0000 0.45580  0.20820  0.16170  Biso   1.000  C
  C54      1.0000 0.79180  0.45580  0.41170  Biso   1.000  C
  C55      1.0000 0.54420  0.79180  0.66170  Biso   1.000  C
  C56      1.0000 0.20820  0.54420  0.91170  Biso   1.000  C
  C57      1.0000 0.22340  0.59570  0.15730  Biso   1.000  C
  C58      1.0000 0.40430  0.22340  0.40730  Biso   1.000  C
  C59      1.0000 0.77660  0.40430  0.65730  Biso   1.000  C
  C60      1.0000 0.59570  0.77660  0.90730  Biso   1.000  C
  N9       1.0000 0.42800  0.65400  0.06380  Biso   1.000  N
  N10      1.0000 0.34600  0.42800  0.31380  Biso   1.000  N
  N11      1.0000 0.57200  0.34600  0.56380  Biso   1.000  N
  N12      1.0000 0.65400  0.57200  0.81380  Biso   1.000  N
  C61      1.0000 0.46360  0.56450  0.01500  Biso   1.000  C
  C62      1.0000 0.43550  0.46360  0.26500  Biso   1.000  C
  C63      1.0000 0.53640  0.43550  0.51500  Biso   1.000  C
  C64      1.0000 0.56450  0.53640  0.76500  Biso   1.000  C
  C65      1.0000 0.57970  0.41650  0.01640  Biso   1.000  C
  C66      1.0000 0.58350  0.57970  0.26640  Biso   1.000  C
  C67      1.0000 0.42030  0.58350  0.51640  Biso   1.000  C
  C68      1.0000 0.41650  0.42030  0.76640  Biso   1.000  C
  H17      1.0000 0.62900  0.37750  0.06430  Biso   1.000  H
  H18      1.0000 0.62250  0.62900  0.31430  Biso   1.000  H
  H19      1.0000 0.37100  0.62250  0.56430  Biso   1.000  H
  H20      1.0000 0.37750  0.37100  0.81430  Biso   1.000  H
  C69      1.0000 0.88420  0.39820  0.13550  Biso   1.000  C
  C70      1.0000 0.60180  0.88420  0.38550  Biso   1.000  C
  C71      1.0000 0.11580  0.60180  0.63550  Biso   1.000  C
  C72      1.0000 0.39820  0.11580  0.88550  Biso   1.000  C
  C73      1.0000 0.87780  0.41030  0.19690  Biso   1.000  C
  C74      1.0000 0.58970  0.87780  0.44690  Biso   1.000  C
  C75      1.0000 0.12220  0.58970  0.69690  Biso   1.000  C
  C76      1.0000 0.41030  0.12220  0.94690  Biso   1.000  C
  C77      1.0000 0.44670  0.15860  0.13020  Biso   1.000  C
  C78      1.0000 0.84140  0.44670  0.38020  Biso   1.000  C
  C79      1.0000 0.55330  0.84140  0.63020  Biso   1.000  C
  C80      1.0000 0.15860  0.55330  0.88020  Biso   1.000  C
  C81      1.0000 0.41780  0.16010  0.19110  Biso   1.000  C
  C82      1.0000 0.83990  0.41780  0.44110  Biso   1.000  C
  C83      1.0000 0.58220  0.83990  0.69110  Biso   1.000  C
  C84      1.0000 0.16010  0.58220  0.94110  Biso   1.000  C
  C85      1.0000 0.18100  0.63410  0.12710  Biso   1.000  C
  C86      1.0000 0.36590  0.18100  0.37710  Biso   1.000  C
  C87      1.0000 0.81900  0.36590  0.62710  Biso   1.000  C
  C88      1.0000 0.63410  0.81900  0.87710  Biso   1.000  C
  C89      1.0000 0.16410  0.59540  0.18710  Biso   1.000  C
  C90      1.0000 0.40460  0.16410  0.43710  Biso   1.000  C
  C91      1.0000 0.83590  0.40460  0.68710  Biso   1.000  C
  C92      1.0000 0.59540  0.83590  0.93710  Biso   1.000  C
  H21      1.0000 0.43690  0.66720  0.08560  Biso   1.000  H
  H22      1.0000 0.33280  0.43690  0.33560  Biso   1.000  H
  H23      1.0000 0.56310  0.33280  0.58560  Biso   1.000  H
  H24      1.0000 0.66720  0.56310  0.83560  Biso   1.000  H
  H25      1.0000 0.38950  0.69560  0.05110  Biso   1.000  H
  H26      1.0000 0.30440  0.38950  0.30110  Biso   1.000  H
  H27      1.0000 0.61050  0.30440  0.55110  Biso   1.000  H
  H28      1.0000 0.69560  0.61050  0.80110  Biso   1.000  H
  H29      1.0000 0.85050  0.40360  0.11390  Biso   1.000  H
  H30      1.0000 0.59640  0.85050  0.36390  Biso   1.000  H
  H31      1.0000 0.14950  0.59640  0.61390  Biso   1.000  H
  H32      1.0000 0.40360  0.14950  0.86390  Biso   1.000  H
  C93      1.0000 0.98890  0.37000  0.13730  Biso   1.000  C
  C94      1.0000 0.63000  0.98890  0.38730  Biso   1.000  C
  C95      1.0000 0.01110  0.63000  0.63730  Biso   1.000  C
  C96      1.0000 0.37000  0.01110  0.88730  Biso   1.000  C
  C97      1.0000 0.98260  0.38220  0.19870  Biso   1.000  C
  C98      1.0000 0.61780  0.98260  0.44870  Biso   1.000  C
  C99      1.0000 0.01740  0.61780  0.69870  Biso   1.000  C
  C100     1.0000 0.38220  0.01740  0.94870  Biso   1.000  C
  H33      1.0000 0.83990  0.42410  0.21730  Biso   1.000  H
  H34      1.0000 0.57590  0.83990  0.46730  Biso   1.000  H
  H35      1.0000 0.16010  0.57590  0.71730  Biso   1.000  H
  H36      1.0000 0.42410  0.16010  0.96730  Biso   1.000  H
  H37      1.0000 0.47270  0.19150  0.11010  Biso   1.000  H
  H38      1.0000 0.80850  0.47270  0.36010  Biso   1.000  H
  H39      1.0000 0.52730  0.80850  0.61010  Biso   1.000  H
  H40      1.0000 0.19150  0.52730  0.86010  Biso   1.000  H
  C101     1.0000 0.39960  0.06090  0.12810  Biso   1.000  C
  C102     1.0000 0.93910  0.39960  0.37810  Biso   1.000  C
  C103     1.0000 0.60040  0.93910  0.62810  Biso   1.000  C
  C104     1.0000 0.06090  0.60040  0.87810  Biso   1.000  C
  C105     1.0000 0.37070  0.06240  0.18890  Biso   1.000  C
  C106     1.0000 0.93760  0.37070  0.43890  Biso   1.000  C
  C107     1.0000 0.62930  0.93760  0.68890  Biso   1.000  C
  C108     1.0000 0.06240  0.62930  0.93890  Biso   1.000  C
  H41      1.0000 0.42400  0.19400  0.21260  Biso   1.000  H
  H42      1.0000 0.80600  0.42400  0.46260  Biso   1.000  H
  H43      1.0000 0.57600  0.80600  0.71260  Biso   1.000  H
  H44      1.0000 0.19400  0.57600  0.96260  Biso   1.000  H
  H45      1.0000 0.22150  0.63420  0.10670  Biso   1.000  H
  H46      1.0000 0.36580  0.22150  0.35670  Biso   1.000  H
  H47      1.0000 0.77850  0.36580  0.60670  Biso   1.000  H
  H48      1.0000 0.63420  0.77850  0.85670  Biso   1.000  H
  C109     1.0000 0.07920  0.67210  0.12670  Biso   1.000  C
  C110     1.0000 0.32790  0.07920  0.37670  Biso   1.000  C
  C111     1.0000 0.92080  0.32790  0.62670  Biso   1.000  C
  C112     1.0000 0.67210  0.92080  0.87670  Biso   1.000  C
  C113     1.0000 0.06240  0.63350  0.18670  Biso   1.000  C
  C114     1.0000 0.36650  0.06240  0.43670  Biso   1.000  C
  C115     1.0000 0.93760  0.36650  0.68670  Biso   1.000  C
  C116     1.0000 0.63350  0.93760  0.93670  Biso   1.000  C
  H49      1.0000 0.19310  0.56920  0.20770  Biso   1.000  H
  H50      1.0000 0.43080  0.19310  0.45770  Biso   1.000  H
  H51      1.0000 0.80690  0.43080  0.70770  Biso   1.000  H
  H52      1.0000 0.56920  0.80690  0.95770  Biso   1.000  H
  H53      1.0000 0.02690  0.35620  0.11690  Biso   1.000  H
  H54      1.0000 0.64380  0.02690  0.36690  Biso   1.000  H
  H55      1.0000 0.97310  0.64380  0.61690  Biso   1.000  H
  H56      1.0000 0.35620  0.97310  0.86690  Biso   1.000  H
  C117     1.0000 0.03820  0.36200  0.16890  Biso   1.000  C
  C118     1.0000 0.63800  0.03820  0.41890  Biso   1.000  C
  C119     1.0000 0.96180  0.63800  0.66890  Biso   1.000  C
  C120     1.0000 0.36200  0.96180  0.91890  Biso   1.000  C
  H57      1.0000 0.01620  0.37670  0.22030  Biso   1.000  H
  H58      1.0000 0.62330  0.01620  0.47030  Biso   1.000  H
  H59      1.0000 0.98380  0.62330  0.72030  Biso   1.000  H
  H60      1.0000 0.37670  0.98380  0.97030  Biso   1.000  H
  H61      1.0000 0.39340  0.02710  0.10650  Biso   1.000  H
  H62      1.0000 0.97290  0.39340  0.35650  Biso   1.000  H
  H63      1.0000 0.60660  0.97290  0.60650  Biso   1.000  H
  H64      1.0000 0.02710  0.60660  0.85650  Biso   1.000  H
  C121     1.0000 0.36160  0.01290  0.15740  Biso   1.000  C
  C122     1.0000 0.98710  0.36160  0.40740  Biso   1.000  C
  C123     1.0000 0.63840  0.98710  0.65740  Biso   1.000  C
  C124     1.0000 0.01290  0.63840  0.90740  Biso   1.000  C
  H65      1.0000 0.34470  0.02960  0.20900  Biso   1.000  H
  H66      1.0000 0.97040  0.34470  0.45900  Biso   1.000  H
  H67      1.0000 0.65530  0.97040  0.70900  Biso   1.000  H
  H68      1.0000 0.02960  0.65530  0.95900  Biso   1.000  H
  H69      1.0000 0.05020  0.69840  0.10600  Biso   1.000  H
  H70      1.0000 0.30160  0.05020  0.35600  Biso   1.000  H
  H71      1.0000 0.94980  0.30160  0.60600  Biso   1.000  H
  H72      1.0000 0.69840  0.94980  0.85600  Biso   1.000  H
  C125     1.0000 0.01990  0.67180  0.15650  Biso   1.000  C
  C126     1.0000 0.32820  0.01990  0.40650  Biso   1.000  C
  C127     1.0000 0.98010  0.32820  0.65650  Biso   1.000  C
  C128     1.0000 0.67180  0.98010  0.90650  Biso   1.000  C
  H73      1.0000 0.02190  0.63330  0.20700  Biso   1.000  H
  H74      1.0000 0.36670  0.02190  0.45700  Biso   1.000  H
  H75      1.0000 0.97810  0.36670  0.70700  Biso   1.000  H
  H76      1.0000 0.63330  0.97810  0.95700  Biso   1.000  H
  I5       1.0000 0.18287  0.29190  0.17072  Biso   1.000  I
  I6       1.0000 0.70810  0.18287  0.42072  Biso   1.000  I
  I7       1.0000 0.81713  0.70810  0.67072  Biso   1.000  I
  I8       1.0000 0.29190  0.81713  0.92072  Biso   1.000  I
  I9       1.0000 0.30370  0.85490  0.15612  Biso   1.000  I
  I10      1.0000 0.14510  0.30370  0.40612  Biso   1.000  I
  I11      1.0000 0.69630  0.14510  0.65612  Biso   1.000  I
  I12      1.0000 0.85490  0.69630  0.90612  Biso   1.000  I
  I13      1.0000 0.86645  0.73140  0.15852  Biso   1.000  I
  I14      1.0000 0.26860  0.86645  0.40852  Biso   1.000  I
  I15      1.0000 0.13355  0.26860  0.65852  Biso   1.000  I
  I16      1.0000 0.73140  0.13355  0.90852  Biso   1.000  I
  N13      1.0000 0.40640  0.63080  0.99930  Biso   1.000  N
  N14      1.0000 0.36920  0.40640  0.24930  Biso   1.000  N
  N15      1.0000 0.59360  0.36920  0.49930  Biso   1.000  N
  N16      1.0000 0.63080  0.59360  0.74930  Biso   1.000  N
  H77      1.0000 0.37340  0.67970  0.01080  Biso   1.000  H
  H78      1.0000 0.32030  0.37340  0.26080  Biso   1.000  H
  H79      1.0000 0.62660  0.32030  0.51080  Biso   1.000  H
  H80      1.0000 0.67970  0.62660  0.76080  Biso   1.000  H
  H81      1.0000 0.40020  0.62760  0.97690  Biso   1.000  H
  H82      1.0000 0.37240  0.40020  0.22690  Biso   1.000  H
  H83      1.0000 0.59980  0.37240  0.47690  Biso   1.000  H
  H84      1.0000 0.62760  0.59980  0.72690  Biso   1.000  H
  N17      1.0000 0.62200  0.34800  0.99680  Biso   1.000  N
  N18      1.0000 0.65200  0.62200  0.24680  Biso   1.000  N
  N19      1.0000 0.37800  0.65200  0.49680  Biso   1.000  N
  N20      1.0000 0.34800  0.37800  0.74680  Biso   1.000  N
  H85      1.0000 0.61000  0.34960  0.97470  Biso   1.000  H
  H86      1.0000 0.65040  0.61000  0.22470  Biso   1.000  H
  H87      1.0000 0.39000  0.65040  0.47470  Biso   1.000  H
  H88      1.0000 0.34960  0.39000  0.72470  Biso   1.000  H
  H89      1.0000 0.66270  0.29970  0.00560  Biso   1.000  H
  H90      1.0000 0.70030  0.66270  0.25560  Biso   1.000  H
  H91      1.0000 0.33730  0.70030  0.50560  Biso   1.000  H
  H92      1.0000 0.29970  0.33730  0.75560  Biso   1.000  H
