data_image0
_cell_length_a       15.603
_cell_length_b       11.126
_cell_length_c       29.859
_cell_angle_alpha    90
_cell_angle_beta     90.711
_cell_angle_gamma    90

_symmetry_space_group_name_H-M    "P 1"
_symmetry_int_tables_number       1

loop_
  _symmetry_equiv_pos_as_xyz
  'x, y, z'

loop_
  _atom_site_label
  _atom_site_occupancy
  _atom_site_fract_x
  _atom_site_fract_y
  _atom_site_fract_z
  _atom_site_thermal_displace_type
  _atom_site_B_iso_or_equiv
  _atom_site_type_symbol
  Cu1      1.0000 0.50000  0.19924  0.75000  Biso   1.000  Cu
  Cu2      1.0000 0.00000  0.69924  0.75000  Biso   1.000  Cu
  Cu3      1.0000 0.50000  0.80076  0.25000  Biso   1.000  Cu
  Cu4      1.0000 0.00000  0.30076  0.25000  Biso   1.000  Cu
  O1       1.0000 0.50783  0.19179  0.68457  Biso   1.000  O
  O2       1.0000 0.49217  0.19179  0.81543  Biso   1.000  O
  O3       1.0000 0.00783  0.69179  0.68457  Biso   1.000  O
  O4       1.0000 0.99217  0.69179  0.81543  Biso   1.000  O
  O5       1.0000 0.49217  0.80821  0.31543  Biso   1.000  O
  O6       1.0000 0.50783  0.80821  0.18457  Biso   1.000  O
  O7       1.0000 0.99217  0.30821  0.31543  Biso   1.000  O
  O8       1.0000 0.00783  0.30821  0.18457  Biso   1.000  O
  N1       1.0000 0.50000  0.01960  0.75000  Biso   1.000  N
  N2       1.0000 0.00000  0.51960  0.75000  Biso   1.000  N
  N3       1.0000 0.50000  0.98040  0.25000  Biso   1.000  N
  N4       1.0000 0.00000  0.48040  0.25000  Biso   1.000  N
  C1       1.0000 0.56348  0.24219  0.66005  Biso   1.000  C
  C2       1.0000 0.43652  0.24219  0.83995  Biso   1.000  C
  C3       1.0000 0.06348  0.74219  0.66005  Biso   1.000  C
  C4       1.0000 0.93652  0.74219  0.83995  Biso   1.000  C
  C5       1.0000 0.43652  0.75781  0.33995  Biso   1.000  C
  C6       1.0000 0.56348  0.75781  0.16005  Biso   1.000  C
  C7       1.0000 0.93652  0.25781  0.33995  Biso   1.000  C
  C8       1.0000 0.06348  0.25781  0.16005  Biso   1.000  C
  O9       1.0000 0.62929  0.29471  0.67438  Biso   1.000  O
  O10      1.0000 0.37071  0.29471  0.82562  Biso   1.000  O
  O11      1.0000 0.12929  0.79471  0.67438  Biso   1.000  O
  O12      1.0000 0.87071  0.79471  0.82562  Biso   1.000  O
  O13      1.0000 0.37071  0.70529  0.32562  Biso   1.000  O
  O14      1.0000 0.62929  0.70529  0.17438  Biso   1.000  O
  O15      1.0000 0.87071  0.20529  0.32562  Biso   1.000  O
  O16      1.0000 0.12929  0.20529  0.17438  Biso   1.000  O
  N5       1.0000 0.50000  0.38099  0.75000  Biso   1.000  N
  N6       1.0000 0.00000  0.88099  0.75000  Biso   1.000  N
  N7       1.0000 0.50000  0.61901  0.25000  Biso   1.000  N
  N8       1.0000 0.00000  0.11901  0.25000  Biso   1.000  N
  C9       1.0000 0.54540  0.23917  0.61040  Biso   1.000  C
  C10      1.0000 0.45460  0.23917  0.88960  Biso   1.000  C
  C11      1.0000 0.04540  0.73917  0.61040  Biso   1.000  C
  C12      1.0000 0.95460  0.73917  0.88960  Biso   1.000  C
  C13      1.0000 0.45460  0.76083  0.38960  Biso   1.000  C
  C14      1.0000 0.54540  0.76083  0.11040  Biso   1.000  C
  C15      1.0000 0.95460  0.26083  0.38960  Biso   1.000  C
  C16      1.0000 0.04540  0.26083  0.11040  Biso   1.000  C
  O17      1.0000 0.66240  0.18859  0.75392  Biso   1.000  O
  O18      1.0000 0.33760  0.18859  0.74608  Biso   1.000  O
  O19      1.0000 0.16240  0.68859  0.75392  Biso   1.000  O
  O20      1.0000 0.83760  0.68859  0.74608  Biso   1.000  O
  O21      1.0000 0.33760  0.81141  0.24608  Biso   1.000  O
  O22      1.0000 0.66240  0.81141  0.25392  Biso   1.000  O
  O23      1.0000 0.83760  0.31141  0.24608  Biso   1.000  O
  O24      1.0000 0.16240  0.31141  0.25392  Biso   1.000  O
  H1       1.0000 0.66250  0.22980  0.73040  Biso   1.000  H
  H2       1.0000 0.33750  0.22980  0.76960  Biso   1.000  H
  H3       1.0000 0.16250  0.72980  0.73040  Biso   1.000  H
  H4       1.0000 0.83750  0.72980  0.76960  Biso   1.000  H
  H5       1.0000 0.33750  0.77020  0.26960  Biso   1.000  H
  H6       1.0000 0.66250  0.77020  0.23040  Biso   1.000  H
  H7       1.0000 0.83750  0.27020  0.26960  Biso   1.000  H
  H8       1.0000 0.16250  0.27020  0.23040  Biso   1.000  H
  C17      1.0000 0.58609  0.32086  0.58263  Biso   1.000  C
  C18      1.0000 0.41391  0.32086  0.91737  Biso   1.000  C
  C19      1.0000 0.08609  0.82086  0.58263  Biso   1.000  C
  C20      1.0000 0.91391  0.82086  0.91737  Biso   1.000  C
  C21      1.0000 0.41391  0.67914  0.41737  Biso   1.000  C
  C22      1.0000 0.58609  0.67914  0.08263  Biso   1.000  C
  C23      1.0000 0.91391  0.17914  0.41737  Biso   1.000  C
  C24      1.0000 0.08609  0.17914  0.08263  Biso   1.000  C
  H9       1.0000 0.62730  0.37460  0.59500  Biso   1.000  H
  H10      1.0000 0.37270  0.37460  0.90500  Biso   1.000  H
  H11      1.0000 0.12730  0.87460  0.59500  Biso   1.000  H
  H12      1.0000 0.87270  0.87460  0.90500  Biso   1.000  H
  H13      1.0000 0.37270  0.62540  0.40500  Biso   1.000  H
  H14      1.0000 0.62730  0.62540  0.09500  Biso   1.000  H
  H15      1.0000 0.87270  0.12540  0.40500  Biso   1.000  H
  H16      1.0000 0.12730  0.12540  0.09500  Biso   1.000  H
  O25      1.0000 0.78541  0.40035  0.65553  Biso   1.000  O
  O26      1.0000 0.21459  0.40035  0.84447  Biso   1.000  O
  O27      1.0000 0.28541  0.90035  0.65553  Biso   1.000  O
  O28      1.0000 0.71459  0.90035  0.84447  Biso   1.000  O
  O29      1.0000 0.21459  0.59965  0.34447  Biso   1.000  O
  O30      1.0000 0.78541  0.59965  0.15553  Biso   1.000  O
  O31      1.0000 0.71459  0.09965  0.34447  Biso   1.000  O
  O32      1.0000 0.28541  0.09965  0.15553  Biso   1.000  O
  H17      1.0000 0.73490  0.37680  0.65930  Biso   1.000  H
  H18      1.0000 0.26510  0.37680  0.84070  Biso   1.000  H
  H19      1.0000 0.23490  0.87680  0.65930  Biso   1.000  H
  H20      1.0000 0.76510  0.87680  0.84070  Biso   1.000  H
  H21      1.0000 0.26510  0.62320  0.34070  Biso   1.000  H
  H22      1.0000 0.73490  0.62320  0.15930  Biso   1.000  H
  H23      1.0000 0.76510  0.12320  0.34070  Biso   1.000  H
  H24      1.0000 0.23490  0.12320  0.15930  Biso   1.000  H
  C25      1.0000 0.56734  0.32500  0.53717  Biso   1.000  C
  C26      1.0000 0.43266  0.32500  0.96283  Biso   1.000  C
  C27      1.0000 0.06734  0.82500  0.53717  Biso   1.000  C
  C28      1.0000 0.93266  0.82500  0.96283  Biso   1.000  C
  C29      1.0000 0.43266  0.67500  0.46283  Biso   1.000  C
  C30      1.0000 0.56734  0.67500  0.03717  Biso   1.000  C
  C31      1.0000 0.93266  0.17500  0.46283  Biso   1.000  C
  C32      1.0000 0.06734  0.17500  0.03717  Biso   1.000  C
  H25      1.0000 0.59580  0.38170  0.51880  Biso   1.000  H
  H26      1.0000 0.40420  0.38170  0.98120  Biso   1.000  H
  H27      1.0000 0.09580  0.88170  0.51880  Biso   1.000  H
  H28      1.0000 0.90420  0.88170  0.98120  Biso   1.000  H
  H29      1.0000 0.40420  0.61830  0.48120  Biso   1.000  H
  H30      1.0000 0.59580  0.61830  0.01880  Biso   1.000  H
  H31      1.0000 0.90420  0.11830  0.48120  Biso   1.000  H
  H32      1.0000 0.09580  0.11830  0.01880  Biso   1.000  H
  C33      1.0000 0.50711  0.24696  0.51788  Biso   1.000  C
  C34      1.0000 0.49289  0.24696  0.98212  Biso   1.000  C
  C35      1.0000 0.00711  0.74696  0.51788  Biso   1.000  C
  C36      1.0000 0.99289  0.74696  0.98212  Biso   1.000  C
  C37      1.0000 0.49289  0.75304  0.48212  Biso   1.000  C
  C38      1.0000 0.50711  0.75304  0.01788  Biso   1.000  C
  C39      1.0000 0.99289  0.25304  0.48212  Biso   1.000  C
  C40      1.0000 0.00711  0.25304  0.01788  Biso   1.000  C
  C41      1.0000 0.46732  0.16329  0.54602  Biso   1.000  C
  C42      1.0000 0.53268  0.16329  0.95398  Biso   1.000  C
  C43      1.0000 0.96732  0.66329  0.54602  Biso   1.000  C
  C44      1.0000 0.03268  0.66329  0.95398  Biso   1.000  C
  C45      1.0000 0.53268  0.83671  0.45398  Biso   1.000  C
  C46      1.0000 0.46732  0.83671  0.04602  Biso   1.000  C
  C47      1.0000 0.03268  0.33671  0.45398  Biso   1.000  C
  C48      1.0000 0.96732  0.33671  0.04602  Biso   1.000  C
  H33      1.0000 0.42670  0.10850  0.53370  Biso   1.000  H
  H34      1.0000 0.57330  0.10850  0.96630  Biso   1.000  H
  H35      1.0000 0.92670  0.60850  0.53370  Biso   1.000  H
  H36      1.0000 0.07330  0.60850  0.96630  Biso   1.000  H
  H37      1.0000 0.57330  0.89150  0.46630  Biso   1.000  H
  H38      1.0000 0.42670  0.89150  0.03370  Biso   1.000  H
  H39      1.0000 0.07330  0.39150  0.46630  Biso   1.000  H
  H40      1.0000 0.92670  0.39150  0.03370  Biso   1.000  H
  C49      1.0000 0.48643  0.15938  0.59157  Biso   1.000  C
  C50      1.0000 0.51357  0.15938  0.90843  Biso   1.000  C
  C51      1.0000 0.98643  0.65938  0.59157  Biso   1.000  C
  C52      1.0000 0.01357  0.65938  0.90843  Biso   1.000  C
  C53      1.0000 0.51357  0.84062  0.40843  Biso   1.000  C
  C54      1.0000 0.48643  0.84062  0.09157  Biso   1.000  C
  C55      1.0000 0.01357  0.34062  0.40843  Biso   1.000  C
  C56      1.0000 0.98643  0.34062  0.09157  Biso   1.000  C
  H41      1.0000 0.45900  0.10180  0.61000  Biso   1.000  H
  H42      1.0000 0.54100  0.10180  0.89000  Biso   1.000  H
  H43      1.0000 0.95900  0.60180  0.61000  Biso   1.000  H
  H44      1.0000 0.04100  0.60180  0.89000  Biso   1.000  H
  H45      1.0000 0.54100  0.89820  0.39000  Biso   1.000  H
  H46      1.0000 0.45900  0.89820  0.11000  Biso   1.000  H
  H47      1.0000 0.04100  0.39820  0.39000  Biso   1.000  H
  H48      1.0000 0.95900  0.39820  0.11000  Biso   1.000  H
  C57      1.0000 0.48516  0.25331  0.46920  Biso   1.000  C
  C58      1.0000 0.51484  0.25331  0.03080  Biso   1.000  C
  C59      1.0000 0.98516  0.75331  0.46920  Biso   1.000  C
  C60      1.0000 0.01484  0.75331  0.03080  Biso   1.000  C
  C61      1.0000 0.51484  0.74669  0.53080  Biso   1.000  C
  C62      1.0000 0.48516  0.74669  0.96920  Biso   1.000  C
  C63      1.0000 0.01484  0.24669  0.53080  Biso   1.000  C
  C64      1.0000 0.98516  0.24669  0.96920  Biso   1.000  C
  C65      1.0000 0.49465  0.35976  0.44523  Biso   1.000  C
  C66      1.0000 0.50535  0.35976  0.05477  Biso   1.000  C
  C67      1.0000 0.99465  0.85976  0.44523  Biso   1.000  C
  C68      1.0000 0.00535  0.85976  0.05477  Biso   1.000  C
  C69      1.0000 0.50535  0.64024  0.55477  Biso   1.000  C
  C70      1.0000 0.49465  0.64024  0.94523  Biso   1.000  C
  C71      1.0000 0.00535  0.14024  0.55477  Biso   1.000  C
  C72      1.0000 0.99465  0.14024  0.94523  Biso   1.000  C
  H49      1.0000 0.51700  0.42890  0.45990  Biso   1.000  H
  H50      1.0000 0.48300  0.42890  0.04010  Biso   1.000  H
  H51      1.0000 0.01700  0.92890  0.45990  Biso   1.000  H
  H52      1.0000 0.98300  0.92890  0.04010  Biso   1.000  H
  H53      1.0000 0.48300  0.57110  0.54010  Biso   1.000  H
  H54      1.0000 0.51700  0.57110  0.95990  Biso   1.000  H
  H55      1.0000 0.98300  0.07110  0.54010  Biso   1.000  H
  H56      1.0000 0.01700  0.07110  0.95990  Biso   1.000  H
  C73      1.0000 0.47185  0.36656  0.40005  Biso   1.000  C
  C74      1.0000 0.52815  0.36656  0.09995  Biso   1.000  C
  C75      1.0000 0.97185  0.86656  0.40005  Biso   1.000  C
  C76      1.0000 0.02815  0.86656  0.09995  Biso   1.000  C
  C77      1.0000 0.52815  0.63344  0.59995  Biso   1.000  C
  C78      1.0000 0.47185  0.63344  0.90005  Biso   1.000  C
  C79      1.0000 0.02815  0.13344  0.59995  Biso   1.000  C
  C80      1.0000 0.97185  0.13344  0.90005  Biso   1.000  C
  H57      1.0000 0.47910  0.43980  0.38420  Biso   1.000  H
  H58      1.0000 0.52090  0.43980  0.11580  Biso   1.000  H
  H59      1.0000 0.97910  0.93980  0.38420  Biso   1.000  H
  H60      1.0000 0.02090  0.93980  0.11580  Biso   1.000  H
  H61      1.0000 0.52090  0.56020  0.61580  Biso   1.000  H
  H62      1.0000 0.47910  0.56020  0.88420  Biso   1.000  H
  H63      1.0000 0.02090  0.06020  0.61580  Biso   1.000  H
  H64      1.0000 0.97910  0.06020  0.88420  Biso   1.000  H
  C81      1.0000 0.43883  0.26720  0.37824  Biso   1.000  C
  C82      1.0000 0.56117  0.26720  0.12176  Biso   1.000  C
  C83      1.0000 0.93883  0.76720  0.37824  Biso   1.000  C
  C84      1.0000 0.06117  0.76720  0.12176  Biso   1.000  C
  C85      1.0000 0.56117  0.73280  0.62176  Biso   1.000  C
  C86      1.0000 0.43883  0.73280  0.87824  Biso   1.000  C
  C87      1.0000 0.06117  0.23280  0.62176  Biso   1.000  C
  C88      1.0000 0.93883  0.23280  0.87824  Biso   1.000  C
  H65      1.0000 0.42230  0.27230  0.34760  Biso   1.000  H
  H66      1.0000 0.57770  0.27230  0.15240  Biso   1.000  H
  H67      1.0000 0.92230  0.77230  0.34760  Biso   1.000  H
  H68      1.0000 0.07770  0.77230  0.15240  Biso   1.000  H
  H69      1.0000 0.57770  0.72770  0.65240  Biso   1.000  H
  H70      1.0000 0.42230  0.72770  0.84760  Biso   1.000  H
  H71      1.0000 0.07770  0.22770  0.65240  Biso   1.000  H
  H72      1.0000 0.92230  0.22770  0.84760  Biso   1.000  H
  C89      1.0000 0.42993  0.15989  0.40126  Biso   1.000  C
  C90      1.0000 0.57007  0.15989  0.09874  Biso   1.000  C
  C91      1.0000 0.92993  0.65989  0.40126  Biso   1.000  C
  C92      1.0000 0.07007  0.65989  0.09874  Biso   1.000  C
  C93      1.0000 0.57007  0.84011  0.59874  Biso   1.000  C
  C94      1.0000 0.42993  0.84011  0.90126  Biso   1.000  C
  C95      1.0000 0.07007  0.34011  0.59874  Biso   1.000  C
  C96      1.0000 0.92993  0.34011  0.90126  Biso   1.000  C
  H73      1.0000 0.40780  0.09100  0.38630  Biso   1.000  H
  H74      1.0000 0.59220  0.09100  0.11370  Biso   1.000  H
  H75      1.0000 0.90780  0.59100  0.38630  Biso   1.000  H
  H76      1.0000 0.09220  0.59100  0.11370  Biso   1.000  H
  H77      1.0000 0.59220  0.90900  0.61370  Biso   1.000  H
  H78      1.0000 0.40780  0.90900  0.88630  Biso   1.000  H
  H79      1.0000 0.09220  0.40900  0.61370  Biso   1.000  H
  H80      1.0000 0.90780  0.40900  0.88630  Biso   1.000  H
  C97      1.0000 0.45327  0.15279  0.44629  Biso   1.000  C
  C98      1.0000 0.54673  0.15279  0.05371  Biso   1.000  C
  C99      1.0000 0.95327  0.65279  0.44629  Biso   1.000  C
  C100     1.0000 0.04673  0.65279  0.05371  Biso   1.000  C
  C101     1.0000 0.54673  0.84721  0.55371  Biso   1.000  C
  C102     1.0000 0.45327  0.84721  0.94629  Biso   1.000  C
  C103     1.0000 0.04673  0.34721  0.55371  Biso   1.000  C
  C104     1.0000 0.95327  0.34721  0.94629  Biso   1.000  C
  H81      1.0000 0.44750  0.07860  0.46170  Biso   1.000  H
  H82      1.0000 0.55250  0.07860  0.03830  Biso   1.000  H
  H83      1.0000 0.94750  0.57860  0.46170  Biso   1.000  H
  H84      1.0000 0.05250  0.57860  0.03830  Biso   1.000  H
  H85      1.0000 0.55250  0.92140  0.53830  Biso   1.000  H
  H86      1.0000 0.44750  0.92140  0.96170  Biso   1.000  H
  H87      1.0000 0.05250  0.42140  0.53830  Biso   1.000  H
  H88      1.0000 0.94750  0.42140  0.96170  Biso   1.000  H
  C105     1.0000 0.44912  0.95740  0.72190  Biso   1.000  C
  C106     1.0000 0.55088  0.95740  0.77810  Biso   1.000  C
  C107     1.0000 0.94912  0.45740  0.72190  Biso   1.000  C
  C108     1.0000 0.05088  0.45740  0.77810  Biso   1.000  C
  C109     1.0000 0.55088  0.04260  0.27810  Biso   1.000  C
  C110     1.0000 0.44912  0.04260  0.22190  Biso   1.000  C
  C111     1.0000 0.05088  0.54260  0.27810  Biso   1.000  C
  C112     1.0000 0.94912  0.54260  0.22190  Biso   1.000  C
  H89      1.0000 0.41300  0.00050  0.70170  Biso   1.000  H
  H90      1.0000 0.58700  0.00050  0.79830  Biso   1.000  H
  H91      1.0000 0.91300  0.50050  0.70170  Biso   1.000  H
  H92      1.0000 0.08700  0.50050  0.79830  Biso   1.000  H
  H93      1.0000 0.58700  0.99950  0.29830  Biso   1.000  H
  H94      1.0000 0.41300  0.99950  0.20170  Biso   1.000  H
  H95      1.0000 0.08700  0.49950  0.29830  Biso   1.000  H
  H96      1.0000 0.91300  0.49950  0.20170  Biso   1.000  H
  C113     1.0000 0.44693  0.83338  0.72101  Biso   1.000  C
  C114     1.0000 0.55307  0.83338  0.77899  Biso   1.000  C
  C115     1.0000 0.94693  0.33338  0.72101  Biso   1.000  C
  C116     1.0000 0.05307  0.33338  0.77899  Biso   1.000  C
  C117     1.0000 0.55307  0.16662  0.27899  Biso   1.000  C
  C118     1.0000 0.44693  0.16662  0.22101  Biso   1.000  C
  C119     1.0000 0.05307  0.66662  0.27899  Biso   1.000  C
  C120     1.0000 0.94693  0.66662  0.22101  Biso   1.000  C
  H97      1.0000 0.40950  0.79280  0.70080  Biso   1.000  H
  H98      1.0000 0.59050  0.79280  0.79920  Biso   1.000  H
  H99      1.0000 0.90950  0.29280  0.70080  Biso   1.000  H
  H100     1.0000 0.09050  0.29280  0.79920  Biso   1.000  H
  H101     1.0000 0.59050  0.20720  0.29920  Biso   1.000  H
  H102     1.0000 0.40950  0.20720  0.20080  Biso   1.000  H
  H103     1.0000 0.09050  0.70720  0.29920  Biso   1.000  H
  H104     1.0000 0.90950  0.70720  0.20080  Biso   1.000  H
  C121     1.0000 0.50000  0.76800  0.75000  Biso   1.000  C
  C122     1.0000 0.00000  0.26800  0.75000  Biso   1.000  C
  C123     1.0000 0.50000  0.23200  0.25000  Biso   1.000  C
  C124     1.0000 0.00000  0.73200  0.25000  Biso   1.000  C
  C125     1.0000 0.50000  0.63390  0.75000  Biso   1.000  C
  C126     1.0000 0.00000  0.13390  0.75000  Biso   1.000  C
  C127     1.0000 0.50000  0.36610  0.25000  Biso   1.000  C
  C128     1.0000 0.00000  0.86610  0.25000  Biso   1.000  C
  C129     1.0000 0.46069  0.56801  0.71585  Biso   1.000  C
  C130     1.0000 0.53931  0.56801  0.78415  Biso   1.000  C
  C131     1.0000 0.96069  0.06801  0.71585  Biso   1.000  C
  C132     1.0000 0.03931  0.06801  0.78415  Biso   1.000  C
  C133     1.0000 0.53931  0.43199  0.28415  Biso   1.000  C
  C134     1.0000 0.46069  0.43199  0.21585  Biso   1.000  C
  C135     1.0000 0.03931  0.93199  0.28415  Biso   1.000  C
  C136     1.0000 0.96069  0.93199  0.21585  Biso   1.000  C
  H105     1.0000 0.43280  0.60850  0.69180  Biso   1.000  H
  H106     1.0000 0.56720  0.60850  0.80820  Biso   1.000  H
  H107     1.0000 0.93280  0.10850  0.69180  Biso   1.000  H
  H108     1.0000 0.06720  0.10850  0.80820  Biso   1.000  H
  H109     1.0000 0.56720  0.39150  0.30820  Biso   1.000  H
  H110     1.0000 0.43280  0.39150  0.19180  Biso   1.000  H
  H111     1.0000 0.06720  0.89150  0.30820  Biso   1.000  H
  H112     1.0000 0.93280  0.89150  0.19180  Biso   1.000  H
  C137     1.0000 0.46213  0.44390  0.71688  Biso   1.000  C
  C138     1.0000 0.53787  0.44390  0.78312  Biso   1.000  C
  C139     1.0000 0.96213  0.94390  0.71688  Biso   1.000  C
  C140     1.0000 0.03787  0.94390  0.78312  Biso   1.000  C
  C141     1.0000 0.53787  0.55610  0.28312  Biso   1.000  C
  C142     1.0000 0.46213  0.55610  0.21688  Biso   1.000  C
  C143     1.0000 0.03787  0.05610  0.28312  Biso   1.000  C
  C144     1.0000 0.96213  0.05610  0.21688  Biso   1.000  C
  H113     1.0000 0.43510  0.40110  0.69310  Biso   1.000  H
  H114     1.0000 0.56490  0.40110  0.80690  Biso   1.000  H
  H115     1.0000 0.93510  0.90110  0.69310  Biso   1.000  H
  H116     1.0000 0.06490  0.90110  0.80690  Biso   1.000  H
  H117     1.0000 0.56490  0.59890  0.30690  Biso   1.000  H
  H118     1.0000 0.43510  0.59890  0.19310  Biso   1.000  H
  H119     1.0000 0.06490  0.09890  0.30690  Biso   1.000  H
  H120     1.0000 0.93510  0.09890  0.19310  Biso   1.000  H
  C145     1.0000 0.74032  0.20860  0.77844  Biso   1.000  C
  C146     1.0000 0.25968  0.20860  0.72156  Biso   1.000  C
  C147     1.0000 0.24032  0.70860  0.77844  Biso   1.000  C
  C148     1.0000 0.75968  0.70860  0.72156  Biso   1.000  C
  C149     1.0000 0.25968  0.79140  0.22156  Biso   1.000  C
  C150     1.0000 0.74032  0.79140  0.27844  Biso   1.000  C
  C151     1.0000 0.75968  0.29140  0.22156  Biso   1.000  C
  C152     1.0000 0.24032  0.29140  0.27844  Biso   1.000  C
  H121     1.0000 0.78650  0.22880  0.75730  Biso   1.000  H
  H122     1.0000 0.21350  0.22880  0.74270  Biso   1.000  H
  H123     1.0000 0.28650  0.72880  0.75730  Biso   1.000  H
  H124     1.0000 0.71350  0.72880  0.74270  Biso   1.000  H
  H125     1.0000 0.21350  0.77120  0.24270  Biso   1.000  H
  H126     1.0000 0.78650  0.77120  0.25730  Biso   1.000  H
  H127     1.0000 0.71350  0.27120  0.24270  Biso   1.000  H
  H128     1.0000 0.28650  0.27120  0.25730  Biso   1.000  H
  H129     1.0000 0.75690  0.13370  0.79420  Biso   1.000  H
  H130     1.0000 0.24310  0.13370  0.70580  Biso   1.000  H
  H131     1.0000 0.25690  0.63370  0.79420  Biso   1.000  H
  H132     1.0000 0.74310  0.63370  0.70580  Biso   1.000  H
  H133     1.0000 0.24310  0.86630  0.20580  Biso   1.000  H
  H134     1.0000 0.75690  0.86630  0.29420  Biso   1.000  H
  H135     1.0000 0.74310  0.36630  0.20580  Biso   1.000  H
  H136     1.0000 0.25690  0.36630  0.29420  Biso   1.000  H
  C153     1.0000 0.73185  0.30839  0.81202  Biso   1.000  C
  C154     1.0000 0.26815  0.30839  0.68798  Biso   1.000  C
  C155     1.0000 0.23185  0.80839  0.81202  Biso   1.000  C
  C156     1.0000 0.76815  0.80839  0.68798  Biso   1.000  C
  C157     1.0000 0.26815  0.69161  0.18798  Biso   1.000  C
  C158     1.0000 0.73185  0.69161  0.31202  Biso   1.000  C
  C159     1.0000 0.76815  0.19161  0.18798  Biso   1.000  C
  C160     1.0000 0.23185  0.19161  0.31202  Biso   1.000  C
  C161     1.0000 0.76355  0.42380  0.80435  Biso   1.000  C
  C162     1.0000 0.23645  0.42380  0.69565  Biso   1.000  C
  C163     1.0000 0.26355  0.92380  0.80435  Biso   1.000  C
  C164     1.0000 0.73645  0.92380  0.69565  Biso   1.000  C
  C165     1.0000 0.23645  0.57620  0.19565  Biso   1.000  C
  C166     1.0000 0.76355  0.57620  0.30435  Biso   1.000  C
  C167     1.0000 0.73645  0.07620  0.19565  Biso   1.000  C
  C168     1.0000 0.26355  0.07620  0.30435  Biso   1.000  C
  H137     1.0000 0.79470  0.44000  0.77790  Biso   1.000  H
  H138     1.0000 0.20530  0.44000  0.72210  Biso   1.000  H
  H139     1.0000 0.29470  0.94000  0.77790  Biso   1.000  H
  H140     1.0000 0.70530  0.94000  0.72210  Biso   1.000  H
  H141     1.0000 0.20530  0.56000  0.22210  Biso   1.000  H
  H142     1.0000 0.79470  0.56000  0.27790  Biso   1.000  H
  H143     1.0000 0.70530  0.06000  0.22210  Biso   1.000  H
  H144     1.0000 0.29470  0.06000  0.27790  Biso   1.000  H
  C169     1.0000 0.74991  0.51480  0.83510  Biso   1.000  C
  C170     1.0000 0.25009  0.51480  0.66490  Biso   1.000  C
  C171     1.0000 0.24991  0.01480  0.83510  Biso   1.000  C
  C172     1.0000 0.75009  0.01480  0.66490  Biso   1.000  C
  C173     1.0000 0.25009  0.48520  0.16490  Biso   1.000  C
  C174     1.0000 0.74991  0.48520  0.33510  Biso   1.000  C
  C175     1.0000 0.75009  0.98520  0.16490  Biso   1.000  C
  C176     1.0000 0.24991  0.98520  0.33510  Biso   1.000  C
  H145     1.0000 0.77230  0.59280  0.82980  Biso   1.000  H
  H146     1.0000 0.22770  0.59280  0.67020  Biso   1.000  H
  H147     1.0000 0.27230  0.09280  0.82980  Biso   1.000  H
  H148     1.0000 0.72770  0.09280  0.67020  Biso   1.000  H
  H149     1.0000 0.22770  0.40720  0.17020  Biso   1.000  H
  H150     1.0000 0.77230  0.40720  0.32980  Biso   1.000  H
  H151     1.0000 0.72770  0.90720  0.17020  Biso   1.000  H
  H152     1.0000 0.27230  0.90720  0.32980  Biso   1.000  H
  C177     1.0000 0.70385  0.49270  0.87345  Biso   1.000  C
  C178     1.0000 0.29615  0.49270  0.62655  Biso   1.000  C
  C179     1.0000 0.20385  0.99270  0.87345  Biso   1.000  C
  C180     1.0000 0.79615  0.99270  0.62655  Biso   1.000  C
  C181     1.0000 0.29615  0.50730  0.12655  Biso   1.000  C
  C182     1.0000 0.70385  0.50730  0.37345  Biso   1.000  C
  C183     1.0000 0.79615  0.00730  0.12655  Biso   1.000  C
  C184     1.0000 0.20385  0.00730  0.37345  Biso   1.000  C
  H153     1.0000 0.69410  0.55560  0.89430  Biso   1.000  H
  H154     1.0000 0.30590  0.55560  0.60570  Biso   1.000  H
  H155     1.0000 0.19410  0.05560  0.89430  Biso   1.000  H
  H156     1.0000 0.80590  0.05560  0.60570  Biso   1.000  H
  H157     1.0000 0.30590  0.44440  0.10570  Biso   1.000  H
  H158     1.0000 0.69410  0.44440  0.39430  Biso   1.000  H
  H159     1.0000 0.80590  0.94440  0.10570  Biso   1.000  H
  H160     1.0000 0.19410  0.94440  0.39430  Biso   1.000  H
  C185     1.0000 0.67207  0.37900  0.88142  Biso   1.000  C
  C186     1.0000 0.32793  0.37900  0.61858  Biso   1.000  C
  C187     1.0000 0.17207  0.87900  0.88142  Biso   1.000  C
  C188     1.0000 0.82793  0.87900  0.61858  Biso   1.000  C
  C189     1.0000 0.32793  0.62100  0.11858  Biso   1.000  C
  C190     1.0000 0.67207  0.62100  0.38142  Biso   1.000  C
  C191     1.0000 0.82793  0.12100  0.11858  Biso   1.000  C
  C192     1.0000 0.17207  0.12100  0.38142  Biso   1.000  C
  H161     1.0000 0.64020  0.36360  0.90770  Biso   1.000  H
  H162     1.0000 0.35980  0.36360  0.59230  Biso   1.000  H
  H163     1.0000 0.14020  0.86360  0.90770  Biso   1.000  H
  H164     1.0000 0.85980  0.86360  0.59230  Biso   1.000  H
  H165     1.0000 0.35980  0.63640  0.09230  Biso   1.000  H
  H166     1.0000 0.64020  0.63640  0.40770  Biso   1.000  H
  H167     1.0000 0.85980  0.13640  0.09230  Biso   1.000  H
  H168     1.0000 0.14020  0.13640  0.40770  Biso   1.000  H
  C193     1.0000 0.68666  0.28779  0.85119  Biso   1.000  C
  C194     1.0000 0.31334  0.28779  0.64881  Biso   1.000  C
  C195     1.0000 0.18666  0.78779  0.85119  Biso   1.000  C
  C196     1.0000 0.81334  0.78779  0.64881  Biso   1.000  C
  C197     1.0000 0.31334  0.71221  0.14881  Biso   1.000  C
  C198     1.0000 0.68666  0.71221  0.35119  Biso   1.000  C
  C199     1.0000 0.81334  0.21221  0.14881  Biso   1.000  C
  C200     1.0000 0.18666  0.21221  0.35119  Biso   1.000  C
  H169     1.0000 0.66550  0.20950  0.85720  Biso   1.000  H
  H170     1.0000 0.33450  0.20950  0.64280  Biso   1.000  H
  H171     1.0000 0.16550  0.70950  0.85720  Biso   1.000  H
  H172     1.0000 0.83450  0.70950  0.64280  Biso   1.000  H
  H173     1.0000 0.33450  0.79050  0.14280  Biso   1.000  H
  H174     1.0000 0.66550  0.79050  0.35720  Biso   1.000  H
  H175     1.0000 0.83450  0.29050  0.14280  Biso   1.000  H
  H176     1.0000 0.16550  0.29050  0.35720  Biso   1.000  H
  C201     1.0000 0.81619  0.35490  0.61463  Biso   1.000  C
  C202     1.0000 0.18381  0.35490  0.88537  Biso   1.000  C
  C203     1.0000 0.31619  0.85490  0.61463  Biso   1.000  C
  C204     1.0000 0.68381  0.85490  0.88537  Biso   1.000  C
  C205     1.0000 0.18381  0.64510  0.38537  Biso   1.000  C
  C206     1.0000 0.81619  0.64510  0.11463  Biso   1.000  C
  C207     1.0000 0.68381  0.14510  0.38537  Biso   1.000  C
  C208     1.0000 0.31619  0.14510  0.11463  Biso   1.000  C
  H177     1.0000 0.79400  0.27230  0.61050  Biso   1.000  H
  H178     1.0000 0.20600  0.27230  0.88950  Biso   1.000  H
  H179     1.0000 0.29400  0.77230  0.61050  Biso   1.000  H
  H180     1.0000 0.70600  0.77230  0.88950  Biso   1.000  H
  H181     1.0000 0.20600  0.72770  0.38950  Biso   1.000  H
  H182     1.0000 0.79400  0.72770  0.11050  Biso   1.000  H
  H183     1.0000 0.70600  0.22770  0.38950  Biso   1.000  H
  H184     1.0000 0.29400  0.22770  0.11050  Biso   1.000  H
  H185     1.0000 0.87950  0.34990  0.61660  Biso   1.000  H
  H186     1.0000 0.12050  0.34990  0.88340  Biso   1.000  H
  H187     1.0000 0.37950  0.84990  0.61660  Biso   1.000  H
  H188     1.0000 0.62050  0.84990  0.88340  Biso   1.000  H
  H189     1.0000 0.12050  0.65010  0.38340  Biso   1.000  H
  H190     1.0000 0.87950  0.65010  0.11660  Biso   1.000  H
  H191     1.0000 0.62050  0.15010  0.38340  Biso   1.000  H
  H192     1.0000 0.37950  0.15010  0.11660  Biso   1.000  H
  C209     1.0000 0.79195  0.42838  0.57384  Biso   1.000  C
  C210     1.0000 0.20805  0.42838  0.92616  Biso   1.000  C
  C211     1.0000 0.29195  0.92838  0.57384  Biso   1.000  C
  C212     1.0000 0.70805  0.92838  0.92616  Biso   1.000  C
  C213     1.0000 0.20805  0.57162  0.42616  Biso   1.000  C
  C214     1.0000 0.79195  0.57162  0.07384  Biso   1.000  C
  C215     1.0000 0.70805  0.07162  0.42616  Biso   1.000  C
  C216     1.0000 0.29195  0.07162  0.07384  Biso   1.000  C
  C217     1.0000 0.75255  0.53905  0.57733  Biso   1.000  C
  C218     1.0000 0.24745  0.53905  0.92267  Biso   1.000  C
  C219     1.0000 0.25255  0.03905  0.57733  Biso   1.000  C
  C220     1.0000 0.74745  0.03905  0.92267  Biso   1.000  C
  C221     1.0000 0.24745  0.46095  0.42267  Biso   1.000  C
  C222     1.0000 0.75255  0.46095  0.07733  Biso   1.000  C
  C223     1.0000 0.74745  0.96095  0.42267  Biso   1.000  C
  C224     1.0000 0.25255  0.96095  0.07733  Biso   1.000  C
  H193     1.0000 0.73980  0.57090  0.60600  Biso   1.000  H
  H194     1.0000 0.26020  0.57090  0.89400  Biso   1.000  H
  H195     1.0000 0.23980  0.07090  0.60600  Biso   1.000  H
  H196     1.0000 0.76020  0.07090  0.89400  Biso   1.000  H
  H197     1.0000 0.26020  0.42910  0.39400  Biso   1.000  H
  H198     1.0000 0.73980  0.42910  0.10600  Biso   1.000  H
  H199     1.0000 0.76020  0.92910  0.39400  Biso   1.000  H
  H200     1.0000 0.23980  0.92910  0.10600  Biso   1.000  H
  C225     1.0000 0.73162  0.60381  0.53902  Biso   1.000  C
  C226     1.0000 0.26838  0.60381  0.96098  Biso   1.000  C
  C227     1.0000 0.23162  0.10381  0.53902  Biso   1.000  C
  C228     1.0000 0.76838  0.10381  0.96098  Biso   1.000  C
  C229     1.0000 0.26838  0.39619  0.46098  Biso   1.000  C
  C230     1.0000 0.73162  0.39619  0.03902  Biso   1.000  C
  C231     1.0000 0.76838  0.89619  0.46098  Biso   1.000  C
  C232     1.0000 0.23162  0.89619  0.03902  Biso   1.000  C
  H201     1.0000 0.70440  0.67980  0.54150  Biso   1.000  H
  H202     1.0000 0.29560  0.67980  0.95850  Biso   1.000  H
  H203     1.0000 0.20440  0.17980  0.54150  Biso   1.000  H
  H204     1.0000 0.79560  0.17980  0.95850  Biso   1.000  H
  H205     1.0000 0.29560  0.32020  0.45850  Biso   1.000  H
  H206     1.0000 0.70440  0.32020  0.04150  Biso   1.000  H
  H207     1.0000 0.79560  0.82020  0.45850  Biso   1.000  H
  H208     1.0000 0.20440  0.82020  0.04150  Biso   1.000  H
  C233     1.0000 0.75023  0.55820  0.49727  Biso   1.000  C
  C234     1.0000 0.24977  0.55820  0.00273  Biso   1.000  C
  C235     1.0000 0.25023  0.05820  0.49727  Biso   1.000  C
  C236     1.0000 0.74977  0.05820  0.00273  Biso   1.000  C
  C237     1.0000 0.24977  0.44180  0.50273  Biso   1.000  C
  C238     1.0000 0.75023  0.44180  0.99727  Biso   1.000  C
  C239     1.0000 0.74977  0.94180  0.50273  Biso   1.000  C
  C240     1.0000 0.25023  0.94180  0.99727  Biso   1.000  C
  H209     1.0000 0.73640  0.60310  0.47110  Biso   1.000  H
  H210     1.0000 0.26360  0.60310  0.02890  Biso   1.000  H
  H211     1.0000 0.23640  0.10310  0.47110  Biso   1.000  H
  H212     1.0000 0.76360  0.10310  0.02890  Biso   1.000  H
  H213     1.0000 0.26360  0.39690  0.52890  Biso   1.000  H
  H214     1.0000 0.73640  0.39690  0.97110  Biso   1.000  H
  H215     1.0000 0.76360  0.89690  0.52890  Biso   1.000  H
  H216     1.0000 0.23640  0.89690  0.97110  Biso   1.000  H
  C241     1.0000 0.78888  0.44760  0.49362  Biso   1.000  C
  C242     1.0000 0.21112  0.44760  0.00638  Biso   1.000  C
  C243     1.0000 0.28888  0.94760  0.49362  Biso   1.000  C
  C244     1.0000 0.71112  0.94760  0.00638  Biso   1.000  C
  C245     1.0000 0.21112  0.55240  0.50638  Biso   1.000  C
  C246     1.0000 0.78888  0.55240  0.99362  Biso   1.000  C
  C247     1.0000 0.71112  0.05240  0.50638  Biso   1.000  C
  C248     1.0000 0.28888  0.05240  0.99362  Biso   1.000  C
  H217     1.0000 0.80160  0.41600  0.46490  Biso   1.000  H
  H218     1.0000 0.19840  0.41600  0.03510  Biso   1.000  H
  H219     1.0000 0.30160  0.91600  0.46490  Biso   1.000  H
  H220     1.0000 0.69840  0.91600  0.03510  Biso   1.000  H
  H221     1.0000 0.19840  0.58400  0.53510  Biso   1.000  H
  H222     1.0000 0.80160  0.58400  0.96490  Biso   1.000  H
  H223     1.0000 0.69840  0.08400  0.53510  Biso   1.000  H
  H224     1.0000 0.30160  0.08400  0.96490  Biso   1.000  H
  C249     1.0000 0.80908  0.38284  0.53151  Biso   1.000  C
  C250     1.0000 0.19092  0.38284  0.96849  Biso   1.000  C
  C251     1.0000 0.30908  0.88284  0.53151  Biso   1.000  C
  C252     1.0000 0.69092  0.88284  0.96849  Biso   1.000  C
  C253     1.0000 0.19092  0.61716  0.46849  Biso   1.000  C
  C254     1.0000 0.80908  0.61716  0.03151  Biso   1.000  C
  C255     1.0000 0.69092  0.11716  0.46849  Biso   1.000  C
  C256     1.0000 0.30908  0.11716  0.03151  Biso   1.000  C
  H225     1.0000 0.83510  0.30600  0.52880  Biso   1.000  H
  H226     1.0000 0.16490  0.30600  0.97120  Biso   1.000  H
  H227     1.0000 0.33510  0.80600  0.52880  Biso   1.000  H
  H228     1.0000 0.66490  0.80600  0.97120  Biso   1.000  H
  H229     1.0000 0.16490  0.69400  0.47120  Biso   1.000  H
  H230     1.0000 0.83510  0.69400  0.02880  Biso   1.000  H
  H231     1.0000 0.66490  0.19400  0.47120  Biso   1.000  H
  H232     1.0000 0.33510  0.19400  0.02880  Biso   1.000  H
