data_image0
_cell_length_a       11.1808
_cell_length_b       12.5889
_cell_length_c       15.123
_cell_angle_alpha    90
_cell_angle_beta     99.409
_cell_angle_gamma    90

_symmetry_space_group_name_H-M    "P 1"
_symmetry_int_tables_number       1

loop_
  _symmetry_equiv_pos_as_xyz
  'x, y, z'

loop_
  _atom_site_label
  _atom_site_occupancy
  _atom_site_fract_x
  _atom_site_fract_y
  _atom_site_fract_z
  _atom_site_thermal_displace_type
  _atom_site_B_iso_or_equiv
  _atom_site_type_symbol
  Cu1      1.0000 0.35344  0.50970  0.18532  Biso   1.000  Cu
  Cu2      1.0000 0.14656  0.00970  0.31468  Biso   1.000  Cu
  Cu3      1.0000 0.64656  0.49030  0.81468  Biso   1.000  Cu
  Cu4      1.0000 0.85344  0.99030  0.68532  Biso   1.000  Cu
  S1       1.0000 0.40085  0.63896  0.92177  Biso   1.000  S
  S2       1.0000 0.09915  0.13896  0.57823  Biso   1.000  S
  S3       1.0000 0.59915  0.36104  0.07823  Biso   1.000  S
  S4       1.0000 0.90085  0.86104  0.42177  Biso   1.000  S
  O1       1.0000 0.31310  0.40190  0.26637  Biso   1.000  O
  O2       1.0000 0.18690  0.90190  0.23363  Biso   1.000  O
  O3       1.0000 0.68690  0.59810  0.73363  Biso   1.000  O
  O4       1.0000 0.81310  0.09810  0.76637  Biso   1.000  O
  O5       1.0000 0.53740  0.51040  0.26800  Biso   1.000  O
  O6       1.0000 0.96260  0.01040  0.23200  Biso   1.000  O
  O7       1.0000 0.46260  0.48960  0.73200  Biso   1.000  O
  O8       1.0000 0.03740  0.98960  0.76800  Biso   1.000  O
  N1       1.0000 0.41150  0.59500  0.09140  Biso   1.000  N
  N2       1.0000 0.08850  0.09500  0.40860  Biso   1.000  N
  N3       1.0000 0.58850  0.40500  0.90860  Biso   1.000  N
  N4       1.0000 0.91150  0.90500  0.59140  Biso   1.000  N
  N5       1.0000 0.31210  0.46720  0.99800  Biso   1.000  N
  N6       1.0000 0.18790  0.96720  0.50200  Biso   1.000  N
  N7       1.0000 0.68790  0.53280  0.00200  Biso   1.000  N
  N8       1.0000 0.81210  0.03280  0.49800  Biso   1.000  N
  H1       1.0000 0.28580  0.43970  0.94490  Biso   1.000  H
  H2       1.0000 0.21420  0.93970  0.55510  Biso   1.000  H
  H3       1.0000 0.71420  0.56030  0.05510  Biso   1.000  H
  H4       1.0000 0.78580  0.06030  0.44490  Biso   1.000  H
  N9       1.0000 0.29600  0.41840  0.07740  Biso   1.000  N
  N10      1.0000 0.20400  0.91840  0.42260  Biso   1.000  N
  N11      1.0000 0.70400  0.58160  0.92260  Biso   1.000  N
  N12      1.0000 0.79600  0.08160  0.57740  Biso   1.000  N
  N13      1.0000 0.26020  0.22880  0.29710  Biso   1.000  N
  N14      1.0000 0.23980  0.72880  0.20290  Biso   1.000  N
  N15      1.0000 0.73980  0.77120  0.70290  Biso   1.000  N
  N16      1.0000 0.76020  0.27120  0.79710  Biso   1.000  N
  N17      1.0000 0.21800  0.13660  0.25060  Biso   1.000  N
  N18      1.0000 0.28200  0.63660  0.24940  Biso   1.000  N
  N19      1.0000 0.78200  0.86340  0.74940  Biso   1.000  N
  N20      1.0000 0.71800  0.36340  0.75060  Biso   1.000  N
  C1       1.0000 0.47100  0.69200  0.08800  Biso   1.000  C
  C2       1.0000 0.02900  0.19200  0.41200  Biso   1.000  C
  C3       1.0000 0.52900  0.30800  0.91200  Biso   1.000  C
  C4       1.0000 0.97100  0.80800  0.58800  Biso   1.000  C
  C5       1.0000 0.47420  0.72880  0.00090  Biso   1.000  C
  C6       1.0000 0.02580  0.22880  0.49910  Biso   1.000  C
  C7       1.0000 0.52580  0.27120  0.99910  Biso   1.000  C
  C8       1.0000 0.97420  0.77120  0.50090  Biso   1.000  C
  C9       1.0000 0.52540  0.82610  0.98510  Biso   1.000  C
  C10      1.0000 0.97460  0.32610  0.51490  Biso   1.000  C
  C11      1.0000 0.47460  0.17390  0.01490  Biso   1.000  C
  C12      1.0000 0.02540  0.67390  0.48510  Biso   1.000  C
  H5       1.0000 0.52670  0.85080  0.92590  Biso   1.000  H
  H6       1.0000 0.97330  0.35080  0.57410  Biso   1.000  H
  H7       1.0000 0.47330  0.14920  0.07410  Biso   1.000  H
  H8       1.0000 0.02670  0.64920  0.42590  Biso   1.000  H
  C13      1.0000 0.57490  0.88560  0.05950  Biso   1.000  C
  C14      1.0000 0.92510  0.38560  0.44050  Biso   1.000  C
  C15      1.0000 0.42510  0.11440  0.94050  Biso   1.000  C
  C16      1.0000 0.07490  0.61440  0.55950  Biso   1.000  C
  H9       1.0000 0.61020  0.95270  0.05110  Biso   1.000  H
  H10      1.0000 0.88980  0.45270  0.44890  Biso   1.000  H
  H11      1.0000 0.38980  0.04730  0.94890  Biso   1.000  H
  H12      1.0000 0.11020  0.54730  0.55110  Biso   1.000  H
  C17      1.0000 0.57360  0.84850  0.14670  Biso   1.000  C
  C18      1.0000 0.92640  0.34850  0.35330  Biso   1.000  C
  C19      1.0000 0.42640  0.15150  0.85330  Biso   1.000  C
  C20      1.0000 0.07360  0.65150  0.64670  Biso   1.000  C
  H13      1.0000 0.60880  0.89040  0.19650  Biso   1.000  H
  H14      1.0000 0.89120  0.39040  0.30350  Biso   1.000  H
  H15      1.0000 0.39120  0.10960  0.80350  Biso   1.000  H
  H16      1.0000 0.10880  0.60960  0.69650  Biso   1.000  H
  C21      1.0000 0.52190  0.75180  0.16110  Biso   1.000  C
  C22      1.0000 0.97810  0.25180  0.33890  Biso   1.000  C
  C23      1.0000 0.47810  0.24820  0.83890  Biso   1.000  C
  C24      1.0000 0.02190  0.74820  0.66110  Biso   1.000  C
  H17      1.0000 0.52140  0.72680  0.22030  Biso   1.000  H
  H18      1.0000 0.97860  0.22680  0.27970  Biso   1.000  H
  H19      1.0000 0.47860  0.27320  0.77970  Biso   1.000  H
  H20      1.0000 0.02140  0.77320  0.72030  Biso   1.000  H
  C25      1.0000 0.37140  0.56010  0.00940  Biso   1.000  C
  C26      1.0000 0.12860  0.06010  0.49060  Biso   1.000  C
  C27      1.0000 0.62860  0.43990  0.99060  Biso   1.000  C
  C28      1.0000 0.87140  0.93990  0.50940  Biso   1.000  C
  C29      1.0000 0.25020  0.32410  0.07240  Biso   1.000  C
  C30      1.0000 0.24980  0.82410  0.42760  Biso   1.000  C
  C31      1.0000 0.74980  0.67590  0.92760  Biso   1.000  C
  C32      1.0000 0.75020  0.17590  0.57240  Biso   1.000  C
  H21      1.0000 0.22490  0.29170  0.01560  Biso   1.000  H
  H22      1.0000 0.27510  0.79170  0.48440  Biso   1.000  H
  H23      1.0000 0.77510  0.70830  0.98440  Biso   1.000  H
  H24      1.0000 0.72490  0.20830  0.51560  Biso   1.000  H
  C33      1.0000 0.23760  0.26860  0.15300  Biso   1.000  C
  C34      1.0000 0.26240  0.76860  0.34700  Biso   1.000  C
  C35      1.0000 0.76240  0.73140  0.84700  Biso   1.000  C
  C36      1.0000 0.73760  0.23140  0.65300  Biso   1.000  C
  C37      1.0000 0.27400  0.31010  0.23940  Biso   1.000  C
  C38      1.0000 0.22600  0.81010  0.26060  Biso   1.000  C
  C39      1.0000 0.72600  0.68990  0.76060  Biso   1.000  C
  C40      1.0000 0.77400  0.18990  0.73940  Biso   1.000  C
  C41      1.0000 0.20380  0.16220  0.16360  Biso   1.000  C
  C42      1.0000 0.29620  0.66220  0.33640  Biso   1.000  C
  C43      1.0000 0.79620  0.83780  0.83640  Biso   1.000  C
  C44      1.0000 0.70380  0.33780  0.66360  Biso   1.000  C
  C45      1.0000 0.15630  0.08640  0.09080  Biso   1.000  C
  C46      1.0000 0.34370  0.58640  0.40920  Biso   1.000  C
  C47      1.0000 0.84370  0.91360  0.90920  Biso   1.000  C
  C48      1.0000 0.65630  0.41360  0.59080  Biso   1.000  C
  H25      1.0000 0.13990  0.01780  0.11710  Biso   1.000  H
  H26      1.0000 0.36010  0.51780  0.38290  Biso   1.000  H
  H27      1.0000 0.86010  0.98220  0.88290  Biso   1.000  H
  H28      1.0000 0.63990  0.48220  0.61710  Biso   1.000  H
  H29      1.0000 0.21650  0.07690  0.05110  Biso   1.000  H
  H30      1.0000 0.28350  0.57690  0.44890  Biso   1.000  H
  H31      1.0000 0.78350  0.92310  0.94890  Biso   1.000  H
  H32      1.0000 0.71650  0.42310  0.55110  Biso   1.000  H
  H33      1.0000 0.08110  0.11450  0.05630  Biso   1.000  H
  H34      1.0000 0.41890  0.61450  0.44370  Biso   1.000  H
  H35      1.0000 0.91890  0.88550  0.94370  Biso   1.000  H
  H36      1.0000 0.58110  0.38550  0.55630  Biso   1.000  H
  C49      1.0000 0.31340  0.22470  0.38950  Biso   1.000  C
  C50      1.0000 0.18660  0.72470  0.11050  Biso   1.000  C
  C51      1.0000 0.68660  0.77530  0.61050  Biso   1.000  C
  C52      1.0000 0.81340  0.27530  0.88950  Biso   1.000  C
  C53      1.0000 0.28640  0.30400  0.44630  Biso   1.000  C
  C54      1.0000 0.21360  0.80400  0.05370  Biso   1.000  C
  C55      1.0000 0.71360  0.69600  0.55370  Biso   1.000  C
  C56      1.0000 0.78640  0.19600  0.94630  Biso   1.000  C
  H37      1.0000 0.23320  0.36010  0.42390  Biso   1.000  H
  H38      1.0000 0.26680  0.86010  0.07610  Biso   1.000  H
  H39      1.0000 0.76680  0.63990  0.57610  Biso   1.000  H
  H40      1.0000 0.73320  0.13990  0.92390  Biso   1.000  H
  C57      1.0000 0.33750  0.30090  0.53650  Biso   1.000  C
  C58      1.0000 0.16250  0.80090  0.96350  Biso   1.000  C
  C59      1.0000 0.66250  0.69910  0.46350  Biso   1.000  C
  C60      1.0000 0.83750  0.19910  0.03650  Biso   1.000  C
  H41      1.0000 0.32100  0.35590  0.57580  Biso   1.000  H
  H42      1.0000 0.17900  0.85590  0.92420  Biso   1.000  H
  H43      1.0000 0.67900  0.64410  0.42420  Biso   1.000  H
  H44      1.0000 0.82100  0.14410  0.07580  Biso   1.000  H
  C61      1.0000 0.41280  0.21720  0.56860  Biso   1.000  C
  C62      1.0000 0.08720  0.71720  0.93140  Biso   1.000  C
  C63      1.0000 0.58720  0.78280  0.43140  Biso   1.000  C
  C64      1.0000 0.91280  0.28280  0.06860  Biso   1.000  C
  H45      1.0000 0.44660  0.21380  0.63040  Biso   1.000  H
  H46      1.0000 0.05340  0.71380  0.86960  Biso   1.000  H
  H47      1.0000 0.55340  0.78620  0.36960  Biso   1.000  H
  H48      1.0000 0.94660  0.28620  0.13040  Biso   1.000  H
  C65      1.0000 0.43830  0.13990  0.51150  Biso   1.000  C
  C66      1.0000 0.06170  0.63990  0.98850  Biso   1.000  C
  C67      1.0000 0.56170  0.86010  0.48850  Biso   1.000  C
  C68      1.0000 0.93830  0.36010  0.01150  Biso   1.000  C
  H49      1.0000 0.49010  0.08300  0.53420  Biso   1.000  H
  H50      1.0000 0.00990  0.58300  0.96580  Biso   1.000  H
  H51      1.0000 0.50990  0.91700  0.46580  Biso   1.000  H
  H52      1.0000 0.99010  0.41700  0.03420  Biso   1.000  H
  C69      1.0000 0.39010  0.14230  0.42050  Biso   1.000  C
  C70      1.0000 0.10990  0.64230  0.07950  Biso   1.000  C
  C71      1.0000 0.60990  0.85770  0.57950  Biso   1.000  C
  C72      1.0000 0.89010  0.35770  0.92050  Biso   1.000  C
  H53      1.0000 0.40960  0.08870  0.38090  Biso   1.000  H
  H54      1.0000 0.09040  0.58870  0.11910  Biso   1.000  H
  H55      1.0000 0.59040  0.91130  0.61910  Biso   1.000  H
  H56      1.0000 0.90960  0.41130  0.88090  Biso   1.000  H
  C73      1.0000 0.58720  0.42350  0.32420  Biso   1.000  C
  C74      1.0000 0.91280  0.92350  0.17580  Biso   1.000  C
  C75      1.0000 0.41280  0.57650  0.67580  Biso   1.000  C
  C76      1.0000 0.08720  0.07650  0.82420  Biso   1.000  C
  H57      1.0000 0.66920  0.44190  0.35380  Biso   1.000  H
  H58      1.0000 0.83080  0.94190  0.14620  Biso   1.000  H
  H59      1.0000 0.33080  0.55810  0.64620  Biso   1.000  H
  H60      1.0000 0.16920  0.05810  0.85380  Biso   1.000  H
  H61      1.0000 0.59050  0.35980  0.28740  Biso   1.000  H
  H62      1.0000 0.90950  0.85980  0.21260  Biso   1.000  H
  H63      1.0000 0.40950  0.64020  0.71260  Biso   1.000  H
  H64      1.0000 0.09050  0.14020  0.78740  Biso   1.000  H
  H65      1.0000 0.53580  0.40970  0.36960  Biso   1.000  H
  H66      1.0000 0.96420  0.90970  0.13040  Biso   1.000  H
  H67      1.0000 0.46420  0.59030  0.63040  Biso   1.000  H
  H68      1.0000 0.03580  0.09030  0.86960  Biso   1.000  H
  H69      1.0000 0.57900  0.55800  0.24600  Biso   1.000  H
  H70      1.0000 0.92100  0.05800  0.25400  Biso   1.000  H
  H71      1.0000 0.42100  0.44200  0.75400  Biso   1.000  H
  H72      1.0000 0.07900  0.94200  0.74600  Biso   1.000  H
  Cl1      1.0000 0.15716  0.38105  0.78142  Biso   1.000  Cl
  Cl2      1.0000 0.34284  0.88105  0.71858  Biso   1.000  Cl
  Cl3      1.0000 0.84284  0.61895  0.21858  Biso   1.000  Cl
  Cl4      1.0000 0.65716  0.11895  0.28142  Biso   1.000  Cl
  O9       1.0000 0.20080  0.32200  0.71350  Biso   1.000  O
  O10      1.0000 0.29920  0.82200  0.78650  Biso   1.000  O
  O11      1.0000 0.79920  0.67800  0.28650  Biso   1.000  O
  O12      1.0000 0.70080  0.17800  0.21350  Biso   1.000  O
  O13      1.0000 0.03910  0.41450  0.74900  Biso   1.000  O
  O14      1.0000 0.46090  0.91450  0.75100  Biso   1.000  O
  O15      1.0000 0.96090  0.58550  0.25100  Biso   1.000  O
  O16      1.0000 0.53910  0.08550  0.24900  Biso   1.000  O
  O17      1.0000 0.16560  0.32020  0.86100  Biso   1.000  O
  O18      1.0000 0.33440  0.82020  0.63900  Biso   1.000  O
  O19      1.0000 0.83440  0.67980  0.13900  Biso   1.000  O
  O20      1.0000 0.66560  0.17980  0.36100  Biso   1.000  O
  O21      1.0000 0.23970  0.47110  0.80140  Biso   1.000  O
  O22      1.0000 0.26030  0.97110  0.69860  Biso   1.000  O
  O23      1.0000 0.76030  0.52890  0.19860  Biso   1.000  O
  O24      1.0000 0.73970  0.02890  0.30140  Biso   1.000  O
