data_image0
_cell_length_a       11.635
_cell_length_b       12.176
_cell_length_c       15.065
_cell_angle_alpha    90
_cell_angle_beta     95.917
_cell_angle_gamma    90

_symmetry_space_group_name_H-M    "P 1"
_symmetry_int_tables_number       1

loop_
  _symmetry_equiv_pos_as_xyz
  'x, y, z'

loop_
  _atom_site_label
  _atom_site_occupancy
  _atom_site_fract_x
  _atom_site_fract_y
  _atom_site_fract_z
  _atom_site_thermal_displace_type
  _atom_site_B_iso_or_equiv
  _atom_site_type_symbol
  Cu1      1.0000 0.36976  0.03600  0.18486  Biso   1.000  Cu
  Cu2      1.0000 0.13024  0.53600  0.31514  Biso   1.000  Cu
  Cu3      1.0000 0.63024  0.96400  0.81514  Biso   1.000  Cu
  Cu4      1.0000 0.86976  0.46400  0.68486  Biso   1.000  Cu
  O1       1.0000 0.31670  0.92810  0.26500  Biso   1.000  O
  O2       1.0000 0.18330  0.42810  0.23500  Biso   1.000  O
  O3       1.0000 0.68330  0.07190  0.73500  Biso   1.000  O
  O4       1.0000 0.81670  0.57190  0.76500  Biso   1.000  O
  O5       1.0000 0.53240  0.02360  0.26190  Biso   1.000  O
  O6       1.0000 0.96760  0.52360  0.23810  Biso   1.000  O
  O7       1.0000 0.46760  0.97640  0.73810  Biso   1.000  O
  O8       1.0000 0.03240  0.47640  0.76190  Biso   1.000  O
  H1       1.0000 0.57400  0.08880  0.27820  Biso   1.000  H
  H2       1.0000 0.92600  0.58880  0.22180  Biso   1.000  H
  H3       1.0000 0.42600  0.91120  0.72180  Biso   1.000  H
  H4       1.0000 0.07400  0.41120  0.77820  Biso   1.000  H
  N1       1.0000 0.43030  0.12860  0.09170  Biso   1.000  N
  N2       1.0000 0.06970  0.62860  0.40830  Biso   1.000  N
  N3       1.0000 0.56970  0.87140  0.90830  Biso   1.000  N
  N4       1.0000 0.93030  0.37140  0.59170  Biso   1.000  N
  N5       1.0000 0.33180  0.00130  0.00060  Biso   1.000  N
  N6       1.0000 0.16820  0.50130  0.49940  Biso   1.000  N
  N7       1.0000 0.66820  0.99870  0.99940  Biso   1.000  N
  N8       1.0000 0.83180  0.49870  0.50060  Biso   1.000  N
  H5       1.0000 0.30580  0.97470  0.94800  Biso   1.000  H
  H6       1.0000 0.19420  0.47470  0.55200  Biso   1.000  H
  H7       1.0000 0.69420  0.02530  0.05200  Biso   1.000  H
  H8       1.0000 0.80580  0.52530  0.44800  Biso   1.000  H
  N9       1.0000 0.31060  0.95040  0.07800  Biso   1.000  N
  N10      1.0000 0.18940  0.45040  0.42200  Biso   1.000  N
  N11      1.0000 0.68940  0.04960  0.92200  Biso   1.000  N
  N12      1.0000 0.81060  0.54960  0.57800  Biso   1.000  N
  N13      1.0000 0.20500  0.66380  0.24700  Biso   1.000  N
  N14      1.0000 0.29500  0.16380  0.25300  Biso   1.000  N
  N15      1.0000 0.79500  0.33620  0.75300  Biso   1.000  N
  N16      1.0000 0.70500  0.83620  0.74700  Biso   1.000  N
  N17      1.0000 0.25010  0.75360  0.29320  Biso   1.000  N
  N18      1.0000 0.24990  0.25360  0.20680  Biso   1.000  N
  N19      1.0000 0.74990  0.24640  0.70680  Biso   1.000  N
  N20      1.0000 0.75010  0.74640  0.79320  Biso   1.000  N
  C1       1.0000 0.49340  0.22640  0.09950  Biso   1.000  C
  C2       1.0000 0.00660  0.72640  0.40050  Biso   1.000  C
  C3       1.0000 0.50660  0.77360  0.90050  Biso   1.000  C
  C4       1.0000 0.99340  0.27360  0.59950  Biso   1.000  C
  C5       1.0000 0.53240  0.26660  0.18390  Biso   1.000  C
  C6       1.0000 0.96760  0.76660  0.31610  Biso   1.000  C
  C7       1.0000 0.46760  0.73340  0.81610  Biso   1.000  C
  C8       1.0000 0.03240  0.23340  0.68390  Biso   1.000  C
  H9       1.0000 0.51670  0.22690  0.23550  Biso   1.000  H
  H10      1.0000 0.98330  0.72690  0.26450  Biso   1.000  H
  H11      1.0000 0.48330  0.77310  0.76450  Biso   1.000  H
  H12      1.0000 0.01670  0.27310  0.73550  Biso   1.000  H
  C9       1.0000 0.59250  0.36210  0.19290  Biso   1.000  C
  C10      1.0000 0.90750  0.86210  0.30710  Biso   1.000  C
  C11      1.0000 0.40750  0.63790  0.80710  Biso   1.000  C
  C12      1.0000 0.09250  0.13790  0.69290  Biso   1.000  C
  H13      1.0000 0.61890  0.38790  0.25100  Biso   1.000  H
  H14      1.0000 0.88110  0.88790  0.24900  Biso   1.000  H
  H15      1.0000 0.38110  0.61210  0.74900  Biso   1.000  H
  H16      1.0000 0.11890  0.11210  0.75100  Biso   1.000  H
  C13      1.0000 0.61650  0.42330  0.11810  Biso   1.000  C
  C14      1.0000 0.88350  0.92330  0.38190  Biso   1.000  C
  C15      1.0000 0.38350  0.57670  0.88190  Biso   1.000  C
  C16      1.0000 0.11650  0.07670  0.61810  Biso   1.000  C
  H17      1.0000 0.65750  0.49080  0.12530  Biso   1.000  H
  H18      1.0000 0.84250  0.99080  0.37470  Biso   1.000  H
  H19      1.0000 0.34250  0.50920  0.87470  Biso   1.000  H
  H20      1.0000 0.15750  0.00920  0.62530  Biso   1.000  H
  C17      1.0000 0.58040  0.38490  0.03510  Biso   1.000  C
  C18      1.0000 0.91960  0.88490  0.46490  Biso   1.000  C
  C19      1.0000 0.41960  0.61510  0.96490  Biso   1.000  C
  C20      1.0000 0.08040  0.11510  0.53510  Biso   1.000  C
  H21      1.0000 0.59630  0.42600  0.98420  Biso   1.000  H
  H22      1.0000 0.90370  0.92600  0.51580  Biso   1.000  H
  H23      1.0000 0.40370  0.57400  0.01580  Biso   1.000  H
  H24      1.0000 0.09630  0.07400  0.48420  Biso   1.000  H
  C21      1.0000 0.51890  0.28400  0.02360  Biso   1.000  C
  C22      1.0000 0.98110  0.78400  0.47640  Biso   1.000  C
  C23      1.0000 0.48110  0.71600  0.97640  Biso   1.000  C
  C24      1.0000 0.01890  0.21600  0.52360  Biso   1.000  C
  C25      1.0000 0.47640  0.24340  0.93950  Biso   1.000  C
  C26      1.0000 0.02360  0.74340  0.56050  Biso   1.000  C
  C27      1.0000 0.52360  0.75660  0.06050  Biso   1.000  C
  C28      1.0000 0.97640  0.25660  0.43950  Biso   1.000  C
  H25      1.0000 0.49180  0.28330  0.88780  Biso   1.000  H
  H26      1.0000 0.00820  0.78330  0.61220  Biso   1.000  H
  H27      1.0000 0.50820  0.71670  0.11220  Biso   1.000  H
  H28      1.0000 0.99180  0.21670  0.38780  Biso   1.000  H
  C29      1.0000 0.41550  0.15180  0.92950  Biso   1.000  C
  C30      1.0000 0.08450  0.65180  0.57050  Biso   1.000  C
  C31      1.0000 0.58450  0.84820  0.07050  Biso   1.000  C
  C32      1.0000 0.91550  0.34820  0.42950  Biso   1.000  C
  H29      1.0000 0.38700  0.12530  0.87210  Biso   1.000  H
  H30      1.0000 0.11300  0.62530  0.62790  Biso   1.000  H
  H31      1.0000 0.61300  0.87470  0.12790  Biso   1.000  H
  H32      1.0000 0.88700  0.37470  0.37210  Biso   1.000  H
  C33      1.0000 0.39460  0.09430  0.00910  Biso   1.000  C
  C34      1.0000 0.10540  0.59430  0.49090  Biso   1.000  C
  C35      1.0000 0.60540  0.90570  0.99090  Biso   1.000  C
  C36      1.0000 0.89460  0.40570  0.50910  Biso   1.000  C
  C37      1.0000 0.25620  0.85650  0.07340  Biso   1.000  C
  C38      1.0000 0.24380  0.35650  0.42660  Biso   1.000  C
  C39      1.0000 0.74380  0.14350  0.92660  Biso   1.000  C
  C40      1.0000 0.75620  0.64350  0.57340  Biso   1.000  C
  H33      1.0000 0.23010  0.82650  0.01670  Biso   1.000  H
  H34      1.0000 0.26990  0.32650  0.48330  Biso   1.000  H
  H35      1.0000 0.76990  0.17350  0.98330  Biso   1.000  H
  H36      1.0000 0.73010  0.67350  0.51670  Biso   1.000  H
  C41      1.0000 0.23590  0.79910  0.15120  Biso   1.000  C
  C42      1.0000 0.26410  0.29910  0.34880  Biso   1.000  C
  C43      1.0000 0.76410  0.20090  0.84880  Biso   1.000  C
  C44      1.0000 0.73590  0.70090  0.65120  Biso   1.000  C
  C45      1.0000 0.27160  0.83730  0.23700  Biso   1.000  C
  C46      1.0000 0.22840  0.33730  0.26300  Biso   1.000  C
  C47      1.0000 0.72840  0.16270  0.76300  Biso   1.000  C
  C48      1.0000 0.77160  0.66270  0.73700  Biso   1.000  C
  C49      1.0000 0.19540  0.69220  0.16190  Biso   1.000  C
  C50      1.0000 0.30460  0.19220  0.33810  Biso   1.000  C
  C51      1.0000 0.80460  0.30780  0.83810  Biso   1.000  C
  C52      1.0000 0.69540  0.80780  0.66190  Biso   1.000  C
  C53      1.0000 0.14580  0.61720  0.08980  Biso   1.000  C
  C54      1.0000 0.35420  0.11720  0.41020  Biso   1.000  C
  C55      1.0000 0.85420  0.38280  0.91020  Biso   1.000  C
  C56      1.0000 0.64580  0.88280  0.58980  Biso   1.000  C
  H37      1.0000 0.12480  0.54730  0.11600  Biso   1.000  H
  H38      1.0000 0.37520  0.04730  0.38400  Biso   1.000  H
  H39      1.0000 0.87520  0.45270  0.88400  Biso   1.000  H
  H40      1.0000 0.62480  0.95270  0.61600  Biso   1.000  H
  H41      1.0000 0.20320  0.60400  0.04780  Biso   1.000  H
  H42      1.0000 0.29680  0.10400  0.45220  Biso   1.000  H
  H43      1.0000 0.79680  0.39600  0.95220  Biso   1.000  H
  H44      1.0000 0.70320  0.89600  0.54780  Biso   1.000  H
  H45      1.0000 0.07690  0.65100  0.05830  Biso   1.000  H
  H46      1.0000 0.42310  0.15100  0.44170  Biso   1.000  H
  H47      1.0000 0.92310  0.34900  0.94170  Biso   1.000  H
  H48      1.0000 0.57690  0.84900  0.55830  Biso   1.000  H
  C57      1.0000 0.30020  0.74380  0.38380  Biso   1.000  C
  C58      1.0000 0.19980  0.24380  0.11620  Biso   1.000  C
  C59      1.0000 0.69980  0.25620  0.61620  Biso   1.000  C
  C60      1.0000 0.80020  0.75620  0.88380  Biso   1.000  C
  C61      1.0000 0.37250  0.65940  0.41030  Biso   1.000  C
  C62      1.0000 0.12750  0.15940  0.08970  Biso   1.000  C
  C63      1.0000 0.62750  0.34060  0.58970  Biso   1.000  C
  C64      1.0000 0.87250  0.84060  0.91030  Biso   1.000  C
  H49      1.0000 0.39170  0.60600  0.36830  Biso   1.000  H
  H50      1.0000 0.10830  0.10600  0.13170  Biso   1.000  H
  H51      1.0000 0.60830  0.39400  0.63170  Biso   1.000  H
  H52      1.0000 0.89170  0.89400  0.86830  Biso   1.000  H
  C65      1.0000 0.41760  0.65210  0.49800  Biso   1.000  C
  C66      1.0000 0.08240  0.15210  0.00200  Biso   1.000  C
  C67      1.0000 0.58240  0.34790  0.50200  Biso   1.000  C
  C68      1.0000 0.91760  0.84790  0.99800  Biso   1.000  C
  H53      1.0000 0.46830  0.59330  0.51630  Biso   1.000  H
  H54      1.0000 0.03170  0.09330  0.98370  Biso   1.000  H
  H55      1.0000 0.53170  0.40670  0.48370  Biso   1.000  H
  H56      1.0000 0.96830  0.90670  0.01630  Biso   1.000  H
  C69      1.0000 0.39090  0.72690  0.55820  Biso   1.000  C
  C70      1.0000 0.10910  0.22690  0.94180  Biso   1.000  C
  C71      1.0000 0.60910  0.27310  0.44180  Biso   1.000  C
  C72      1.0000 0.89090  0.77310  0.05820  Biso   1.000  C
  H57      1.0000 0.42160  0.71980  0.61880  Biso   1.000  H
  H58      1.0000 0.07840  0.21980  0.88120  Biso   1.000  H
  H59      1.0000 0.57840  0.28020  0.38120  Biso   1.000  H
  H60      1.0000 0.92160  0.78020  0.11880  Biso   1.000  H
  C73      1.0000 0.32130  0.81160  0.53330  Biso   1.000  C
  C74      1.0000 0.17870  0.31160  0.96670  Biso   1.000  C
  C75      1.0000 0.67870  0.18840  0.46670  Biso   1.000  C
  C76      1.0000 0.82130  0.68840  0.03330  Biso   1.000  C
  H61      1.0000 0.30550  0.86550  0.57590  Biso   1.000  H
  H62      1.0000 0.19450  0.36550  0.92410  Biso   1.000  H
  H63      1.0000 0.69450  0.13450  0.42410  Biso   1.000  H
  H64      1.0000 0.80550  0.63450  0.07590  Biso   1.000  H
  C77      1.0000 0.27180  0.82130  0.44530  Biso   1.000  C
  C78      1.0000 0.22820  0.32130  0.05470  Biso   1.000  C
  C79      1.0000 0.72820  0.17870  0.55470  Biso   1.000  C
  C80      1.0000 0.77180  0.67870  0.94530  Biso   1.000  C
  H65      1.0000 0.22000  0.87950  0.42790  Biso   1.000  H
  H66      1.0000 0.28000  0.37950  0.07210  Biso   1.000  H
  H67      1.0000 0.78000  0.12050  0.57210  Biso   1.000  H
  H68      1.0000 0.72000  0.62050  0.92790  Biso   1.000  H
  C81      1.0000 0.55900  0.88800  0.36840  Biso   1.000  C
  C82      1.0000 0.94100  0.38800  0.13160  Biso   1.000  C
  C83      1.0000 0.44100  0.11200  0.63160  Biso   1.000  C
  C84      1.0000 0.05900  0.61200  0.86840  Biso   1.000  C
  H69      1.0000 0.60110  0.81860  0.37810  Biso   1.000  H
  H70      1.0000 0.89890  0.31860  0.12190  Biso   1.000  H
  H71      1.0000 0.39890  0.18140  0.62190  Biso   1.000  H
  H72      1.0000 0.10110  0.68140  0.87810  Biso   1.000  H
  H73      1.0000 0.47630  0.87500  0.37060  Biso   1.000  H
  H74      1.0000 0.02370  0.37500  0.12940  Biso   1.000  H
  H75      1.0000 0.52370  0.12500  0.62940  Biso   1.000  H
  H76      1.0000 0.97630  0.62500  0.87060  Biso   1.000  H
  H77      1.0000 0.58680  0.94050  0.41510  Biso   1.000  H
  H78      1.0000 0.91320  0.44050  0.08490  Biso   1.000  H
  H79      1.0000 0.41320  0.05950  0.58490  Biso   1.000  H
  H80      1.0000 0.08680  0.55950  0.91510  Biso   1.000  H
  C85      1.0000 0.57700  0.92940  0.28740  Biso   1.000  C
  C86      1.0000 0.92300  0.42940  0.21260  Biso   1.000  C
  C87      1.0000 0.42300  0.07060  0.71260  Biso   1.000  C
  C88      1.0000 0.07700  0.57060  0.78740  Biso   1.000  C
  H81      1.0000 0.66150  0.93490  0.28550  Biso   1.000  H
  H82      1.0000 0.83850  0.43490  0.21450  Biso   1.000  H
  H83      1.0000 0.33850  0.06510  0.71450  Biso   1.000  H
  H84      1.0000 0.16150  0.56510  0.78550  Biso   1.000  H
  H85      1.0000 0.54830  0.87430  0.24210  Biso   1.000  H
  H86      1.0000 0.95170  0.37430  0.25790  Biso   1.000  H
  H87      1.0000 0.45170  0.12570  0.75790  Biso   1.000  H
  H88      1.0000 0.04830  0.62570  0.74210  Biso   1.000  H
  O9       1.0000 0.85060  0.16420  0.13530  Biso   1.000  O
  O10      1.0000 0.64940  0.66420  0.36470  Biso   1.000  O
  O11      1.0000 0.14940  0.83580  0.86470  Biso   1.000  O
  O12      1.0000 0.35060  0.33580  0.63530  Biso   1.000  O
  O13      1.0000 0.80880  0.16890  0.27020  Biso   1.000  O
  O14      1.0000 0.69120  0.66890  0.22980  Biso   1.000  O
  O15      1.0000 0.19120  0.83110  0.72980  Biso   1.000  O
  O16      1.0000 0.30880  0.33110  0.77020  Biso   1.000  O
  O17      1.0000 0.72230  0.05550  0.17590  Biso   1.000  O
  O18      1.0000 0.77770  0.55550  0.32410  Biso   1.000  O
  O19      1.0000 0.27770  0.94450  0.82410  Biso   1.000  O
  O20      1.0000 0.22230  0.44450  0.67590  Biso   1.000  O
  N21      1.0000 0.79570  0.13130  0.19560  Biso   1.000  N
  N22      1.0000 0.70430  0.63130  0.30440  Biso   1.000  N
  N23      1.0000 0.20430  0.86870  0.80440  Biso   1.000  N
  N24      1.0000 0.29570  0.36870  0.69560  Biso   1.000  N
