data_image0
_cell_length_a       12.41
_cell_length_b       14.262
_cell_length_c       19.027
_cell_angle_alpha    90
_cell_angle_beta     90
_cell_angle_gamma    90

_symmetry_space_group_name_H-M    "P 1"
_symmetry_int_tables_number       1

loop_
  _symmetry_equiv_pos_as_xyz
  'x, y, z'

loop_
  _atom_site_label
  _atom_site_occupancy
  _atom_site_fract_x
  _atom_site_fract_y
  _atom_site_fract_z
  _atom_site_thermal_displace_type
  _atom_site_B_iso_or_equiv
  _atom_site_type_symbol
  Cu1      1.0000 0.18018  0.92002  0.81731  Biso   1.000  Cu
  Cu2      1.0000 0.31982  0.07998  0.31731  Biso   1.000  Cu
  Cu3      1.0000 0.68018  0.57998  0.18269  Biso   1.000  Cu
  Cu4      1.0000 0.81982  0.42002  0.68269  Biso   1.000  Cu
  Cu5      1.0000 0.47575  0.96868  0.00910  Biso   1.000  Cu
  Cu6      1.0000 0.02425  0.03132  0.50910  Biso   1.000  Cu
  Cu7      1.0000 0.97575  0.53132  0.99090  Biso   1.000  Cu
  Cu8      1.0000 0.52425  0.46868  0.49090  Biso   1.000  Cu
  Cu9      1.0000 0.82380  0.07070  0.14100  Biso   1.000  Cu
  Cu10     1.0000 0.67620  0.92930  0.64100  Biso   1.000  Cu
  Cu11     1.0000 0.32380  0.42930  0.85900  Biso   1.000  Cu
  Cu12     1.0000 0.17620  0.57070  0.35900  Biso   1.000  Cu
  S1       1.0000 0.16290  0.12900  0.61660  Biso   1.000  S
  S2       1.0000 0.33710  0.87100  0.11660  Biso   1.000  S
  S3       1.0000 0.66290  0.37100  0.38340  Biso   1.000  S
  S4       1.0000 0.83710  0.62900  0.88340  Biso   1.000  S
  S5       1.0000 0.85490  0.92940  0.37460  Biso   1.000  S
  S6       1.0000 0.64510  0.07060  0.87460  Biso   1.000  S
  S7       1.0000 0.35490  0.57060  0.62540  Biso   1.000  S
  S8       1.0000 0.14510  0.42940  0.12540  Biso   1.000  S
  O1       1.0000 0.32100  0.86140  0.84580  Biso   1.000  O
  O2       1.0000 0.17900  0.13860  0.34580  Biso   1.000  O
  O3       1.0000 0.82100  0.63860  0.15420  Biso   1.000  O
  O4       1.0000 0.67900  0.36140  0.65420  Biso   1.000  O
  O5       1.0000 0.21540  0.01210  0.89430  Biso   1.000  O
  O6       1.0000 0.28460  0.98790  0.39430  Biso   1.000  O
  O7       1.0000 0.71540  0.48790  0.10570  Biso   1.000  O
  O8       1.0000 0.78460  0.51210  0.60570  Biso   1.000  O
  O9       1.0000 0.34310  0.03330  0.97660  Biso   1.000  O
  O10      1.0000 0.15690  0.96670  0.47660  Biso   1.000  O
  O11      1.0000 0.84310  0.46670  0.02340  Biso   1.000  O
  O12      1.0000 0.65690  0.53330  0.52340  Biso   1.000  O
  O13      1.0000 0.52130  0.07090  0.07110  Biso   1.000  O
  O14      1.0000 0.97870  0.92910  0.57110  Biso   1.000  O
  O15      1.0000 0.02130  0.42910  0.92890  Biso   1.000  O
  O16      1.0000 0.47870  0.57090  0.42890  Biso   1.000  O
  O17      1.0000 0.77230  0.95940  0.08850  Biso   1.000  O
  O18      1.0000 0.72770  0.04060  0.58850  Biso   1.000  O
  O19      1.0000 0.27230  0.54060  0.91150  Biso   1.000  O
  O20      1.0000 0.22770  0.45940  0.41150  Biso   1.000  O
  O21      1.0000 0.67320  0.11750  0.12630  Biso   1.000  O
  O22      1.0000 0.82680  0.88250  0.62630  Biso   1.000  O
  O23      1.0000 0.17320  0.38250  0.87370  Biso   1.000  O
  O24      1.0000 0.32680  0.61750  0.37370  Biso   1.000  O
  N1       1.0000 0.21510  0.01170  0.72840  Biso   1.000  N
  N2       1.0000 0.28490  0.98830  0.22840  Biso   1.000  N
  N3       1.0000 0.71510  0.48830  0.27160  Biso   1.000  N
  N4       1.0000 0.78490  0.51170  0.77160  Biso   1.000  N
  N5       1.0000 0.13210  0.80240  0.76440  Biso   1.000  N
  N6       1.0000 0.36790  0.19760  0.26440  Biso   1.000  N
  N7       1.0000 0.63210  0.69760  0.23560  Biso   1.000  N
  N8       1.0000 0.86790  0.30240  0.73560  Biso   1.000  N
  N9       1.0000 0.02090  0.94990  0.82580  Biso   1.000  N
  N10      1.0000 0.47910  0.05010  0.32580  Biso   1.000  N
  N11      1.0000 0.52090  0.55010  0.17420  Biso   1.000  N
  N12      1.0000 0.97910  0.44990  0.67420  Biso   1.000  N
  N13      1.0000 0.43980  0.87750  0.93740  Biso   1.000  N
  N14      1.0000 0.06020  0.12250  0.43740  Biso   1.000  N
  N15      1.0000 0.93980  0.62250  0.06260  Biso   1.000  N
  N16      1.0000 0.56020  0.37750  0.56260  Biso   1.000  N
  N17      1.0000 0.61970  0.91590  0.03010  Biso   1.000  N
  N18      1.0000 0.88030  0.08410  0.53010  Biso   1.000  N
  N19      1.0000 0.11970  0.58410  0.96990  Biso   1.000  N
  N20      1.0000 0.38030  0.41590  0.46990  Biso   1.000  N
  N21      1.0000 0.78780  0.00830  0.25660  Biso   1.000  N
  N22      1.0000 0.71220  0.99170  0.75660  Biso   1.000  N
  N23      1.0000 0.28780  0.49170  0.74340  Biso   1.000  N
  N24      1.0000 0.21220  0.50830  0.24340  Biso   1.000  N
  N25      1.0000 0.97870  0.02710  0.14300  Biso   1.000  N
  N26      1.0000 0.52130  0.97290  0.64300  Biso   1.000  N
  N27      1.0000 0.47870  0.47290  0.85700  Biso   1.000  N
  N28      1.0000 0.02130  0.52710  0.35700  Biso   1.000  N
  N29      1.0000 0.87530  0.19470  0.18150  Biso   1.000  N
  N30      1.0000 0.62470  0.80530  0.68150  Biso   1.000  N
  N31      1.0000 0.37530  0.30530  0.81850  Biso   1.000  N
  N32      1.0000 0.12470  0.69470  0.31850  Biso   1.000  N
  C1       1.0000 0.19540  0.05830  0.68450  Biso   1.000  C
  C2       1.0000 0.30460  0.94170  0.18450  Biso   1.000  C
  C3       1.0000 0.69540  0.44170  0.31550  Biso   1.000  C
  C4       1.0000 0.80460  0.55830  0.81550  Biso   1.000  C
  C5       1.0000 0.01420  0.81350  0.75370  Biso   1.000  C
  C6       1.0000 0.48580  0.18650  0.25370  Biso   1.000  C
  C7       1.0000 0.51420  0.68650  0.24630  Biso   1.000  C
  C8       1.0000 0.98580  0.31350  0.74630  Biso   1.000  C
  C9       1.0000 0.97600  0.90560  0.76070  Biso   1.000  C
  C10      1.0000 0.52400  0.09440  0.26070  Biso   1.000  C
  C11      1.0000 0.47600  0.59440  0.23930  Biso   1.000  C
  C12      1.0000 0.02400  0.40560  0.73930  Biso   1.000  C
  C13      1.0000 0.35920  0.90160  0.89870  Biso   1.000  C
  C14      1.0000 0.14080  0.09840  0.39870  Biso   1.000  C
  C15      1.0000 0.85920  0.59840  0.10130  Biso   1.000  C
  C16      1.0000 0.64080  0.40160  0.60130  Biso   1.000  C
  C17      1.0000 0.30170  0.99150  0.92330  Biso   1.000  C
  C18      1.0000 0.19830  0.00850  0.42330  Biso   1.000  C
  C19      1.0000 0.80170  0.50850  0.07670  Biso   1.000  C
  C20      1.0000 0.69830  0.49150  0.57670  Biso   1.000  C
  C21      1.0000 0.50190  0.79450  0.92020  Biso   1.000  C
  C22      1.0000 0.99810  0.20550  0.42020  Biso   1.000  C
  C23      1.0000 0.00190  0.70550  0.07980  Biso   1.000  C
  C24      1.0000 0.49810  0.29450  0.57980  Biso   1.000  C
  C25      1.0000 0.57950  0.76220  0.97620  Biso   1.000  C
  C26      1.0000 0.92050  0.23780  0.47620  Biso   1.000  C
  C27      1.0000 0.07950  0.73780  0.02380  Biso   1.000  C
  C28      1.0000 0.42050  0.26220  0.52380  Biso   1.000  C
  C29      1.0000 0.66510  0.82990  0.00050  Biso   1.000  C
  C30      1.0000 0.83490  0.17010  0.50050  Biso   1.000  C
  C31      1.0000 0.16510  0.67010  0.99950  Biso   1.000  C
  C32      1.0000 0.33490  0.32990  0.49950  Biso   1.000  C
  C33      1.0000 0.67740  0.97030  0.06810  Biso   1.000  C
  C34      1.0000 0.82260  0.02970  0.56810  Biso   1.000  C
  C35      1.0000 0.17740  0.52970  0.93190  Biso   1.000  C
  C36      1.0000 0.32260  0.47030  0.43190  Biso   1.000  C
  C37      1.0000 0.62000  0.06210  0.08980  Biso   1.000  C
  C38      1.0000 0.88000  0.93790  0.58980  Biso   1.000  C
  C39      1.0000 0.12000  0.43790  0.91020  Biso   1.000  C
  C40      1.0000 0.38000  0.56210  0.41020  Biso   1.000  C
  C41      1.0000 0.81750  0.97380  0.31190  Biso   1.000  C
  C42      1.0000 0.68250  0.02620  0.81190  Biso   1.000  C
  C43      1.0000 0.31750  0.52620  0.68810  Biso   1.000  C
  C44      1.0000 0.18250  0.47380  0.18810  Biso   1.000  C
  C45      1.0000 0.04540  0.10950  0.16530  Biso   1.000  C
  C46      1.0000 0.45460  0.89050  0.66530  Biso   1.000  C
  C47      1.0000 0.54540  0.39050  0.83470  Biso   1.000  C
  C48      1.0000 0.95460  0.60950  0.33470  Biso   1.000  C
  C49      1.0000 0.98360  0.17320  0.20900  Biso   1.000  C
  C50      1.0000 0.51640  0.82680  0.70900  Biso   1.000  C
  C51      1.0000 0.48360  0.32680  0.79100  Biso   1.000  C
  C52      1.0000 0.01640  0.67320  0.29100  Biso   1.000  C
  C53      1.0000 0.18380  0.79630  0.69520  Biso   1.000  C
  C54      1.0000 0.31620  0.20370  0.19520  Biso   1.000  C
  C55      1.0000 0.68380  0.70370  0.30480  Biso   1.000  C
  C56      1.0000 0.81620  0.29630  0.80480  Biso   1.000  C
  C57      1.0000 0.15490  0.71880  0.80590  Biso   1.000  C
  C58      1.0000 0.34510  0.28120  0.30590  Biso   1.000  C
  C59      1.0000 0.65490  0.78120  0.19410  Biso   1.000  C
  C60      1.0000 0.84510  0.21880  0.69410  Biso   1.000  C
  C61      1.0000 0.00060  0.05000  0.81480  Biso   1.000  C
  C62      1.0000 0.49940  0.95000  0.31480  Biso   1.000  C
  C63      1.0000 0.50060  0.45000  0.18520  Biso   1.000  C
  C64      1.0000 0.99940  0.55000  0.68520  Biso   1.000  C
  C65      1.0000 0.97920  0.93530  0.89690  Biso   1.000  C
  C66      1.0000 0.52080  0.06470  0.39690  Biso   1.000  C
  C67      1.0000 0.47920  0.56470  0.10310  Biso   1.000  C
  C68      1.0000 0.02080  0.43530  0.60310  Biso   1.000  C
  C69      1.0000 0.99510  0.94040  0.18190  Biso   1.000  C
  C70      1.0000 0.50490  0.05960  0.68190  Biso   1.000  C
  C71      1.0000 0.49510  0.55960  0.81810  Biso   1.000  C
  C72      1.0000 0.00490  0.44040  0.31810  Biso   1.000  C
  C73      1.0000 0.01510  0.00260  0.06770  Biso   1.000  C
  C74      1.0000 0.48490  0.99740  0.56770  Biso   1.000  C
  C75      1.0000 0.51510  0.49740  0.93230  Biso   1.000  C
  C76      1.0000 0.98490  0.50260  0.43230  Biso   1.000  C
  C77      1.0000 0.80810  0.22350  0.24080  Biso   1.000  C
  C78      1.0000 0.69190  0.77650  0.74080  Biso   1.000  C
  C79      1.0000 0.30810  0.27650  0.75920  Biso   1.000  C
  C80      1.0000 0.19190  0.72350  0.25920  Biso   1.000  C
  C81      1.0000 0.87850  0.26940  0.13180  Biso   1.000  C
  C82      1.0000 0.62150  0.73060  0.63180  Biso   1.000  C
  C83      1.0000 0.37850  0.23060  0.86820  Biso   1.000  C
  C84      1.0000 0.12150  0.76940  0.36820  Biso   1.000  C
  O25      1.0000 0.20180  0.18530  0.01970  Biso   1.000  O
  O26      1.0000 0.29820  0.81470  0.51970  Biso   1.000  O
  O27      1.0000 0.70180  0.31470  0.98030  Biso   1.000  O
  O28      1.0000 0.79820  0.68530  0.48030  Biso   1.000  O
  O29      1.0000 0.83040  0.14690  0.99270  Biso   1.000  O
  O30      1.0000 0.66960  0.85310  0.49270  Biso   1.000  O
  O31      1.0000 0.33040  0.35310  0.00730  Biso   1.000  O
  O32      1.0000 0.16960  0.64690  0.50730  Biso   1.000  O
  O33      1.0000 0.01200  0.22240  0.94600  Biso   1.000  O
  O34      1.0000 0.48800  0.77760  0.44600  Biso   1.000  O
  O35      1.0000 0.51200  0.27760  0.05400  Biso   1.000  O
  O36      1.0000 0.98800  0.72240  0.55400  Biso   1.000  O
