data_image0
_cell_length_a       11.0445
_cell_length_b       7.2809
_cell_length_c       8.9464
_cell_angle_alpha    90
_cell_angle_beta     107.16
_cell_angle_gamma    90

_symmetry_space_group_name_H-M    "P 1"
_symmetry_int_tables_number       1

loop_
  _symmetry_equiv_pos_as_xyz
  'x, y, z'

loop_
  _atom_site_label
  _atom_site_occupancy
  _atom_site_fract_x
  _atom_site_fract_y
  _atom_site_fract_z
  _atom_site_thermal_displace_type
  _atom_site_B_iso_or_equiv
  _atom_site_type_symbol
  Cu1      1.0000 0.00000  0.50000  0.00000  Biso   1.000  Cu
  Cu2      1.0000 0.00000  0.00000  0.50000  Biso   1.000  Cu
  C1       1.0000 0.19070  0.75200  0.93220  Biso   1.000  C
  C2       1.0000 0.80930  0.25200  0.56780  Biso   1.000  C
  C3       1.0000 0.80930  0.24800  0.06780  Biso   1.000  C
  C4       1.0000 0.19070  0.74800  0.43220  Biso   1.000  C
  C5       1.0000 0.28790  0.78390  0.86990  Biso   1.000  C
  C6       1.0000 0.71210  0.28390  0.63010  Biso   1.000  C
  C7       1.0000 0.71210  0.21610  0.13010  Biso   1.000  C
  C8       1.0000 0.28790  0.71610  0.36990  Biso   1.000  C
  C9       1.0000 0.29210  0.48240  0.80550  Biso   1.000  C
  C10      1.0000 0.70790  0.98240  0.69450  Biso   1.000  C
  C11      1.0000 0.70790  0.51760  0.19450  Biso   1.000  C
  C12      1.0000 0.29210  0.01760  0.30550  Biso   1.000  C
  C13      1.0000 0.18830  0.44690  0.85740  Biso   1.000  C
  C14      1.0000 0.81170  0.94690  0.64260  Biso   1.000  C
  C15      1.0000 0.81170  0.55310  0.14260  Biso   1.000  C
  C16      1.0000 0.18830  0.05310  0.35740  Biso   1.000  C
  C17      1.0000 0.36320  0.34580  0.73320  Biso   1.000  C
  C18      1.0000 0.63680  0.84580  0.76680  Biso   1.000  C
  C19      1.0000 0.63680  0.65420  0.26680  Biso   1.000  C
  C20      1.0000 0.36320  0.15420  0.23320  Biso   1.000  C
  C21      1.0000 0.11260  0.26910  0.83690  Biso   1.000  C
  C22      1.0000 0.88740  0.76910  0.66310  Biso   1.000  C
  C23      1.0000 0.88740  0.73090  0.16310  Biso   1.000  C
  C24      1.0000 0.11260  0.23090  0.33690  Biso   1.000  C
  H1       1.0000 0.15100  0.85300  0.97500  Biso   1.000  H
  H2       1.0000 0.84900  0.35300  0.52500  Biso   1.000  H
  H3       1.0000 0.84900  0.14700  0.02500  Biso   1.000  H
  H4       1.0000 0.15100  0.64700  0.47500  Biso   1.000  H
  H5       1.0000 0.31900  0.89600  0.87100  Biso   1.000  H
  H6       1.0000 0.68100  0.39600  0.62900  Biso   1.000  H
  H7       1.0000 0.68100  0.10400  0.12900  Biso   1.000  H
  H8       1.0000 0.31900  0.60400  0.37100  Biso   1.000  H
  N1       1.0000 0.14210  0.58300  0.92770  Biso   1.000  N
  N2       1.0000 0.85790  0.08300  0.57230  Biso   1.000  N
  N3       1.0000 0.85790  0.41700  0.07230  Biso   1.000  N
  N4       1.0000 0.14210  0.91700  0.42770  Biso   1.000  N
  N5       1.0000 0.34140  0.65090  0.81100  Biso   1.000  N
  N6       1.0000 0.65860  0.15090  0.68900  Biso   1.000  N
  N7       1.0000 0.65860  0.34910  0.18900  Biso   1.000  N
  N8       1.0000 0.34140  0.84910  0.31100  Biso   1.000  N
  O1       1.0000 0.02290  0.26960  0.89880  Biso   1.000  O
  O2       1.0000 0.97710  0.76960  0.60120  Biso   1.000  O
  O3       1.0000 0.97710  0.73040  0.10120  Biso   1.000  O
  O4       1.0000 0.02290  0.23040  0.39880  Biso   1.000  O
  O5       1.0000 0.13920  0.14630  0.75790  Biso   1.000  O
  O6       1.0000 0.86080  0.64630  0.74210  Biso   1.000  O
  O7       1.0000 0.86080  0.85370  0.24210  Biso   1.000  O
  O8       1.0000 0.13920  0.35370  0.25790  Biso   1.000  O
  O9       1.0000 0.43550  0.22730  0.83430  Biso   1.000  O
  O10      1.0000 0.56450  0.72730  0.66570  Biso   1.000  O
  O11      1.0000 0.56450  0.77270  0.16570  Biso   1.000  O
  O12      1.0000 0.43550  0.27270  0.33430  Biso   1.000  O
  O13      1.0000 0.36000  0.36440  0.59820  Biso   1.000  O
  O14      1.0000 0.64000  0.86440  0.90180  Biso   1.000  O
  O15      1.0000 0.64000  0.63560  0.40180  Biso   1.000  O
  O16      1.0000 0.36000  0.13560  0.09820  Biso   1.000  O
  H9       1.0000 0.49230  0.16150  0.81050  Biso   1.000  H
  H10      1.0000 0.50770  0.66150  0.68950  Biso   1.000  H
  H11      1.0000 0.50770  0.83850  0.18950  Biso   1.000  H
  H12      1.0000 0.49230  0.33850  0.31050  Biso   1.000  H
