data_image0
_cell_length_a       9.938
_cell_length_b       12.569
_cell_length_c       12.762
_cell_angle_alpha    63.939
_cell_angle_beta     86.424
_cell_angle_gamma    71.117

_symmetry_space_group_name_H-M    "P 1"
_symmetry_int_tables_number       1

loop_
  _symmetry_equiv_pos_as_xyz
  'x, y, z'

loop_
  _atom_site_label
  _atom_site_occupancy
  _atom_site_fract_x
  _atom_site_fract_y
  _atom_site_fract_z
  _atom_site_thermal_displace_type
  _atom_site_B_iso_or_equiv
  _atom_site_type_symbol
  Cu1      1.0000 0.11391  0.11583  0.40658  Biso   1.000  Cu
  Cu2      1.0000 0.88609  0.88417  0.59342  Biso   1.000  Cu
  C1       1.0000 0.42540  0.27850  0.26500  Biso   1.000  C
  C2       1.0000 0.57460  0.72150  0.73500  Biso   1.000  C
  C3       1.0000 0.56160  0.18960  0.30840  Biso   1.000  C
  C4       1.0000 0.43840  0.81040  0.69160  Biso   1.000  C
  H1       1.0000 0.57120  0.10590  0.35610  Biso   1.000  H
  H2       1.0000 0.42880  0.89410  0.64390  Biso   1.000  H
  C5       1.0000 0.68180  0.22520  0.28100  Biso   1.000  C
  C6       1.0000 0.31820  0.77480  0.71900  Biso   1.000  C
  C7       1.0000 0.66670  0.35010  0.20930  Biso   1.000  C
  C8       1.0000 0.33330  0.64990  0.79070  Biso   1.000  C
  H3       1.0000 0.74770  0.37400  0.18970  Biso   1.000  H
  H4       1.0000 0.25230  0.62600  0.81030  Biso   1.000  H
  C9       1.0000 0.53240  0.43980  0.16660  Biso   1.000  C
  C10      1.0000 0.46760  0.56020  0.83340  Biso   1.000  C
  C11      1.0000 0.41100  0.40350  0.19300  Biso   1.000  C
  C12      1.0000 0.58900  0.59650  0.80700  Biso   1.000  C
  H5       1.0000 0.32080  0.46260  0.16260  Biso   1.000  H
  H6       1.0000 0.67920  0.53740  0.83740  Biso   1.000  H
  C13      1.0000 0.29470  0.24180  0.29670  Biso   1.000  C
  C14      1.0000 0.70530  0.75820  0.70330  Biso   1.000  C
  C15      1.0000 0.82640  0.13140  0.33720  Biso   1.000  C
  C16      1.0000 0.17360  0.86860  0.66280  Biso   1.000  C
  C17      1.0000 0.41420  0.66850  0.07880  Biso   1.000  C
  C18      1.0000 0.58580  0.33150  0.92120  Biso   1.000  C
  C19      1.0000 0.43140  0.79180  0.99510  Biso   1.000  C
  C20      1.0000 0.56860  0.20820  0.00490  Biso   1.000  C
  C21      1.0000 0.55870  0.81150  0.96780  Biso   1.000  C
  C22      1.0000 0.44130  0.18850  0.03220  Biso   1.000  C
  H7       1.0000 0.64330  0.74500  0.00130  Biso   1.000  H
  H8       1.0000 0.35670  0.25500  0.99870  Biso   1.000  H
  C23      1.0000 0.56370  0.92810  0.89150  Biso   1.000  C
  C24      1.0000 0.43630  0.07190  0.10850  Biso   1.000  C
  H9       1.0000 0.65200  0.93940  0.87520  Biso   1.000  H
  H10      1.0000 0.34800  0.06060  0.12480  Biso   1.000  H
  C25      1.0000 0.32280  0.00860  0.86470  Biso   1.000  C
  C26      1.0000 0.67720  0.99140  0.13530  Biso   1.000  C
  H11      1.0000 0.24050  0.07670  0.82740  Biso   1.000  H
  H12      1.0000 0.75950  0.92330  0.17260  Biso   1.000  H
  C27      1.0000 0.30760  0.89260  0.94450  Biso   1.000  C
  C28      1.0000 0.69240  0.10740  0.05550  Biso   1.000  C
  H13      1.0000 0.21810  0.88470  0.96220  Biso   1.000  H
  H14      1.0000 0.78190  0.11530  0.03780  Biso   1.000  H
  C29      1.0000 0.15130  0.93540  0.29750  Biso   1.000  C
  C30      1.0000 0.84870  0.06460  0.70250  Biso   1.000  C
  H15      1.0000 0.06020  0.97190  0.25860  Biso   1.000  H
  H16      1.0000 0.93980  0.02810  0.74140  Biso   1.000  H
  C31      1.0000 0.25100  0.83350  0.29800  Biso   1.000  C
  C32      1.0000 0.74900  0.16650  0.70200  Biso   1.000  C
  H17      1.0000 0.24320  0.78830  0.25860  Biso   1.000  H
  H18      1.0000 0.75680  0.21170  0.74140  Biso   1.000  H
  C33      1.0000 0.49810  0.70600  0.39910  Biso   1.000  C
  C34      1.0000 0.50190  0.29400  0.60090  Biso   1.000  C
  C35      1.0000 0.57110  0.68280  0.31360  Biso   1.000  C
  C36      1.0000 0.42890  0.31720  0.68640  Biso   1.000  C
  H19      1.0000 0.53700  0.73490  0.23540  Biso   1.000  H
  H20      1.0000 0.46300  0.26510  0.76460  Biso   1.000  H
  C37      1.0000 0.69530  0.58230  0.34250  Biso   1.000  C
  C38      1.0000 0.30470  0.41770  0.65750  Biso   1.000  C
  H21      1.0000 0.74540  0.56580  0.28430  Biso   1.000  H
  H22      1.0000 0.25460  0.43420  0.71570  Biso   1.000  H
  C39      1.0000 0.74490  0.50580  0.45970  Biso   1.000  C
  C40      1.0000 0.25510  0.49420  0.54030  Biso   1.000  C
  C41      1.0000 0.90270  0.32890  0.42860  Biso   1.000  C
  C42      1.0000 0.09730  0.67110  0.57140  Biso   1.000  C
  H23      1.0000 0.84260  0.34150  0.36820  Biso   1.000  H
  H24      1.0000 0.15740  0.65850  0.63180  Biso   1.000  H
  C43      1.0000 0.07960  0.25530  0.55490  Biso   1.000  C
  C44      1.0000 0.92040  0.74470  0.44510  Biso   1.000  C
  H25      1.0000 0.16740  0.20570  0.59870  Biso   1.000  H
  H26      1.0000 0.83260  0.79430  0.40130  Biso   1.000  H
  C45      1.0000 0.98530  0.35170  0.56860  Biso   1.000  C
  C46      1.0000 0.01470  0.64830  0.43140  Biso   1.000  C
  H27      1.0000 0.99500  0.38050  0.62260  Biso   1.000  H
  H28      1.0000 0.00500  0.61950  0.37740  Biso   1.000  H
  C47      1.0000 0.67340  0.52970  0.54600  Biso   1.000  C
  C48      1.0000 0.32660  0.47030  0.45400  Biso   1.000  C
  H29      1.0000 0.70890  0.47920  0.62420  Biso   1.000  H
  H30      1.0000 0.29110  0.52080  0.37580  Biso   1.000  H
  C49      1.0000 0.54680  0.63050  0.51540  Biso   1.000  C
  C50      1.0000 0.45320  0.36950  0.48460  Biso   1.000  C
  H31      1.0000 0.49540  0.64680  0.57320  Biso   1.000  H
  H32      1.0000 0.50460  0.35320  0.42680  Biso   1.000  H
  C51      1.0000 0.33400  0.89860  0.40450  Biso   1.000  C
  C52      1.0000 0.66600  0.10140  0.59550  Biso   1.000  C
  H33      1.0000 0.39520  0.90400  0.45280  Biso   1.000  H
  H34      1.0000 0.60480  0.09600  0.54720  Biso   1.000  H
  N1       1.0000 0.44580  0.02480  0.84070  Biso   1.000  N
  N2       1.0000 0.55420  0.97520  0.15930  Biso   1.000  N
  N3       1.0000 0.52490  0.56590  0.09370  Biso   1.000  N
  N4       1.0000 0.47510  0.43410  0.90630  Biso   1.000  N
  H35      1.0000 0.59760  0.57750  0.05580  Biso   1.000  H
  H36      1.0000 0.40240  0.42250  0.94420  Biso   1.000  H
  N5       1.0000 0.20390  0.97810  0.36330  Biso   1.000  N
  N6       1.0000 0.79610  0.02190  0.63670  Biso   1.000  N
  N7       1.0000 0.36690  0.80920  0.36820  Biso   1.000  N
  N8       1.0000 0.63310  0.19080  0.63180  Biso   1.000  N
  N9       1.0000 0.02700  0.24090  0.46650  Biso   1.000  N
  N10      1.0000 0.97300  0.75910  0.53350  Biso   1.000  N
  N11      1.0000 0.87210  0.39890  0.48690  Biso   1.000  N
  N12      1.0000 0.12790  0.60110  0.51310  Biso   1.000  N
  O1       1.0000 0.30230  0.14830  0.39290  Biso   1.000  O
  O2       1.0000 0.69770  0.85170  0.60710  Biso   1.000  O
  O3       1.0000 0.18400  0.30430  0.22690  Biso   1.000  O
  O4       1.0000 0.81600  0.69570  0.77310  Biso   1.000  O
  O5       1.0000 0.83440  0.02240  0.40570  Biso   1.000  O
  O6       1.0000 0.16560  0.97760  0.59430  Biso   1.000  O
  O7       1.0000 0.93010  0.17310  0.31240  Biso   1.000  O
  O8       1.0000 0.06990  0.82690  0.68760  Biso   1.000  O
  O9       1.0000 0.30770  0.66570  0.13090  Biso   1.000  O
  O10      1.0000 0.69230  0.33430  0.86910  Biso   1.000  O
  O11      1.0000 0.01010  0.75740  0.12620  Biso   1.000  O
  O12      1.0000 0.98990  0.24260  0.87380  Biso   1.000  O
  H37      1.0000 0.10010  0.73880  0.12450  Biso   1.000  H
  H38      1.0000 0.89990  0.26120  0.87550  Biso   1.000  H
  H39      1.0000 0.98960  0.69060  0.14840  Biso   1.000  H
  H40      1.0000 0.01040  0.30940  0.85160  Biso   1.000  H
  O13      1.0000 0.18870  0.45560  0.98630  Biso   1.000  O
  O14      1.0000 0.81130  0.54440  0.01370  Biso   1.000  O
  H41      1.0000 0.13830  0.52840  0.97770  Biso   1.000  H
  H42      1.0000 0.86170  0.47160  0.02230  Biso   1.000  H
  H43      1.0000 0.18930  0.39780  0.05970  Biso   1.000  H
  H44      1.0000 0.81070  0.60220  0.94030  Biso   1.000  H
  O15      1.0000 0.98450  0.27250  0.06130  Biso   1.000  O
  O16      1.0000 0.01550  0.72750  0.93870  Biso   1.000  O
  H45      1.0000 0.95260  0.24460  0.12790  Biso   1.000  H
  H46      1.0000 0.04740  0.75540  0.87210  Biso   1.000  H
  H47      1.0000 0.06650  0.27500  0.07290  Biso   1.000  H
  H48      1.0000 0.93350  0.72500  0.92710  Biso   1.000  H
  O17      1.0000 0.97790  0.53420  0.19810  Biso   1.000  O
  O18      1.0000 0.02210  0.46580  0.80190  Biso   1.000  O
  H49      1.0000 0.04600  0.46600  0.21410  Biso   1.000  H
  H50      1.0000 0.95400  0.53400  0.78590  Biso   1.000  H
  H51      1.0000 0.92160  0.54650  0.14340  Biso   1.000  H
  H52      1.0000 0.07840  0.45350  0.85660  Biso   1.000  H
