data_image0
_cell_length_a       11.1247
_cell_length_b       13.8804
_cell_length_c       16.0419
_cell_angle_alpha    90
_cell_angle_beta     98.714
_cell_angle_gamma    90

_symmetry_space_group_name_H-M    "P 1"
_symmetry_int_tables_number       1

loop_
  _symmetry_equiv_pos_as_xyz
  'x, y, z'

loop_
  _atom_site_label
  _atom_site_occupancy
  _atom_site_fract_x
  _atom_site_fract_y
  _atom_site_fract_z
  _atom_site_thermal_displace_type
  _atom_site_B_iso_or_equiv
  _atom_site_type_symbol
  Cu1      1.0000 0.52256  0.50471  0.87892  Biso   1.000  Cu
  Cu2      1.0000 0.47744  0.00471  0.62108  Biso   1.000  Cu
  Cu3      1.0000 0.47744  0.49529  0.12108  Biso   1.000  Cu
  Cu4      1.0000 0.52256  0.99529  0.37892  Biso   1.000  Cu
  C1       1.0000 0.55900  0.58968  0.64206  Biso   1.000  C
  C2       1.0000 0.44100  0.08968  0.85794  Biso   1.000  C
  C3       1.0000 0.44100  0.41032  0.35794  Biso   1.000  C
  C4       1.0000 0.55900  0.91032  0.14206  Biso   1.000  C
  C5       1.0000 0.53270  0.68559  0.62326  Biso   1.000  C
  C6       1.0000 0.46730  0.18559  0.87674  Biso   1.000  C
  C7       1.0000 0.46730  0.31441  0.37674  Biso   1.000  C
  C8       1.0000 0.53270  0.81441  0.12326  Biso   1.000  C
  H1       1.0000 0.49460  0.72300  0.65960  Biso   1.000  H
  H2       1.0000 0.50540  0.22300  0.84040  Biso   1.000  H
  H3       1.0000 0.50540  0.27700  0.34040  Biso   1.000  H
  H4       1.0000 0.49460  0.77700  0.15960  Biso   1.000  H
  C9       1.0000 0.56350  0.72564  0.55025  Biso   1.000  C
  C10      1.0000 0.43650  0.22564  0.94975  Biso   1.000  C
  C11      1.0000 0.43650  0.27436  0.44975  Biso   1.000  C
  C12      1.0000 0.56350  0.77436  0.05025  Biso   1.000  C
  C13      1.0000 0.62480  0.67163  0.49726  Biso   1.000  C
  C14      1.0000 0.37520  0.17163  0.00274  Biso   1.000  C
  C15      1.0000 0.37520  0.32837  0.50274  Biso   1.000  C
  C16      1.0000 0.62480  0.82837  0.99726  Biso   1.000  C
  H5       1.0000 0.64590  0.69910  0.44860  Biso   1.000  H
  H6       1.0000 0.35410  0.19910  0.05140  Biso   1.000  H
  H7       1.0000 0.35410  0.30090  0.55140  Biso   1.000  H
  H8       1.0000 0.64590  0.80090  0.94860  Biso   1.000  H
  C17      1.0000 0.65440  0.57624  0.51734  Biso   1.000  C
  C18      1.0000 0.34560  0.07624  0.98266  Biso   1.000  C
  C19      1.0000 0.34560  0.42376  0.48266  Biso   1.000  C
  C20      1.0000 0.65440  0.92376  0.01734  Biso   1.000  C
  C21      1.0000 0.61810  0.53540  0.58849  Biso   1.000  C
  C22      1.0000 0.38190  0.03540  0.91151  Biso   1.000  C
  C23      1.0000 0.38190  0.46460  0.41151  Biso   1.000  C
  C24      1.0000 0.61810  0.96460  0.08849  Biso   1.000  C
  H9       1.0000 0.63370  0.47060  0.60030  Biso   1.000  H
  H10      1.0000 0.36630  0.97060  0.89970  Biso   1.000  H
  H11      1.0000 0.36630  0.52940  0.39970  Biso   1.000  H
  H12      1.0000 0.63370  0.02940  0.10030  Biso   1.000  H
  C25      1.0000 0.52710  0.54340  0.72028  Biso   1.000  C
  C26      1.0000 0.47290  0.04340  0.77972  Biso   1.000  C
  C27      1.0000 0.47290  0.45660  0.27972  Biso   1.000  C
  C28      1.0000 0.52710  0.95660  0.22028  Biso   1.000  C
  C29      1.0000 0.52970  0.82932  0.52908  Biso   1.000  C
  C30      1.0000 0.47030  0.32932  0.97092  Biso   1.000  C
  C31      1.0000 0.47030  0.17068  0.47092  Biso   1.000  C
  C32      1.0000 0.52970  0.67068  0.02908  Biso   1.000  C
  C33      1.0000 0.79980  0.54380  0.41900  Biso   1.000  C
  C34      1.0000 0.20020  0.04380  0.08100  Biso   1.000  C
  C35      1.0000 0.20020  0.45620  0.58100  Biso   1.000  C
  C36      1.0000 0.79980  0.95620  0.91900  Biso   1.000  C
  C37      1.0000 0.85930  0.46330  0.37764  Biso   1.000  C
  C38      1.0000 0.14070  0.96330  0.12236  Biso   1.000  C
  C39      1.0000 0.14070  0.53670  0.62236  Biso   1.000  C
  C40      1.0000 0.85930  0.03670  0.87764  Biso   1.000  C
  C41      1.0000 0.98290  0.46270  0.37770  Biso   1.000  C
  C42      1.0000 0.01710  0.96270  0.12230  Biso   1.000  C
  C43      1.0000 0.01710  0.53730  0.62230  Biso   1.000  C
  C44      1.0000 0.98290  0.03730  0.87770  Biso   1.000  C
  H13      1.0000 0.03180  0.51090  0.40510  Biso   1.000  H
  H14      1.0000 0.96820  0.01090  0.09490  Biso   1.000  H
  H15      1.0000 0.96820  0.48910  0.59490  Biso   1.000  H
  H16      1.0000 0.03180  0.98910  0.90510  Biso   1.000  H
  C45      1.0000 0.03320  0.38940  0.33630  Biso   1.000  C
  C46      1.0000 0.96680  0.88940  0.16370  Biso   1.000  C
  C47      1.0000 0.96680  0.61060  0.66370  Biso   1.000  C
  C48      1.0000 0.03320  0.11060  0.83630  Biso   1.000  C
  H17      1.0000 0.11720  0.38850  0.33860  Biso   1.000  H
  H18      1.0000 0.88280  0.88850  0.16140  Biso   1.000  H
  H19      1.0000 0.88280  0.61150  0.66140  Biso   1.000  H
  H20      1.0000 0.11720  0.11150  0.83860  Biso   1.000  H
  C49      1.0000 0.84860  0.32200  0.29300  Biso   1.000  C
  C50      1.0000 0.15140  0.82200  0.20700  Biso   1.000  C
  C51      1.0000 0.15140  0.67800  0.70700  Biso   1.000  C
  C52      1.0000 0.84860  0.17800  0.79300  Biso   1.000  C
  H21      1.0000 0.80120  0.27480  0.26280  Biso   1.000  H
  H22      1.0000 0.19880  0.77480  0.23720  Biso   1.000  H
  H23      1.0000 0.19880  0.72520  0.73720  Biso   1.000  H
  H24      1.0000 0.80120  0.22520  0.76280  Biso   1.000  H
  C53      1.0000 0.79060  0.39050  0.33510  Biso   1.000  C
  C54      1.0000 0.20940  0.89050  0.16490  Biso   1.000  C
  C55      1.0000 0.20940  0.60950  0.66490  Biso   1.000  C
  C56      1.0000 0.79060  0.10950  0.83510  Biso   1.000  C
  H25      1.0000 0.70700  0.38770  0.33490  Biso   1.000  H
  H26      1.0000 0.29300  0.88770  0.16510  Biso   1.000  H
  H27      1.0000 0.29300  0.61230  0.66510  Biso   1.000  H
  H28      1.0000 0.70700  0.11230  0.83490  Biso   1.000  H
  C57      1.0000 0.27090  0.43400  0.83660  Biso   1.000  C
  C58      1.0000 0.72910  0.93400  0.66340  Biso   1.000  C
  C59      1.0000 0.72910  0.56600  0.16340  Biso   1.000  C
  C60      1.0000 0.27090  0.06600  0.33660  Biso   1.000  C
  H29      1.0000 0.30830  0.38510  0.81030  Biso   1.000  H
  H30      1.0000 0.69170  0.88510  0.68970  Biso   1.000  H
  H31      1.0000 0.69170  0.61490  0.18970  Biso   1.000  H
  H32      1.0000 0.30830  0.11490  0.31030  Biso   1.000  H
  C61      1.0000 0.14820  0.42850  0.83620  Biso   1.000  C
  C62      1.0000 0.85180  0.92850  0.66380  Biso   1.000  C
  C63      1.0000 0.85180  0.57150  0.16380  Biso   1.000  C
  C64      1.0000 0.14820  0.07150  0.33620  Biso   1.000  C
  H33      1.0000 0.10450  0.37640  0.81080  Biso   1.000  H
  H34      1.0000 0.89550  0.87640  0.68920  Biso   1.000  H
  H35      1.0000 0.89550  0.62360  0.18920  Biso   1.000  H
  H36      1.0000 0.10450  0.12360  0.31080  Biso   1.000  H
  C65      1.0000 0.08850  0.50129  0.87393  Biso   1.000  C
  C66      1.0000 0.91150  0.00129  0.62607  Biso   1.000  C
  C67      1.0000 0.91150  0.49871  0.12607  Biso   1.000  C
  C68      1.0000 0.08850  0.99871  0.37393  Biso   1.000  C
  C69      1.0000 0.95650  0.49960  0.87663  Biso   1.000  C
  C70      1.0000 0.04350  0.99960  0.62337  Biso   1.000  C
  C71      1.0000 0.04350  0.50040  0.12337  Biso   1.000  C
  C72      1.0000 0.95650  0.00040  0.37663  Biso   1.000  C
  C73      1.0000 0.88830  0.41570  0.86860  Biso   1.000  C
  C74      1.0000 0.11170  0.91570  0.63140  Biso   1.000  C
  C75      1.0000 0.11170  0.58430  0.13140  Biso   1.000  C
  C76      1.0000 0.88830  0.08430  0.36860  Biso   1.000  C
  H37      1.0000 0.92570  0.35710  0.86110  Biso   1.000  H
  H38      1.0000 0.07430  0.85710  0.63890  Biso   1.000  H
  H39      1.0000 0.07430  0.64290  0.13890  Biso   1.000  H
  H40      1.0000 0.92570  0.14290  0.36110  Biso   1.000  H
  C77      1.0000 0.76510  0.41870  0.87180  Biso   1.000  C
  C78      1.0000 0.23490  0.91870  0.62820  Biso   1.000  C
  C79      1.0000 0.23490  0.58130  0.12820  Biso   1.000  C
  C80      1.0000 0.76510  0.08130  0.37180  Biso   1.000  C
  H41      1.0000 0.72170  0.36120  0.86660  Biso   1.000  H
  H42      1.0000 0.27830  0.86120  0.63340  Biso   1.000  H
  H43      1.0000 0.27830  0.63880  0.13340  Biso   1.000  H
  H44      1.0000 0.72170  0.13880  0.36660  Biso   1.000  H
  C81      1.0000 0.77040  0.58110  0.88890  Biso   1.000  C
  C82      1.0000 0.22960  0.08110  0.61110  Biso   1.000  C
  C83      1.0000 0.22960  0.41890  0.11110  Biso   1.000  C
  C84      1.0000 0.77040  0.91890  0.38890  Biso   1.000  C
  H45      1.0000 0.73040  0.63880  0.89540  Biso   1.000  H
  H46      1.0000 0.26960  0.13880  0.60460  Biso   1.000  H
  H47      1.0000 0.26960  0.36120  0.10460  Biso   1.000  H
  H48      1.0000 0.73040  0.86120  0.39540  Biso   1.000  H
  C85      1.0000 0.89280  0.58360  0.88670  Biso   1.000  C
  C86      1.0000 0.10720  0.08360  0.61330  Biso   1.000  C
  C87      1.0000 0.10720  0.41640  0.11330  Biso   1.000  C
  C88      1.0000 0.89280  0.91640  0.38670  Biso   1.000  C
  H49      1.0000 0.93370  0.64220  0.89200  Biso   1.000  H
  H50      1.0000 0.06630  0.14220  0.60800  Biso   1.000  H
  H51      1.0000 0.06630  0.35780  0.10800  Biso   1.000  H
  H52      1.0000 0.93370  0.85780  0.39200  Biso   1.000  H
  C89      1.0000 0.16100  0.57650  0.90934  Biso   1.000  C
  C90      1.0000 0.83900  0.07650  0.59066  Biso   1.000  C
  C91      1.0000 0.83900  0.42350  0.09066  Biso   1.000  C
  C92      1.0000 0.16100  0.92350  0.40934  Biso   1.000  C
  H53      1.0000 0.12600  0.62760  0.93450  Biso   1.000  H
  H54      1.0000 0.87400  0.12760  0.56550  Biso   1.000  H
  H55      1.0000 0.87400  0.37240  0.06550  Biso   1.000  H
  H56      1.0000 0.12600  0.87240  0.43450  Biso   1.000  H
  C93      1.0000 0.28330  0.57610  0.90744  Biso   1.000  C
  C94      1.0000 0.71670  0.07610  0.59256  Biso   1.000  C
  C95      1.0000 0.71670  0.42390  0.09256  Biso   1.000  C
  C96      1.0000 0.28330  0.92390  0.40744  Biso   1.000  C
  H57      1.0000 0.32910  0.62780  0.93170  Biso   1.000  H
  H58      1.0000 0.67090  0.12780  0.56830  Biso   1.000  H
  H59      1.0000 0.67090  0.37220  0.06830  Biso   1.000  H
  H60      1.0000 0.32910  0.87220  0.43170  Biso   1.000  H
  H61      1.0000 0.01200  0.72600  0.30700  Biso   1.000  H
  H62      1.0000 0.98800  0.22600  0.19300  Biso   1.000  H
  H63      1.0000 0.98800  0.27400  0.69300  Biso   1.000  H
  H64      1.0000 0.01200  0.77400  0.80700  Biso   1.000  H
  H65      1.0000 0.69800  0.31000  0.58000  Biso   1.000  H
  H66      1.0000 0.30200  0.81000  0.92000  Biso   1.000  H
  H67      1.0000 0.30200  0.69000  0.42000  Biso   1.000  H
  H68      1.0000 0.69800  0.19000  0.08000  Biso   1.000  H
  H69      1.0000 0.56800  0.32300  0.69500  Biso   1.000  H
  H70      1.0000 0.43200  0.82300  0.80500  Biso   1.000  H
  H71      1.0000 0.43200  0.67700  0.30500  Biso   1.000  H
  H72      1.0000 0.56800  0.17700  0.19500  Biso   1.000  H
  H73      1.0000 0.97100  0.67400  0.36400  Biso   1.000  H
  H74      1.0000 0.02900  0.17400  0.13600  Biso   1.000  H
  H75      1.0000 0.02900  0.32600  0.63600  Biso   1.000  H
  H76      1.0000 0.97100  0.82600  0.86400  Biso   1.000  H
  H77      1.0000 0.80800  0.31900  0.57100  Biso   1.000  H
  H78      1.0000 0.19200  0.81900  0.92900  Biso   1.000  H
  H79      1.0000 0.19200  0.68100  0.42900  Biso   1.000  H
  H80      1.0000 0.80800  0.18100  0.07100  Biso   1.000  H
  H81      1.0000 0.55700  0.23400  0.68000  Biso   1.000  H
  H82      1.0000 0.44300  0.73400  0.82000  Biso   1.000  H
  H83      1.0000 0.44300  0.76600  0.32000  Biso   1.000  H
  H84      1.0000 0.55700  0.26600  0.18000  Biso   1.000  H
  N1       1.0000 0.96830  0.31966  0.29305  Biso   1.000  N
  N2       1.0000 0.03170  0.81966  0.20695  Biso   1.000  N
  N3       1.0000 0.03170  0.68034  0.70695  Biso   1.000  N
  N4       1.0000 0.96830  0.18034  0.79305  Biso   1.000  N
  N5       1.0000 0.71940  0.51621  0.46836  Biso   1.000  N
  N6       1.0000 0.28060  0.01621  0.03164  Biso   1.000  N
  N7       1.0000 0.28060  0.48379  0.53164  Biso   1.000  N
  N8       1.0000 0.71940  0.98379  0.96836  Biso   1.000  N
  H85      1.0000 0.70560  0.45540  0.47060  Biso   1.000  H
  H86      1.0000 0.29440  0.95540  0.02940  Biso   1.000  H
  H87      1.0000 0.29440  0.54460  0.52940  Biso   1.000  H
  H88      1.0000 0.70560  0.04460  0.97060  Biso   1.000  H
  N9       1.0000 0.34070  0.50615  0.87293  Biso   1.000  N
  N10      1.0000 0.65930  0.00615  0.62707  Biso   1.000  N
  N11      1.0000 0.65930  0.49385  0.12707  Biso   1.000  N
  N12      1.0000 0.34070  0.99385  0.37293  Biso   1.000  N
  N13      1.0000 0.70540  0.49983  0.88206  Biso   1.000  N
  N14      1.0000 0.29460  0.99983  0.61794  Biso   1.000  N
  N15      1.0000 0.29460  0.50017  0.11794  Biso   1.000  N
  N16      1.0000 0.70540  0.00017  0.38206  Biso   1.000  N
  O1       1.0000 0.51471  0.59914  0.78181  Biso   1.000  O
  O2       1.0000 0.48529  0.09914  0.71819  Biso   1.000  O
  O3       1.0000 0.48529  0.40086  0.21819  Biso   1.000  O
  O4       1.0000 0.51471  0.90086  0.28181  Biso   1.000  O
  O5       1.0000 0.51630  0.45522  0.72393  Biso   1.000  O
  O6       1.0000 0.48370  0.95522  0.77607  Biso   1.000  O
  O7       1.0000 0.48370  0.54478  0.27607  Biso   1.000  O
  O8       1.0000 0.51630  0.04478  0.22393  Biso   1.000  O
  O9       1.0000 0.47302  0.87176  0.58123  Biso   1.000  O
  O10      1.0000 0.52698  0.37176  0.91877  Biso   1.000  O
  O11      1.0000 0.52698  0.12824  0.41877  Biso   1.000  O
  O12      1.0000 0.47302  0.62824  0.08123  Biso   1.000  O
  O13      1.0000 0.55717  0.86552  0.46387  Biso   1.000  O
  O14      1.0000 0.44283  0.36552  0.03613  Biso   1.000  O
  O15      1.0000 0.44283  0.13448  0.53613  Biso   1.000  O
  O16      1.0000 0.55717  0.63448  0.96387  Biso   1.000  O
  O17      1.0000 0.82580  0.62763  0.40722  Biso   1.000  O
  O18      1.0000 0.17420  0.12763  0.09278  Biso   1.000  O
  O19      1.0000 0.17420  0.37237  0.59278  Biso   1.000  O
  O20      1.0000 0.82580  0.87237  0.90722  Biso   1.000  O
  O21      1.0000 0.03160  0.69970  0.35290  Biso   1.000  O
  O22      1.0000 0.96840  0.19970  0.14710  Biso   1.000  O
  O23      1.0000 0.96840  0.30030  0.64710  Biso   1.000  O
  O24      1.0000 0.03160  0.80030  0.85290  Biso   1.000  O
  O25      1.0000 0.74200  0.32030  0.54050  Biso   1.000  O
  O26      1.0000 0.25800  0.82030  0.95950  Biso   1.000  O
  O27      1.0000 0.25800  0.67970  0.45950  Biso   1.000  O
  O28      1.0000 0.74200  0.17970  0.04050  Biso   1.000  O
  O29      1.0000 0.60480  0.28030  0.67465  Biso   1.000  O
  O30      1.0000 0.39520  0.78030  0.82535  Biso   1.000  O
  O31      1.0000 0.39520  0.71970  0.32535  Biso   1.000  O
  O32      1.0000 0.60480  0.21970  0.17465  Biso   1.000  O
