data_image0
_cell_length_a       16.528
_cell_length_b       8.6531
_cell_length_c       18.604
_cell_angle_alpha    90
_cell_angle_beta     104.03
_cell_angle_gamma    90

_symmetry_space_group_name_H-M    "P 1"
_symmetry_int_tables_number       1

loop_
  _symmetry_equiv_pos_as_xyz
  'x, y, z'

loop_
  _atom_site_label
  _atom_site_occupancy
  _atom_site_fract_x
  _atom_site_fract_y
  _atom_site_fract_z
  _atom_site_thermal_displace_type
  _atom_site_B_iso_or_equiv
  _atom_site_type_symbol
  Cu1      1.0000 0.00000  0.50000  0.00000  Biso   1.000  Cu
  Cu2      1.0000 0.50000  0.00000  0.50000  Biso   1.000  Cu
  Cu3      1.0000 0.43333  0.75412  0.18662  Biso   1.000  Cu
  Cu4      1.0000 0.06667  0.25412  0.31338  Biso   1.000  Cu
  Cu5      1.0000 0.56667  0.24588  0.81338  Biso   1.000  Cu
  Cu6      1.0000 0.93333  0.74588  0.68662  Biso   1.000  Cu
  O1       1.0000 0.47220  0.64180  0.30140  Biso   1.000  O
  O2       1.0000 0.02780  0.14180  0.19860  Biso   1.000  O
  O3       1.0000 0.52780  0.35820  0.69860  Biso   1.000  O
  O4       1.0000 0.97220  0.85820  0.80140  Biso   1.000  O
  N1       1.0000 0.53320  0.71920  0.15260  Biso   1.000  N
  N2       1.0000 0.96680  0.21920  0.34740  Biso   1.000  N
  N3       1.0000 0.46680  0.28080  0.84740  Biso   1.000  N
  N4       1.0000 0.03320  0.78080  0.65260  Biso   1.000  N
  C1       1.0000 0.54360  0.58390  0.12130  Biso   1.000  C
  C2       1.0000 0.95640  0.08390  0.37870  Biso   1.000  C
  C3       1.0000 0.45640  0.41610  0.87870  Biso   1.000  C
  C4       1.0000 0.04360  0.91610  0.62130  Biso   1.000  C
  C5       1.0000 0.67860  0.66540  0.11050  Biso   1.000  C
  C6       1.0000 0.82140  0.16540  0.38950  Biso   1.000  C
  C7       1.0000 0.32140  0.33460  0.88950  Biso   1.000  C
  C8       1.0000 0.17860  0.83460  0.61050  Biso   1.000  C
  C9       1.0000 0.61670  0.55220  0.10000  Biso   1.000  C
  C10      1.0000 0.88330  0.05220  0.40000  Biso   1.000  C
  C11      1.0000 0.38330  0.44780  0.90000  Biso   1.000  C
  C12      1.0000 0.11670  0.94780  0.60000  Biso   1.000  C
  H1       1.0000 0.62440  0.45720  0.07920  Biso   1.000  H
  H2       1.0000 0.87560  0.95720  0.42080  Biso   1.000  H
  H3       1.0000 0.37560  0.54280  0.92080  Biso   1.000  H
  H4       1.0000 0.12440  0.04280  0.57920  Biso   1.000  H
  C13      1.0000 0.66630  0.80660  0.14260  Biso   1.000  C
  C14      1.0000 0.83370  0.30660  0.35740  Biso   1.000  C
  C15      1.0000 0.33370  0.19340  0.85740  Biso   1.000  C
  C16      1.0000 0.16630  0.69340  0.64260  Biso   1.000  C
  H5       1.0000 0.70690  0.88330  0.14970  Biso   1.000  H
  H6       1.0000 0.79310  0.38330  0.35030  Biso   1.000  H
  H7       1.0000 0.29310  0.11670  0.85030  Biso   1.000  H
  H8       1.0000 0.20690  0.61670  0.64970  Biso   1.000  H
  C17      1.0000 0.59180  0.82990  0.16360  Biso   1.000  C
  C18      1.0000 0.90820  0.32990  0.33640  Biso   1.000  C
  C19      1.0000 0.40820  0.17010  0.83640  Biso   1.000  C
  C20      1.0000 0.09180  0.67010  0.66360  Biso   1.000  C
  O5       1.0000 0.03860  0.71070  0.01200  Biso   1.000  O
  O6       1.0000 0.46140  0.21070  0.48800  Biso   1.000  O
  O7       1.0000 0.96140  0.28930  0.98800  Biso   1.000  O
  O8       1.0000 0.53860  0.78930  0.51200  Biso   1.000  O
  O9       1.0000 0.12870  0.63040  0.11290  Biso   1.000  O
  O10      1.0000 0.37130  0.13040  0.38710  Biso   1.000  O
  O11      1.0000 0.87130  0.36960  0.88710  Biso   1.000  O
  O12      1.0000 0.62870  0.86960  0.61290  Biso   1.000  O
  O13      1.0000 0.32650  0.80580  0.20450  Biso   1.000  O
  O14      1.0000 0.17350  0.30580  0.29550  Biso   1.000  O
  O15      1.0000 0.67350  0.19420  0.79550  Biso   1.000  O
  O16      1.0000 0.82650  0.69420  0.70450  Biso   1.000  O
  O17      1.0000 0.29840  0.88480  0.08840  Biso   1.000  O
  O18      1.0000 0.20160  0.38480  0.41160  Biso   1.000  O
  O19      1.0000 0.70160  0.11520  0.91160  Biso   1.000  O
  O20      1.0000 0.79840  0.61520  0.58840  Biso   1.000  O
  C21      1.0000 0.09690  0.73210  0.07030  Biso   1.000  C
  C22      1.0000 0.40310  0.23210  0.42970  Biso   1.000  C
  C23      1.0000 0.90310  0.26790  0.92970  Biso   1.000  C
  C24      1.0000 0.59690  0.76790  0.57030  Biso   1.000  C
  C25      1.0000 0.12490  0.89920  0.08490  Biso   1.000  C
  C26      1.0000 0.37510  0.39920  0.41510  Biso   1.000  C
  C27      1.0000 0.87510  0.10080  0.91510  Biso   1.000  C
  C28      1.0000 0.62490  0.60080  0.58490  Biso   1.000  C
  H9       1.0000 0.14390  0.93700  0.04270  Biso   1.000  H
  H10      1.0000 0.35610  0.43700  0.45730  Biso   1.000  H
  H11      1.0000 0.85610  0.06300  0.95730  Biso   1.000  H
  H12      1.0000 0.64390  0.56300  0.54270  Biso   1.000  H
  H13      1.0000 0.07710  0.96100  0.08880  Biso   1.000  H
  H14      1.0000 0.42290  0.46100  0.41120  Biso   1.000  H
  H15      1.0000 0.92290  0.03900  0.91120  Biso   1.000  H
  H16      1.0000 0.57710  0.53900  0.58880  Biso   1.000  H
  C29      1.0000 0.19330  0.92240  0.15380  Biso   1.000  C
  C30      1.0000 0.30670  0.42240  0.34620  Biso   1.000  C
  C31      1.0000 0.80670  0.07760  0.84620  Biso   1.000  C
  C32      1.0000 0.69330  0.57760  0.65380  Biso   1.000  C
  H17      1.0000 0.19770  0.03170  0.16570  Biso   1.000  H
  H18      1.0000 0.30230  0.53170  0.33430  Biso   1.000  H
  H19      1.0000 0.80230  0.96830  0.83430  Biso   1.000  H
  H20      1.0000 0.69770  0.46830  0.66570  Biso   1.000  H
  H21      1.0000 0.17850  0.86920  0.19470  Biso   1.000  H
  H22      1.0000 0.32150  0.36920  0.30530  Biso   1.000  H
  H23      1.0000 0.82150  0.13080  0.80530  Biso   1.000  H
  H24      1.0000 0.67850  0.63080  0.69470  Biso   1.000  H
  C33      1.0000 0.27770  0.86440  0.14670  Biso   1.000  C
  C34      1.0000 0.22230  0.36440  0.35330  Biso   1.000  C
  C35      1.0000 0.72230  0.13560  0.85330  Biso   1.000  C
  C36      1.0000 0.77770  0.63560  0.64670  Biso   1.000  C
  N5       1.0000 0.90230  0.56160  0.04190  Biso   1.000  N
  N6       1.0000 0.59770  0.06160  0.45810  Biso   1.000  N
  N7       1.0000 0.09770  0.43840  0.95810  Biso   1.000  N
  N8       1.0000 0.40230  0.93840  0.54190  Biso   1.000  N
  C37      1.0000 0.86270  0.45560  0.07340  Biso   1.000  C
  C38      1.0000 0.63730  0.95560  0.42660  Biso   1.000  C
  C39      1.0000 0.13730  0.54440  0.92660  Biso   1.000  C
  C40      1.0000 0.36270  0.04440  0.57340  Biso   1.000  C
  H25      1.0000 0.88430  0.35590  0.07940  Biso   1.000  H
  H26      1.0000 0.61570  0.85590  0.42060  Biso   1.000  H
  H27      1.0000 0.11570  0.64410  0.92060  Biso   1.000  H
  H28      1.0000 0.38430  0.14410  0.57940  Biso   1.000  H
  C41      1.0000 0.79200  0.48630  0.09720  Biso   1.000  C
  C42      1.0000 0.70800  0.98630  0.40280  Biso   1.000  C
  C43      1.0000 0.20800  0.51370  0.90280  Biso   1.000  C
  C44      1.0000 0.29200  0.01370  0.59720  Biso   1.000  C
  H29      1.0000 0.76720  0.40900  0.11930  Biso   1.000  H
  H30      1.0000 0.73280  0.90900  0.38070  Biso   1.000  H
  H31      1.0000 0.23280  0.59100  0.88070  Biso   1.000  H
  H32      1.0000 0.26720  0.09100  0.61930  Biso   1.000  H
  C45      1.0000 0.75820  0.63230  0.08820  Biso   1.000  C
  C46      1.0000 0.74180  0.13230  0.41180  Biso   1.000  C
  C47      1.0000 0.24180  0.36770  0.91180  Biso   1.000  C
  C48      1.0000 0.25820  0.86770  0.58820  Biso   1.000  C
  C49      1.0000 0.79960  0.74460  0.05740  Biso   1.000  C
  C50      1.0000 0.70040  0.24460  0.44260  Biso   1.000  C
  C51      1.0000 0.20040  0.25540  0.94260  Biso   1.000  C
  C52      1.0000 0.29960  0.75540  0.55740  Biso   1.000  C
  H33      1.0000 0.77950  0.84540  0.05160  Biso   1.000  H
  H34      1.0000 0.72050  0.34540  0.44840  Biso   1.000  H
  H35      1.0000 0.22050  0.15460  0.94840  Biso   1.000  H
  H36      1.0000 0.27950  0.65460  0.55160  Biso   1.000  H
  C53      1.0000 0.87090  0.70480  0.03550  Biso   1.000  C
  C54      1.0000 0.62910  0.20480  0.46450  Biso   1.000  C
  C55      1.0000 0.12910  0.29520  0.96450  Biso   1.000  C
  C56      1.0000 0.37090  0.79520  0.53550  Biso   1.000  C
  H37      1.0000 0.89840  0.78110  0.01530  Biso   1.000  H
  H38      1.0000 0.60160  0.28110  0.48470  Biso   1.000  H
  H39      1.0000 0.10160  0.21890  0.98470  Biso   1.000  H
  H40      1.0000 0.39840  0.71890  0.51530  Biso   1.000  H
  N9       1.0000 0.40740  0.54310  0.13820  Biso   1.000  N
  N10      1.0000 0.09260  0.04310  0.36180  Biso   1.000  N
  N11      1.0000 0.59260  0.45690  0.86180  Biso   1.000  N
  N12      1.0000 0.90740  0.95690  0.63820  Biso   1.000  N
  C57      1.0000 0.46990  0.48020  0.11260  Biso   1.000  C
  C58      1.0000 0.03010  0.98020  0.38740  Biso   1.000  C
  C59      1.0000 0.53010  0.51980  0.88740  Biso   1.000  C
  C60      1.0000 0.96990  0.01980  0.61260  Biso   1.000  C
  C61      1.0000 0.33900  0.45760  0.13490  Biso   1.000  C
  C62      1.0000 0.16100  0.95760  0.36510  Biso   1.000  C
  C63      1.0000 0.66100  0.54240  0.86510  Biso   1.000  C
  C64      1.0000 0.83900  0.04240  0.63490  Biso   1.000  C
  H41      1.0000 0.29540  0.50050  0.15170  Biso   1.000  H
  H42      1.0000 0.20460  0.00050  0.34830  Biso   1.000  H
  H43      1.0000 0.70460  0.49950  0.84830  Biso   1.000  H
  H44      1.0000 0.79540  0.99950  0.65170  Biso   1.000  H
  C65      1.0000 0.33050  0.30990  0.10780  Biso   1.000  C
  C66      1.0000 0.16950  0.80990  0.39220  Biso   1.000  C
  C67      1.0000 0.66950  0.69010  0.89220  Biso   1.000  C
  C68      1.0000 0.83050  0.19010  0.60780  Biso   1.000  C
  H45      1.0000 0.28250  0.25320  0.10680  Biso   1.000  H
  H46      1.0000 0.21750  0.75320  0.39320  Biso   1.000  H
  H47      1.0000 0.71750  0.74680  0.89320  Biso   1.000  H
  H48      1.0000 0.78250  0.24680  0.60680  Biso   1.000  H
  C69      1.0000 0.39430  0.24740  0.08210  Biso   1.000  C
  C70      1.0000 0.10570  0.74740  0.41790  Biso   1.000  C
  C71      1.0000 0.60570  0.75260  0.91790  Biso   1.000  C
  C72      1.0000 0.89430  0.25260  0.58210  Biso   1.000  C
  H49      1.0000 0.38990  0.14720  0.06360  Biso   1.000  H
  H50      1.0000 0.11010  0.64720  0.43640  Biso   1.000  H
  H51      1.0000 0.61010  0.85280  0.93640  Biso   1.000  H
  H52      1.0000 0.88990  0.35280  0.56360  Biso   1.000  H
  C73      1.0000 0.46600  0.33430  0.08380  Biso   1.000  C
  C74      1.0000 0.03400  0.83430  0.41620  Biso   1.000  C
  C75      1.0000 0.53400  0.66570  0.91620  Biso   1.000  C
  C76      1.0000 0.96600  0.16570  0.58380  Biso   1.000  C
  H53      1.0000 0.50960  0.29420  0.06610  Biso   1.000  H
  H54      1.0000 0.99040  0.79420  0.43390  Biso   1.000  H
  H55      1.0000 0.49040  0.70580  0.93390  Biso   1.000  H
  H56      1.0000 0.00960  0.20580  0.56610  Biso   1.000  H
  N13      1.0000 0.49290  0.95910  0.21630  Biso   1.000  N
  N14      1.0000 0.00710  0.45910  0.28370  Biso   1.000  N
  N15      1.0000 0.50710  0.04090  0.78370  Biso   1.000  N
  N16      1.0000 0.99290  0.54090  0.71630  Biso   1.000  N
  C77      1.0000 0.56850  0.96900  0.20060  Biso   1.000  C
  C78      1.0000 0.93150  0.46900  0.29940  Biso   1.000  C
  C79      1.0000 0.43150  0.03100  0.79940  Biso   1.000  C
  C80      1.0000 0.06850  0.53100  0.70060  Biso   1.000  C
  C81      1.0000 0.46700  0.07780  0.25090  Biso   1.000  C
  C82      1.0000 0.03300  0.57780  0.24910  Biso   1.000  C
  C83      1.0000 0.53300  0.92220  0.74910  Biso   1.000  C
  C84      1.0000 0.96700  0.42220  0.75090  Biso   1.000  C
  H57      1.0000 0.41530  0.07130  0.26210  Biso   1.000  H
  H58      1.0000 0.08470  0.57130  0.23790  Biso   1.000  H
  H59      1.0000 0.58470  0.92870  0.73790  Biso   1.000  H
  H60      1.0000 0.91530  0.42870  0.76210  Biso   1.000  H
  C85      1.0000 0.51430  0.21020  0.27050  Biso   1.000  C
  C86      1.0000 0.98570  0.71020  0.22950  Biso   1.000  C
  C87      1.0000 0.48570  0.78980  0.72950  Biso   1.000  C
  C88      1.0000 0.01430  0.28980  0.77050  Biso   1.000  C
  H61      1.0000 0.49490  0.29090  0.29480  Biso   1.000  H
  H62      1.0000 0.00510  0.79090  0.20520  Biso   1.000  H
  H63      1.0000 0.50510  0.70910  0.70520  Biso   1.000  H
  H64      1.0000 0.99490  0.20910  0.79480  Biso   1.000  H
  C89      1.0000 0.58970  0.22010  0.25370  Biso   1.000  C
  C90      1.0000 0.91030  0.72010  0.24630  Biso   1.000  C
  C91      1.0000 0.41030  0.77990  0.74630  Biso   1.000  C
  C92      1.0000 0.08970  0.27990  0.75370  Biso   1.000  C
  H65      1.0000 0.62220  0.30840  0.26600  Biso   1.000  H
  H66      1.0000 0.87780  0.80840  0.23400  Biso   1.000  H
  H67      1.0000 0.37780  0.69160  0.73400  Biso   1.000  H
  H68      1.0000 0.12220  0.19160  0.76600  Biso   1.000  H
  C93      1.0000 0.61800  0.09790  0.21820  Biso   1.000  C
  C94      1.0000 0.88200  0.59790  0.28180  Biso   1.000  C
  C95      1.0000 0.38200  0.90210  0.78180  Biso   1.000  C
  C96      1.0000 0.11800  0.40210  0.71820  Biso   1.000  C
  H69      1.0000 0.66960  0.10310  0.20650  Biso   1.000  H
  H70      1.0000 0.83040  0.60310  0.29350  Biso   1.000  H
  H71      1.0000 0.33040  0.89690  0.79350  Biso   1.000  H
  H72      1.0000 0.16960  0.39690  0.70650  Biso   1.000  H
  O21      1.0000 0.64570  0.17950  0.03670  Biso   1.000  O
  O22      1.0000 0.85430  0.67950  0.46330  Biso   1.000  O
  O23      1.0000 0.35430  0.82050  0.96330  Biso   1.000  O
  O24      1.0000 0.14570  0.32050  0.53670  Biso   1.000  O
  O25      1.0000 0.14070  0.31940  0.14260  Biso   1.000  O
  O26      1.0000 0.35930  0.81940  0.35740  Biso   1.000  O
  O27      1.0000 0.85930  0.68060  0.85740  Biso   1.000  O
  O28      1.0000 0.64070  0.18060  0.64260  Biso   1.000  O
  Br1      1.0000 0.67262  0.60647  0.33003  Biso   1.000  Br
  Br2      1.0000 0.82738  0.10647  0.16997  Biso   1.000  Br
  Br3      1.0000 0.32738  0.39353  0.66997  Biso   1.000  Br
  Br4      1.0000 0.17262  0.89353  0.83003  Biso   1.000  Br
  O29      1.0000 0.50000  0.00000  0.00000  Biso   1.000  O
  O30      1.0000 0.00000  0.50000  0.50000  Biso   1.000  O
