data_image0
_cell_length_a       8.6674
_cell_length_b       10.805
_cell_length_c       21.815
_cell_angle_alpha    90
_cell_angle_beta     99.205
_cell_angle_gamma    90

_symmetry_space_group_name_H-M    "P 1"
_symmetry_int_tables_number       1

loop_
  _symmetry_equiv_pos_as_xyz
  'x, y, z'

loop_
  _atom_site_label
  _atom_site_occupancy
  _atom_site_fract_x
  _atom_site_fract_y
  _atom_site_fract_z
  _atom_site_thermal_displace_type
  _atom_site_B_iso_or_equiv
  _atom_site_type_symbol
  Cu1      1.0000 0.31905  0.27032  0.12104  Biso   1.000  Cu
  Cu2      1.0000 0.68095  0.77032  0.37896  Biso   1.000  Cu
  Cu3      1.0000 0.68095  0.72968  0.87897  Biso   1.000  Cu
  Cu4      1.0000 0.31905  0.22968  0.62104  Biso   1.000  Cu
  Br1      1.0000 0.21353  0.53024  0.60976  Biso   1.000  Br
  Br2      1.0000 0.78647  0.03024  0.89024  Biso   1.000  Br
  Br3      1.0000 0.78647  0.46976  0.39024  Biso   1.000  Br
  Br4      1.0000 0.21353  0.96976  0.10976  Biso   1.000  Br
  Br5      1.0000 0.43598  0.50331  0.11452  Biso   1.000  Br
  Br6      1.0000 0.56402  0.00331  0.38548  Biso   1.000  Br
  Br7      1.0000 0.56402  0.49669  0.88548  Biso   1.000  Br
  Br8      1.0000 0.43598  0.99669  0.61452  Biso   1.000  Br
  N1       1.0000 0.53210  0.31040  0.61967  Biso   1.000  N
  N2       1.0000 0.46790  0.81040  0.88033  Biso   1.000  N
  N3       1.0000 0.46790  0.68960  0.38033  Biso   1.000  N
  N4       1.0000 0.53210  0.18960  0.11967  Biso   1.000  N
  N5       1.0000 0.31600  0.26890  0.21160  Biso   1.000  N
  N6       1.0000 0.68400  0.76890  0.28840  Biso   1.000  N
  N7       1.0000 0.68400  0.73110  0.78840  Biso   1.000  N
  N8       1.0000 0.31600  0.23110  0.71160  Biso   1.000  N
  N9       1.0000 0.30640  0.25800  0.53288  Biso   1.000  N
  N10      1.0000 0.69360  0.75800  0.96712  Biso   1.000  N
  N11      1.0000 0.69360  0.74200  0.46712  Biso   1.000  N
  N12      1.0000 0.30640  0.24200  0.03288  Biso   1.000  N
  N13      1.0000 0.09350  0.17520  0.59036  Biso   1.000  N
  N14      1.0000 0.90650  0.67520  0.90964  Biso   1.000  N
  N15      1.0000 0.90650  0.82480  0.40964  Biso   1.000  N
  N16      1.0000 0.09350  0.32480  0.09036  Biso   1.000  N
  C1       1.0000 0.17510  0.22610  0.49422  Biso   1.000  C
  C2       1.0000 0.82490  0.72610  0.00578  Biso   1.000  C
  C3       1.0000 0.82490  0.77390  0.50578  Biso   1.000  C
  C4       1.0000 0.17510  0.27390  0.99422  Biso   1.000  C
  C5       1.0000 0.16970  0.23210  0.43099  Biso   1.000  C
  C6       1.0000 0.83030  0.73210  0.06901  Biso   1.000  C
  C7       1.0000 0.83030  0.76790  0.56901  Biso   1.000  C
  C8       1.0000 0.16970  0.26790  0.93099  Biso   1.000  C
  H1       1.0000 0.07830  0.21200  0.40440  Biso   1.000  H
  H2       1.0000 0.92170  0.71200  0.09560  Biso   1.000  H
  H3       1.0000 0.92170  0.78800  0.59560  Biso   1.000  H
  H4       1.0000 0.07830  0.28800  0.90440  Biso   1.000  H
  C9       1.0000 0.30300  0.26860  0.40704  Biso   1.000  C
  C10      1.0000 0.69700  0.76860  0.09296  Biso   1.000  C
  C11      1.0000 0.69700  0.73140  0.59296  Biso   1.000  C
  C12      1.0000 0.30300  0.23140  0.90704  Biso   1.000  C
  C13      1.0000 0.43700  0.30220  0.44879  Biso   1.000  C
  C14      1.0000 0.56300  0.80220  0.05121  Biso   1.000  C
  C15      1.0000 0.56300  0.69780  0.55121  Biso   1.000  C
  C16      1.0000 0.43700  0.19780  0.94879  Biso   1.000  C
  H5       1.0000 0.52730  0.32680  0.43410  Biso   1.000  H
  H6       1.0000 0.47270  0.82680  0.06590  Biso   1.000  H
  H7       1.0000 0.47270  0.67320  0.56590  Biso   1.000  H
  H8       1.0000 0.52730  0.17320  0.93410  Biso   1.000  H
  C17      1.0000 0.43330  0.29860  0.51196  Biso   1.000  C
  C18      1.0000 0.56670  0.79860  0.98804  Biso   1.000  C
  C19      1.0000 0.56670  0.70140  0.48804  Biso   1.000  C
  C20      1.0000 0.43330  0.20140  0.01196  Biso   1.000  C
  C21      1.0000 0.05090  0.18060  0.52798  Biso   1.000  C
  C22      1.0000 0.94910  0.68060  0.97202  Biso   1.000  C
  C23      1.0000 0.94910  0.81940  0.47202  Biso   1.000  C
  C24      1.0000 0.05090  0.31940  0.02798  Biso   1.000  C
  C25      1.0000 0.90520  0.14180  0.49884  Biso   1.000  C
  C26      1.0000 0.09480  0.64180  0.00116  Biso   1.000  C
  C27      1.0000 0.09480  0.85820  0.50116  Biso   1.000  C
  C28      1.0000 0.90520  0.35820  0.99884  Biso   1.000  C
  H9       1.0000 0.87820  0.14690  0.45590  Biso   1.000  H
  H10      1.0000 0.12180  0.64690  0.04410  Biso   1.000  H
  H11      1.0000 0.12180  0.85310  0.54410  Biso   1.000  H
  H12      1.0000 0.87820  0.35310  0.95590  Biso   1.000  H
  C29      1.0000 0.80020  0.09520  0.53475  Biso   1.000  C
  C30      1.0000 0.19980  0.59520  0.96525  Biso   1.000  C
  C31      1.0000 0.19980  0.90480  0.46525  Biso   1.000  C
  C32      1.0000 0.80020  0.40480  0.03475  Biso   1.000  C
  H13      1.0000 0.70160  0.06870  0.51630  Biso   1.000  H
  H14      1.0000 0.29840  0.56870  0.98370  Biso   1.000  H
  H15      1.0000 0.29840  0.93130  0.48370  Biso   1.000  H
  H16      1.0000 0.70160  0.43130  0.01630  Biso   1.000  H
  C33      1.0000 0.84430  0.08900  0.59794  Biso   1.000  C
  C34      1.0000 0.15570  0.58900  0.90206  Biso   1.000  C
  C35      1.0000 0.15570  0.91100  0.40206  Biso   1.000  C
  C36      1.0000 0.84430  0.41100  0.09794  Biso   1.000  C
  H17      1.0000 0.77560  0.05810  0.62290  Biso   1.000  H
  H18      1.0000 0.22440  0.55810  0.87710  Biso   1.000  H
  H19      1.0000 0.22440  0.94190  0.37710  Biso   1.000  H
  H20      1.0000 0.77560  0.44190  0.12290  Biso   1.000  H
  C37      1.0000 0.99050  0.12870  0.62411  Biso   1.000  C
  C38      1.0000 0.00950  0.62870  0.87589  Biso   1.000  C
  C39      1.0000 0.00950  0.87130  0.37589  Biso   1.000  C
  C40      1.0000 0.99050  0.37130  0.12411  Biso   1.000  C
  H21      1.0000 0.01940  0.12300  0.66700  Biso   1.000  H
  H22      1.0000 0.98060  0.62300  0.83300  Biso   1.000  H
  H23      1.0000 0.98060  0.87700  0.33300  Biso   1.000  H
  H24      1.0000 0.01940  0.37700  0.16700  Biso   1.000  H
  C41      1.0000 0.56150  0.33540  0.56219  Biso   1.000  C
  C42      1.0000 0.43850  0.83540  0.93781  Biso   1.000  C
  C43      1.0000 0.43850  0.66460  0.43781  Biso   1.000  C
  C44      1.0000 0.56150  0.16460  0.06219  Biso   1.000  C
  C45      1.0000 0.69850  0.39080  0.55146  Biso   1.000  C
  C46      1.0000 0.30150  0.89080  0.94854  Biso   1.000  C
  C47      1.0000 0.30150  0.60920  0.44854  Biso   1.000  C
  C48      1.0000 0.69850  0.10920  0.05146  Biso   1.000  C
  H25      1.0000 0.71550  0.40740  0.51130  Biso   1.000  H
  H26      1.0000 0.28450  0.90740  0.98870  Biso   1.000  H
  H27      1.0000 0.28450  0.59260  0.48870  Biso   1.000  H
  H28      1.0000 0.71550  0.09260  0.01130  Biso   1.000  H
  C49      1.0000 0.81030  0.42090  0.60250  Biso   1.000  C
  C50      1.0000 0.18970  0.92090  0.89750  Biso   1.000  C
  C51      1.0000 0.18970  0.57910  0.39750  Biso   1.000  C
  C52      1.0000 0.81030  0.07910  0.10250  Biso   1.000  C
  H29      1.0000 0.90360  0.45840  0.59690  Biso   1.000  H
  H30      1.0000 0.09640  0.95840  0.90310  Biso   1.000  H
  H31      1.0000 0.09640  0.54160  0.40310  Biso   1.000  H
  H32      1.0000 0.90360  0.04160  0.09690  Biso   1.000  H
  C53      1.0000 0.78130  0.39450  0.66130  Biso   1.000  C
  C54      1.0000 0.21870  0.89450  0.83870  Biso   1.000  C
  C55      1.0000 0.21870  0.60550  0.33870  Biso   1.000  C
  C56      1.0000 0.78130  0.10550  0.16130  Biso   1.000  C
  H33      1.0000 0.85470  0.41350  0.69590  Biso   1.000  H
  H34      1.0000 0.14530  0.91350  0.80410  Biso   1.000  H
  H35      1.0000 0.14530  0.58650  0.30410  Biso   1.000  H
  H36      1.0000 0.85470  0.08650  0.19590  Biso   1.000  H
  C57      1.0000 0.64200  0.33960  0.66789  Biso   1.000  C
  C58      1.0000 0.35800  0.83960  0.83211  Biso   1.000  C
  C59      1.0000 0.35800  0.66040  0.33211  Biso   1.000  C
  C60      1.0000 0.64200  0.16040  0.16789  Biso   1.000  C
  H37      1.0000 0.62300  0.32190  0.70770  Biso   1.000  H
  H38      1.0000 0.37700  0.82190  0.79230  Biso   1.000  H
  H39      1.0000 0.37700  0.67810  0.29230  Biso   1.000  H
  H40      1.0000 0.62300  0.17810  0.20770  Biso   1.000  H
  C61      1.0000 0.21640  0.19670  0.23646  Biso   1.000  C
  C62      1.0000 0.78360  0.69670  0.26354  Biso   1.000  C
  C63      1.0000 0.78360  0.80330  0.76354  Biso   1.000  C
  C64      1.0000 0.21640  0.30330  0.73646  Biso   1.000  C
  H41      1.0000 0.15070  0.14490  0.21010  Biso   1.000  H
  H42      1.0000 0.84930  0.64490  0.28990  Biso   1.000  H
  H43      1.0000 0.84930  0.85510  0.78990  Biso   1.000  H
  H44      1.0000 0.15070  0.35510  0.71010  Biso   1.000  H
  C65      1.0000 0.20600  0.19490  0.29820  Biso   1.000  C
  C66      1.0000 0.79400  0.69490  0.20180  Biso   1.000  C
  C67      1.0000 0.79400  0.80510  0.70180  Biso   1.000  C
  C68      1.0000 0.20600  0.30510  0.79820  Biso   1.000  C
  H45      1.0000 0.13270  0.14460  0.31280  Biso   1.000  H
  H46      1.0000 0.86730  0.64460  0.18720  Biso   1.000  H
  H47      1.0000 0.86730  0.85540  0.68720  Biso   1.000  H
  H48      1.0000 0.13270  0.35540  0.81280  Biso   1.000  H
  C69      1.0000 0.30650  0.26930  0.33952  Biso   1.000  C
  C70      1.0000 0.69350  0.76930  0.16048  Biso   1.000  C
  C71      1.0000 0.69350  0.73070  0.66048  Biso   1.000  C
  C72      1.0000 0.30650  0.23070  0.83952  Biso   1.000  C
  C73      1.0000 0.40970  0.34290  0.31392  Biso   1.000  C
  C74      1.0000 0.59030  0.84290  0.18608  Biso   1.000  C
  C75      1.0000 0.59030  0.65710  0.68608  Biso   1.000  C
  C76      1.0000 0.40970  0.15710  0.81392  Biso   1.000  C
  H49      1.0000 0.47900  0.39370  0.33940  Biso   1.000  H
  H50      1.0000 0.52100  0.89370  0.16060  Biso   1.000  H
  H51      1.0000 0.52100  0.60630  0.66060  Biso   1.000  H
  H52      1.0000 0.47900  0.10630  0.83940  Biso   1.000  H
  C77      1.0000 0.41050  0.34170  0.25119  Biso   1.000  C
  C78      1.0000 0.58950  0.84170  0.24881  Biso   1.000  C
  C79      1.0000 0.58950  0.65830  0.74881  Biso   1.000  C
  C80      1.0000 0.41050  0.15830  0.75119  Biso   1.000  C
  H53      1.0000 0.47970  0.39370  0.23520  Biso   1.000  H
  H54      1.0000 0.52030  0.89370  0.26480  Biso   1.000  H
  H55      1.0000 0.52030  0.60630  0.76480  Biso   1.000  H
  H56      1.0000 0.47970  0.10630  0.73520  Biso   1.000  H
  O1       1.0000 0.18050  0.67810  0.17515  Biso   1.000  O
  O2       1.0000 0.81950  0.17810  0.32485  Biso   1.000  O
  O3       1.0000 0.81950  0.32190  0.82485  Biso   1.000  O
  O4       1.0000 0.18050  0.82190  0.67515  Biso   1.000  O
  O5       1.0000 0.10950  0.89950  0.24330  Biso   1.000  O
  O6       1.0000 0.89050  0.39950  0.25670  Biso   1.000  O
  O7       1.0000 0.89050  0.10050  0.75670  Biso   1.000  O
  O8       1.0000 0.10950  0.60050  0.74330  Biso   1.000  O
