data_image0
_cell_length_a       14.088
_cell_length_b       11.023
_cell_length_c       8.689
_cell_angle_alpha    90
_cell_angle_beta     92.23
_cell_angle_gamma    90

_symmetry_space_group_name_H-M    "P 1"
_symmetry_int_tables_number       1

loop_
  _symmetry_equiv_pos_as_xyz
  'x, y, z'

loop_
  _atom_site_label
  _atom_site_occupancy
  _atom_site_fract_x
  _atom_site_fract_y
  _atom_site_fract_z
  _atom_site_thermal_displace_type
  _atom_site_B_iso_or_equiv
  _atom_site_type_symbol
  Cu1      1.0000 0.00000  0.15020  0.25000  Biso   1.000  Cu
  Cu2      1.0000 0.50000  0.65020  0.25000  Biso   1.000  Cu
  Cu3      1.0000 0.00000  0.84980  0.75000  Biso   1.000  Cu
  Cu4      1.0000 0.50000  0.34980  0.75000  Biso   1.000  Cu
  O1       1.0000 0.92090  0.11970  0.02140  Biso   1.000  O
  O2       1.0000 0.07910  0.11970  0.47860  Biso   1.000  O
  O3       1.0000 0.42090  0.61970  0.02140  Biso   1.000  O
  O4       1.0000 0.57910  0.61970  0.47860  Biso   1.000  O
  O5       1.0000 0.07910  0.88030  0.97860  Biso   1.000  O
  O6       1.0000 0.92090  0.88030  0.52140  Biso   1.000  O
  O7       1.0000 0.57910  0.38030  0.97860  Biso   1.000  O
  O8       1.0000 0.42090  0.38030  0.52140  Biso   1.000  O
  O9       1.0000 0.07870  0.02140  0.15900  Biso   1.000  O
  O10      1.0000 0.92130  0.02140  0.34100  Biso   1.000  O
  O11      1.0000 0.57870  0.52140  0.15900  Biso   1.000  O
  O12      1.0000 0.42130  0.52140  0.34100  Biso   1.000  O
  O13      1.0000 0.92130  0.97860  0.84100  Biso   1.000  O
  O14      1.0000 0.07870  0.97860  0.65900  Biso   1.000  O
  O15      1.0000 0.42130  0.47860  0.84100  Biso   1.000  O
  O16      1.0000 0.57870  0.47860  0.65900  Biso   1.000  O
  N1       1.0000 0.08910  0.27640  0.16880  Biso   1.000  N
  N2       1.0000 0.91090  0.27640  0.33120  Biso   1.000  N
  N3       1.0000 0.58910  0.77640  0.16880  Biso   1.000  N
  N4       1.0000 0.41090  0.77640  0.33120  Biso   1.000  N
  N5       1.0000 0.91090  0.72360  0.83120  Biso   1.000  N
  N6       1.0000 0.08910  0.72360  0.66880  Biso   1.000  N
  N7       1.0000 0.41090  0.22360  0.83120  Biso   1.000  N
  N8       1.0000 0.58910  0.22360  0.66880  Biso   1.000  N
  C1       1.0000 0.95470  0.02870  0.96090  Biso   1.000  C
  C2       1.0000 0.04530  0.02870  0.53910  Biso   1.000  C
  C3       1.0000 0.45470  0.52870  0.96090  Biso   1.000  C
  C4       1.0000 0.54530  0.52870  0.53910  Biso   1.000  C
  C5       1.0000 0.04530  0.97130  0.03910  Biso   1.000  C
  C6       1.0000 0.95470  0.97130  0.46090  Biso   1.000  C
  C7       1.0000 0.54530  0.47130  0.03910  Biso   1.000  C
  C8       1.0000 0.45470  0.47130  0.46090  Biso   1.000  C
  C9       1.0000 0.17550  0.29180  0.23290  Biso   1.000  C
  C10      1.0000 0.82450  0.29180  0.26710  Biso   1.000  C
  C11      1.0000 0.67550  0.79180  0.23290  Biso   1.000  C
  C12      1.0000 0.32450  0.79180  0.26710  Biso   1.000  C
  C13      1.0000 0.82450  0.70820  0.76710  Biso   1.000  C
  C14      1.0000 0.17550  0.70820  0.73290  Biso   1.000  C
  C15      1.0000 0.32450  0.20820  0.76710  Biso   1.000  C
  C16      1.0000 0.67550  0.20820  0.73290  Biso   1.000  C
  C17      1.0000 0.24040  0.37280  0.17610  Biso   1.000  C
  C18      1.0000 0.75960  0.37280  0.32390  Biso   1.000  C
  C19      1.0000 0.74040  0.87280  0.17610  Biso   1.000  C
  C20      1.0000 0.25960  0.87280  0.32390  Biso   1.000  C
  C21      1.0000 0.75960  0.62720  0.82390  Biso   1.000  C
  C22      1.0000 0.24040  0.62720  0.67610  Biso   1.000  C
  C23      1.0000 0.25960  0.12720  0.82390  Biso   1.000  C
  C24      1.0000 0.74040  0.12720  0.67610  Biso   1.000  C
  C25      1.0000 0.21620  0.43700  0.04760  Biso   1.000  C
  C26      1.0000 0.78380  0.43700  0.45240  Biso   1.000  C
  C27      1.0000 0.71620  0.93700  0.04760  Biso   1.000  C
  C28      1.0000 0.28380  0.93700  0.45240  Biso   1.000  C
  C29      1.0000 0.78380  0.56300  0.95240  Biso   1.000  C
  C30      1.0000 0.21620  0.56300  0.54760  Biso   1.000  C
  C31      1.0000 0.28380  0.06300  0.95240  Biso   1.000  C
  C32      1.0000 0.71620  0.06300  0.54760  Biso   1.000  C
  C33      1.0000 0.12840  0.42090  0.97910  Biso   1.000  C
  C34      1.0000 0.87160  0.42090  0.52090  Biso   1.000  C
  C35      1.0000 0.62840  0.92090  0.97910  Biso   1.000  C
  C36      1.0000 0.37160  0.92090  0.52090  Biso   1.000  C
  C37      1.0000 0.87160  0.57910  0.02090  Biso   1.000  C
  C38      1.0000 0.12840  0.57910  0.47910  Biso   1.000  C
  C39      1.0000 0.37160  0.07910  0.02090  Biso   1.000  C
  C40      1.0000 0.62840  0.07910  0.47910  Biso   1.000  C
  C41      1.0000 0.06680  0.34010  0.04280  Biso   1.000  C
  C42      1.0000 0.93320  0.34010  0.45720  Biso   1.000  C
  C43      1.0000 0.56680  0.84010  0.04280  Biso   1.000  C
  C44      1.0000 0.43320  0.84010  0.45720  Biso   1.000  C
  C45      1.0000 0.93320  0.65990  0.95720  Biso   1.000  C
  C46      1.0000 0.06680  0.65990  0.54280  Biso   1.000  C
  C47      1.0000 0.43320  0.15990  0.95720  Biso   1.000  C
  C48      1.0000 0.56680  0.15990  0.54280  Biso   1.000  C
  H1       1.0000 0.19300  0.24390  0.32160  Biso   1.000  H
  H2       1.0000 0.80700  0.24390  0.17840  Biso   1.000  H
  H3       1.0000 0.69300  0.74390  0.32160  Biso   1.000  H
  H4       1.0000 0.30700  0.74390  0.17840  Biso   1.000  H
  H5       1.0000 0.80700  0.75610  0.67840  Biso   1.000  H
  H6       1.0000 0.19300  0.75610  0.82160  Biso   1.000  H
  H7       1.0000 0.30700  0.25610  0.67840  Biso   1.000  H
  H8       1.0000 0.69300  0.25610  0.82160  Biso   1.000  H
  H9       1.0000 0.30150  0.38420  0.22720  Biso   1.000  H
  H10      1.0000 0.69850  0.38420  0.27280  Biso   1.000  H
  H11      1.0000 0.80150  0.88420  0.22720  Biso   1.000  H
  H12      1.0000 0.19850  0.88420  0.27280  Biso   1.000  H
  H13      1.0000 0.69850  0.61580  0.77280  Biso   1.000  H
  H14      1.0000 0.30150  0.61580  0.72720  Biso   1.000  H
  H15      1.0000 0.19850  0.11580  0.77280  Biso   1.000  H
  H16      1.0000 0.80150  0.11580  0.72720  Biso   1.000  H
  H17      1.0000 0.26070  0.49320  0.00480  Biso   1.000  H
  H18      1.0000 0.73930  0.49320  0.49520  Biso   1.000  H
  H19      1.0000 0.76070  0.99320  0.00480  Biso   1.000  H
  H20      1.0000 0.23930  0.99320  0.49520  Biso   1.000  H
  H21      1.0000 0.73930  0.50680  0.99520  Biso   1.000  H
  H22      1.0000 0.26070  0.50680  0.50480  Biso   1.000  H
  H23      1.0000 0.23930  0.00680  0.99520  Biso   1.000  H
  H24      1.0000 0.76070  0.00680  0.50480  Biso   1.000  H
  H25      1.0000 0.11000  0.46390  0.88640  Biso   1.000  H
  H26      1.0000 0.89000  0.46390  0.61360  Biso   1.000  H
  H27      1.0000 0.61000  0.96390  0.88640  Biso   1.000  H
  H28      1.0000 0.39000  0.96390  0.61360  Biso   1.000  H
  H29      1.0000 0.89000  0.53610  0.11360  Biso   1.000  H
  H30      1.0000 0.11000  0.53610  0.38640  Biso   1.000  H
  H31      1.0000 0.39000  0.03610  0.11360  Biso   1.000  H
  H32      1.0000 0.61000  0.03610  0.38640  Biso   1.000  H
  H33      1.0000 0.00410  0.33050  0.99710  Biso   1.000  H
  H34      1.0000 0.99590  0.33050  0.50290  Biso   1.000  H
  H35      1.0000 0.50410  0.83050  0.99710  Biso   1.000  H
  H36      1.0000 0.49590  0.83050  0.50290  Biso   1.000  H
  H37      1.0000 0.99590  0.66950  0.00290  Biso   1.000  H
  H38      1.0000 0.00410  0.66950  0.49710  Biso   1.000  H
  H39      1.0000 0.49590  0.16950  0.00290  Biso   1.000  H
  H40      1.0000 0.50410  0.16950  0.49710  Biso   1.000  H
