data_image0
_cell_length_a       3.561
_cell_length_b       9.984
_cell_length_c       13.659
_cell_angle_alpha    100.19
_cell_angle_beta     94.58
_cell_angle_gamma    90.33

_symmetry_space_group_name_H-M    "P 1"
_symmetry_int_tables_number       1

loop_
  _symmetry_equiv_pos_as_xyz
  'x, y, z'

loop_
  _atom_site_label
  _atom_site_occupancy
  _atom_site_fract_x
  _atom_site_fract_y
  _atom_site_fract_z
  _atom_site_thermal_displace_type
  _atom_site_B_iso_or_equiv
  _atom_site_type_symbol
  Cu1      1.0000 0.09810  0.16040  0.28120  Biso   1.000  Cu
  Cu2      1.0000 0.90190  0.83960  0.71880  Biso   1.000  Cu
  Na1      1.0000 0.70960  0.23000  0.50840  Biso   1.000  Na
  Na2      1.0000 0.29040  0.77000  0.49160  Biso   1.000  Na
  N1       1.0000 0.14320  0.31330  0.39320  Biso   1.000  N
  N2       1.0000 0.85680  0.68670  0.60680  Biso   1.000  N
  N3       1.0000 0.22310  0.42950  0.38930  Biso   1.000  N
  N4       1.0000 0.77690  0.57050  0.61070  Biso   1.000  N
  N5       1.0000 0.29820  0.54070  0.39090  Biso   1.000  N
  N6       1.0000 0.70180  0.45930  0.60910  Biso   1.000  N
  N7       1.0000 0.48530  0.22190  0.20180  Biso   1.000  N
  N8       1.0000 0.51470  0.77810  0.79820  Biso   1.000  N
  N9       1.0000 0.47020  0.32910  0.17290  Biso   1.000  N
  N10      1.0000 0.52980  0.67090  0.82710  Biso   1.000  N
  N11      1.0000 0.46360  0.42750  0.13980  Biso   1.000  N
  N12      1.0000 0.53640  0.57250  0.86020  Biso   1.000  N
  O1       1.0000 0.82340  0.06270  0.37030  Biso   1.000  O
  O2       1.0000 0.17660  0.93730  0.62970  Biso   1.000  O
  O3       1.0000 0.73240  0.85330  0.40290  Biso   1.000  O
  O4       1.0000 0.26760  0.14670  0.59710  Biso   1.000  O
  C1       1.0000 0.82270  0.93300  0.34990  Biso   1.000  C
  C2       1.0000 0.17730  0.06700  0.65010  Biso   1.000  C
  N13      1.0000 0.06900  0.97160  0.19930  Biso   1.000  N
  N14      1.0000 0.93100  0.02840  0.80070  Biso   1.000  N
  C3       1.0000 0.94200  0.87700  0.24730  Biso   1.000  C
  C4       1.0000 0.05800  0.12300  0.75270  Biso   1.000  C
  C5       1.0000 0.90710  0.74060  0.20440  Biso   1.000  C
  C6       1.0000 0.09290  0.25940  0.79560  Biso   1.000  C
  C7       1.0000 0.99350  0.70200  0.10650  Biso   1.000  C
  C8       1.0000 0.00650  0.29800  0.89350  Biso   1.000  C
  C9       1.0000 0.11770  0.79940  0.05670  Biso   1.000  C
  C10      1.0000 0.88230  0.20060  0.94330  Biso   1.000  C
  C11      1.0000 0.16170  0.93300  0.10490  Biso   1.000  C
  C12      1.0000 0.83830  0.06700  0.89510  Biso   1.000  C
  H1       1.0000 0.81410  0.66610  0.24620  Biso   1.000  H
  H2       1.0000 0.18590  0.33390  0.75380  Biso   1.000  H
  H3       1.0000 0.96590  0.59670  0.07010  Biso   1.000  H
  H4       1.0000 0.03410  0.40330  0.92990  Biso   1.000  H
  H5       1.0000 0.17840  0.77180  0.97960  Biso   1.000  H
  H6       1.0000 0.82160  0.22820  0.02040  Biso   1.000  H
  H7       1.0000 0.27570  0.00770  0.06640  Biso   1.000  H
  H8       1.0000 0.72430  0.99230  0.93360  Biso   1.000  H
