data_image0
_cell_length_a       3.796
_cell_length_b       10.271
_cell_length_c       13.185
_cell_angle_alpha    100.73
_cell_angle_beta     98
_cell_angle_gamma    94.79

_symmetry_space_group_name_H-M    "P 1"
_symmetry_int_tables_number       1

loop_
  _symmetry_equiv_pos_as_xyz
  'x, y, z'

loop_
  _atom_site_label
  _atom_site_occupancy
  _atom_site_fract_x
  _atom_site_fract_y
  _atom_site_fract_z
  _atom_site_thermal_displace_type
  _atom_site_B_iso_or_equiv
  _atom_site_type_symbol
  Cu1      1.0000 0.13150  0.11940  0.28120  Biso   1.000  Cu
  Cu2      1.0000 0.86850  0.88060  0.71880  Biso   1.000  Cu
  K1       1.0000 0.88120  0.31610  0.54420  Biso   1.000  K
  K2       1.0000 0.11880  0.68390  0.45580  Biso   1.000  K
  N1       1.0000 0.77680  0.08150  0.36840  Biso   1.000  N
  N2       1.0000 0.22320  0.91850  0.63160  Biso   1.000  N
  N3       1.0000 0.71030  0.97610  0.39170  Biso   1.000  N
  N4       1.0000 0.28970  0.02390  0.60830  Biso   1.000  N
  N5       1.0000 0.63450  0.87820  0.41660  Biso   1.000  N
  N6       1.0000 0.36550  0.12180  0.58340  Biso   1.000  N
  N7       1.0000 0.07130  0.94950  0.18530  Biso   1.000  N
  N8       1.0000 0.92870  0.05050  0.81470  Biso   1.000  N
  N9       1.0000 0.03010  0.84030  0.20390  Biso   1.000  N
  N10      1.0000 0.96990  0.15970  0.79610  Biso   1.000  N
  N11      1.0000 0.99540  0.73240  0.21440  Biso   1.000  N
  N12      1.0000 0.00460  0.26760  0.78560  Biso   1.000  N
  O1       1.0000 0.24530  0.30240  0.36820  Biso   1.000  O
  O2       1.0000 0.75470  0.69760  0.63180  Biso   1.000  O
  O3       1.0000 0.53800  0.50070  0.37440  Biso   1.000  O
  O4       1.0000 0.46200  0.49930  0.62560  Biso   1.000  O
  C1       1.0000 0.41410  0.38650  0.32900  Biso   1.000  C
  C2       1.0000 0.58590  0.61350  0.67100  Biso   1.000  C
  N13      1.0000 0.35540  0.20950  0.17970  Biso   1.000  N
  N14      1.0000 0.64460  0.79050  0.82030  Biso   1.000  N
  C3       1.0000 0.46860  0.33880  0.21730  Biso   1.000  C
  C4       1.0000 0.53140  0.66120  0.78270  Biso   1.000  C
  C5       1.0000 0.61800  0.41910  0.15810  Biso   1.000  C
  C6       1.0000 0.38200  0.58090  0.84190  Biso   1.000  C
  C7       1.0000 0.65370  0.36380  0.05750  Biso   1.000  C
  C8       1.0000 0.34630  0.63620  0.94250  Biso   1.000  C
  C9       1.0000 0.53770  0.23150  0.01820  Biso   1.000  C
  C10      1.0000 0.46230  0.76850  0.98180  Biso   1.000  C
  C11      1.0000 0.39100  0.15680  0.08150  Biso   1.000  C
  C12      1.0000 0.60900  0.84320  0.91850  Biso   1.000  C
  H1       1.0000 0.70510  0.52330  0.19010  Biso   1.000  H
  H2       1.0000 0.29490  0.47670  0.80990  Biso   1.000  H
  H3       1.0000 0.77260  0.42410  0.00950  Biso   1.000  H
  H4       1.0000 0.22740  0.57590  0.99050  Biso   1.000  H
  H5       1.0000 0.56120  0.18680  0.93890  Biso   1.000  H
  H6       1.0000 0.43880  0.81320  0.06110  Biso   1.000  H
  H7       1.0000 0.30190  0.05240  0.05090  Biso   1.000  H
  H8       1.0000 0.69810  0.94760  0.94910  Biso   1.000  H
