data_image0
_cell_length_a       6.813
_cell_length_b       8.273
_cell_length_c       16.719
_cell_angle_alpha    93.44
_cell_angle_beta     97.05
_cell_angle_gamma    96.19

_symmetry_space_group_name_H-M    "P 1"
_symmetry_int_tables_number       1

loop_
  _symmetry_equiv_pos_as_xyz
  'x, y, z'

loop_
  _atom_site_label
  _atom_site_occupancy
  _atom_site_fract_x
  _atom_site_fract_y
  _atom_site_fract_z
  _atom_site_thermal_displace_type
  _atom_site_B_iso_or_equiv
  _atom_site_type_symbol
  Cu1      1.0000 0.47773  0.11376  0.43961  Biso   1.000  Cu
  Cu2      1.0000 0.52227  0.88624  0.56039  Biso   1.000  Cu
  Cu3      1.0000 0.51880  0.37765  0.55296  Biso   1.000  Cu
  Cu4      1.0000 0.48120  0.62235  0.44704  Biso   1.000  Cu
  I1       1.0000 0.23911  0.34549  0.42896  Biso   1.000  I
  I2       1.0000 0.76089  0.65451  0.57104  Biso   1.000  I
  I3       1.0000 0.76831  0.15427  0.56190  Biso   1.000  I
  I4       1.0000 0.23169  0.84573  0.43810  Biso   1.000  I
  N1       1.0000 0.60990  0.10560  0.33570  Biso   1.000  N
  N2       1.0000 0.39010  0.89440  0.66430  Biso   1.000  N
  N3       1.0000 0.79740  0.10380  0.19590  Biso   1.000  N
  N4       1.0000 0.20260  0.89620  0.80410  Biso   1.000  N
  C1       1.0000 0.79530  0.06360  0.33500  Biso   1.000  C
  C2       1.0000 0.20470  0.93640  0.66500  Biso   1.000  C
  C3       1.0000 0.88640  0.06390  0.26670  Biso   1.000  C
  C4       1.0000 0.11360  0.93610  0.73330  Biso   1.000  C
  C5       1.0000 0.61060  0.14010  0.19550  Biso   1.000  C
  C6       1.0000 0.38940  0.85990  0.80450  Biso   1.000  C
  C7       1.0000 0.51860  0.14220  0.26430  Biso   1.000  C
  C8       1.0000 0.48140  0.85780  0.73570  Biso   1.000  C
  C9       1.0000 0.49570  0.17920  0.11550  Biso   1.000  C
  C10      1.0000 0.50430  0.82080  0.88450  Biso   1.000  C
  O1       1.0000 0.60360  0.18940  0.05730  Biso   1.000  O
  O2       1.0000 0.39640  0.81060  0.94270  Biso   1.000  O
  O3       1.0000 0.32260  0.19650  0.11300  Biso   1.000  O
  O4       1.0000 0.67740  0.80350  0.88700  Biso   1.000  O
  N5       1.0000 0.38510  0.38050  0.65720  Biso   1.000  N
  N6       1.0000 0.61490  0.61950  0.34280  Biso   1.000  N
  N7       1.0000 0.22190  0.39710  0.80180  Biso   1.000  N
  N8       1.0000 0.77810  0.60290  0.19820  Biso   1.000  N
  C11      1.0000 0.21160  0.43710  0.66090  Biso   1.000  C
  C12      1.0000 0.78840  0.56290  0.33910  Biso   1.000  C
  C13      1.0000 0.12990  0.44610  0.73320  Biso   1.000  C
  C14      1.0000 0.87010  0.55390  0.26680  Biso   1.000  C
  C15      1.0000 0.39700  0.34210  0.79760  Biso   1.000  C
  C16      1.0000 0.60300  0.65790  0.20240  Biso   1.000  C
  C17      1.0000 0.47910  0.33350  0.72510  Biso   1.000  C
  C18      1.0000 0.52090  0.66650  0.27490  Biso   1.000  C
  C19      1.0000 0.50830  0.28340  0.87190  Biso   1.000  C
  C20      1.0000 0.49170  0.71660  0.12810  Biso   1.000  C
  O5       1.0000 0.41550  0.26720  0.93160  Biso   1.000  O
  O6       1.0000 0.58450  0.73280  0.06840  Biso   1.000  O
  O7       1.0000 0.67900  0.25900  0.86870  Biso   1.000  O
  O8       1.0000 0.32100  0.74100  0.13130  Biso   1.000  O
  O9       1.0000 0.97330  0.15840  0.07220  Biso   1.000  O
  O10      1.0000 0.02670  0.84160  0.92780  Biso   1.000  O
  O11      1.0000 0.00400  0.55480  0.91770  Biso   1.000  O
  O12      1.0000 0.99600  0.44520  0.08230  Biso   1.000  O
  O13      1.0000 0.01100  0.12910  0.93360  Biso   1.000  O
  O14      1.0000 0.98900  0.87090  0.06640  Biso   1.000  O
  H1       1.0000 0.87850  0.08340  0.15120  Biso   1.000  H
  H2       1.0000 0.12150  0.91660  0.84880  Biso   1.000  H
  H3       1.0000 0.86500  0.03260  0.38420  Biso   1.000  H
  H4       1.0000 0.13500  0.96740  0.61580  Biso   1.000  H
  H5       1.0000 0.01930  0.03400  0.26950  Biso   1.000  H
  H6       1.0000 0.98070  0.96600  0.73050  Biso   1.000  H
  H7       1.0000 0.38520  0.17100  0.26100  Biso   1.000  H
  H8       1.0000 0.61480  0.82900  0.73900  Biso   1.000  H
  H9       1.0000 0.14160  0.47210  0.61280  Biso   1.000  H
  H10      1.0000 0.85840  0.52790  0.38720  Biso   1.000  H
  H11      1.0000 0.00480  0.48920  0.73410  Biso   1.000  H
  H12      1.0000 0.99520  0.51080  0.26590  Biso   1.000  H
  H13      1.0000 0.60610  0.29360  0.72420  Biso   1.000  H
  H14      1.0000 0.39390  0.70640  0.27580  Biso   1.000  H
  H15      1.0000 0.46790  0.22190  0.97190  Biso   1.000  H
  H16      1.0000 0.53210  0.77810  0.02810  Biso   1.000  H
  H17      1.0000 0.09180  0.11020  0.05650  Biso   1.000  H
  H18      1.0000 0.90820  0.88980  0.94350  Biso   1.000  H
  H19      1.0000 0.03100  0.25590  0.10090  Biso   1.000  H
  H20      1.0000 0.96900  0.74410  0.89910  Biso   1.000  H
  H21      1.0000 0.10630  0.54450  0.87530  Biso   1.000  H
  H22      1.0000 0.89370  0.45550  0.12470  Biso   1.000  H
  H23      1.0000 0.85480  0.51160  0.90520  Biso   1.000  H
  H24      1.0000 0.14520  0.48840  0.09480  Biso   1.000  H
  H25      1.0000 0.11190  0.19500  0.92160  Biso   1.000  H
  H26      1.0000 0.88810  0.80500  0.07840  Biso   1.000  H
  H27      1.0000 0.91480  0.18450  0.90380  Biso   1.000  H
  H28      1.0000 0.08520  0.81550  0.09620  Biso   1.000  H
