data_image0
_cell_length_a       6.887
_cell_length_b       11.141
_cell_length_c       7.545
_cell_angle_alpha    90
_cell_angle_beta     90.68
_cell_angle_gamma    90

_symmetry_space_group_name_H-M    "P 1"
_symmetry_int_tables_number       1

loop_
  _symmetry_equiv_pos_as_xyz
  'x, y, z'

loop_
  _atom_site_label
  _atom_site_occupancy
  _atom_site_fract_x
  _atom_site_fract_y
  _atom_site_fract_z
  _atom_site_thermal_displace_type
  _atom_site_B_iso_or_equiv
  _atom_site_type_symbol
  Cu1      1.0000 0.50000  0.50000  0.50000  Biso   1.000  Cu
  Cu2      1.0000 0.00000  0.00000  0.00000  Biso   1.000  Cu
  O1       1.0000 0.48160  0.63660  0.26820  Biso   1.000  O
  O2       1.0000 0.01840  0.13660  0.23180  Biso   1.000  O
  O3       1.0000 0.51840  0.36340  0.73180  Biso   1.000  O
  O4       1.0000 0.98160  0.86340  0.76820  Biso   1.000  O
  O5       1.0000 0.50660  0.36860  0.32030  Biso   1.000  O
  O6       1.0000 0.99340  0.86860  0.17970  Biso   1.000  O
  O7       1.0000 0.49340  0.63140  0.67970  Biso   1.000  O
  O8       1.0000 0.00660  0.13140  0.82030  Biso   1.000  O
  N1       1.0000 0.79860  0.50190  0.50850  Biso   1.000  N
  N2       1.0000 0.70140  0.00190  0.99150  Biso   1.000  N
  N3       1.0000 0.20140  0.49810  0.49150  Biso   1.000  N
  N4       1.0000 0.29860  0.99810  0.00850  Biso   1.000  N
  C1       1.0000 0.90050  0.60070  0.46740  Biso   1.000  C
  C2       1.0000 0.59950  0.10070  0.03260  Biso   1.000  C
  C3       1.0000 0.09950  0.39930  0.53260  Biso   1.000  C
  C4       1.0000 0.40050  0.89930  0.96740  Biso   1.000  C
  C5       1.0000 0.89920  0.40180  0.54120  Biso   1.000  C
  C6       1.0000 0.60080  0.90180  0.95880  Biso   1.000  C
  C7       1.0000 0.10080  0.59820  0.45880  Biso   1.000  C
  C8       1.0000 0.39920  0.09820  0.04120  Biso   1.000  C
  O9       1.0000 0.71630  0.60550  0.97070  Biso   1.000  O
  O10      1.0000 0.78370  0.10550  0.52930  Biso   1.000  O
  O11      1.0000 0.28370  0.39450  0.02930  Biso   1.000  O
  O12      1.0000 0.21630  0.89450  0.47070  Biso   1.000  O
  C9       1.0000 0.87170  0.54740  0.98600  Biso   1.000  C
  C10      1.0000 0.62830  0.04740  0.51400  Biso   1.000  C
  C11      1.0000 0.12830  0.45260  0.01400  Biso   1.000  C
  C12      1.0000 0.37170  0.95260  0.48600  Biso   1.000  C
  O13      1.0000 0.84410  0.35240  0.15470  Biso   1.000  O
  O14      1.0000 0.65590  0.85240  0.34530  Biso   1.000  O
  O15      1.0000 0.15590  0.64760  0.84530  Biso   1.000  O
  O16      1.0000 0.34410  0.14760  0.65470  Biso   1.000  O
  C13      1.0000 0.92880  0.43360  0.06990  Biso   1.000  C
  C14      1.0000 0.57120  0.93360  0.43010  Biso   1.000  C
  C15      1.0000 0.07120  0.56640  0.93010  Biso   1.000  C
  C16      1.0000 0.42880  0.06640  0.56990  Biso   1.000  C
