data_image0
_cell_length_a       7.7438
_cell_length_b       10.058
_cell_length_c       13.769
_cell_angle_alpha    101.96
_cell_angle_beta     105.94
_cell_angle_gamma    104.09

_symmetry_space_group_name_H-M    "P 1"
_symmetry_int_tables_number       1

loop_
  _symmetry_equiv_pos_as_xyz
  'x, y, z'

loop_
  _atom_site_label
  _atom_site_occupancy
  _atom_site_fract_x
  _atom_site_fract_y
  _atom_site_fract_z
  _atom_site_thermal_displace_type
  _atom_site_B_iso_or_equiv
  _atom_site_type_symbol
  Cu1      1.0000 0.00000  0.00000  0.50000  Biso   1.000  Cu
  C1       1.0000 0.03180  0.11380  0.71670  Biso   1.000  C
  C2       1.0000 0.96820  0.88620  0.28330  Biso   1.000  C
  C3       1.0000 0.14490  0.14610  0.83213  Biso   1.000  C
  C4       1.0000 0.85510  0.85390  0.16787  Biso   1.000  C
  C5       1.0000 0.32270  0.13510  0.86400  Biso   1.000  C
  C6       1.0000 0.67730  0.86490  0.13600  Biso   1.000  C
  H1       1.0000 0.37600  0.10680  0.81360  Biso   1.000  H
  H2       1.0000 0.62400  0.89320  0.18640  Biso   1.000  H
  C7       1.0000 0.42550  0.16570  0.97060  Biso   1.000  C
  C8       1.0000 0.57450  0.83430  0.02940  Biso   1.000  C
  H3       1.0000 0.54670  0.15790  0.99050  Biso   1.000  H
  H4       1.0000 0.45330  0.84210  0.00950  Biso   1.000  H
  C9       1.0000 0.34950  0.20760  0.04760  Biso   1.000  C
  C10      1.0000 0.65050  0.79240  0.95240  Biso   1.000  C
  C11      1.0000 0.16910  0.21640  0.01270  Biso   1.000  C
  C12      1.0000 0.83090  0.78360  0.98730  Biso   1.000  C
  C13      1.0000 0.06560  0.18660  0.90710  Biso   1.000  C
  C14      1.0000 0.93440  0.81340  0.09290  Biso   1.000  C
  H5       1.0000 0.94410  0.19370  0.88690  Biso   1.000  H
  H6       1.0000 0.05590  0.80630  0.11310  Biso   1.000  H
  C15      1.0000 0.45710  0.22560  0.16000  Biso   1.000  C
  C16      1.0000 0.54290  0.77440  0.84000  Biso   1.000  C
  C17      1.0000 0.61590  0.34190  0.22520  Biso   1.000  C
  C18      1.0000 0.38410  0.65810  0.77480  Biso   1.000  C
  C19      1.0000 0.71610  0.34970  0.32700  Biso   1.000  C
  C20      1.0000 0.28390  0.65030  0.67300  Biso   1.000  C
  H7       1.0000 0.82010  0.42980  0.36870  Biso   1.000  H
  H8       1.0000 0.17990  0.57020  0.63130  Biso   1.000  H
  C21      1.0000 0.65980  0.23660  0.36670  Biso   1.000  C
  C22      1.0000 0.34020  0.76340  0.63330  Biso   1.000  C
  C23      1.0000 0.50410  0.11980  0.30350  Biso   1.000  C
  C24      1.0000 0.49590  0.88020  0.69650  Biso   1.000  C
  H9       1.0000 0.46570  0.04390  0.32970  Biso   1.000  H
  H10      1.0000 0.53430  0.95610  0.67030  Biso   1.000  H
  C25      1.0000 0.40500  0.11390  0.20230  Biso   1.000  C
  C26      1.0000 0.59500  0.88610  0.79770  Biso   1.000  C
  H11      1.0000 0.30080  0.03370  0.16120  Biso   1.000  H
  H12      1.0000 0.69920  0.96630  0.83880  Biso   1.000  H
  C27      1.0000 0.76750  0.24840  0.47850  Biso   1.000  C
  C28      1.0000 0.23250  0.75160  0.52150  Biso   1.000  C
  C29      1.0000 0.14380  0.23650  0.41860  Biso   1.000  C
  C30      1.0000 0.85620  0.76350  0.58140  Biso   1.000  C
  H13      1.0000 0.02990  0.19140  0.36250  Biso   1.000  H
  H14      1.0000 0.97010  0.80860  0.63750  Biso   1.000  H
  C31      1.0000 0.26200  0.36270  0.41870  Biso   1.000  C
  C32      1.0000 0.73800  0.63730  0.58130  Biso   1.000  C
  H15      1.0000 0.22590  0.40200  0.36390  Biso   1.000  H
  H16      1.0000 0.77410  0.59800  0.63610  Biso   1.000  H
  C33      1.0000 0.43350  0.43180  0.49915  Biso   1.000  C
  C34      1.0000 0.56650  0.56820  0.50085  Biso   1.000  C
  C35      1.0000 0.47790  0.36730  0.57890  Biso   1.000  C
  C36      1.0000 0.52210  0.63270  0.42110  Biso   1.000  C
  H17      1.0000 0.59240  0.40910  0.63480  Biso   1.000  H
  H18      1.0000 0.40760  0.59090  0.36520  Biso   1.000  H
  C37      1.0000 0.35190  0.24160  0.57440  Biso   1.000  C
  C38      1.0000 0.64810  0.75840  0.42560  Biso   1.000  C
  H19      1.0000 0.38370  0.20050  0.62860  Biso   1.000  H
  H20      1.0000 0.61630  0.79950  0.37140  Biso   1.000  H
  N1       1.0000 0.18590  0.17580  0.49600  Biso   1.000  N
  N2       1.0000 0.81410  0.82420  0.50400  Biso   1.000  N
  N3       1.0000 0.67850  0.46570  0.18730  Biso   1.000  N
  N4       1.0000 0.32150  0.53430  0.81270  Biso   1.000  N
  N5       1.0000 0.07610  0.25420  0.08900  Biso   1.000  N
  N6       1.0000 0.92390  0.74580  0.91100  Biso   1.000  N
  O1       1.0000 0.10740  0.06427  0.65319  Biso   1.000  O
  O2       1.0000 0.89260  0.93573  0.34681  Biso   1.000  O
  O3       1.0000 0.87750  0.13400  0.69251  Biso   1.000  O
  O4       1.0000 0.12250  0.86600  0.30749  Biso   1.000  O
  O5       1.0000 0.88010  0.35840  0.54004  Biso   1.000  O
  O6       1.0000 0.11990  0.64160  0.45996  Biso   1.000  O
  O7       1.0000 0.72430  0.12460  0.49970  Biso   1.000  O
  O8       1.0000 0.27570  0.87540  0.50030  Biso   1.000  O
  H21      1.0000 0.75900  0.13300  0.55900  Biso   1.000  H
  H22      1.0000 0.24100  0.86700  0.44100  Biso   1.000  H
  O9       1.0000 0.85310  0.52540  0.21560  Biso   1.000  O
  O10      1.0000 0.14690  0.47460  0.78440  Biso   1.000  O
  O11      1.0000 0.55770  0.49870  0.12780  Biso   1.000  O
  O12      1.0000 0.44230  0.50130  0.87220  Biso   1.000  O
  O13      1.0000 0.90680  0.19780  0.06300  Biso   1.000  O
  O14      1.0000 0.09320  0.80220  0.93700  Biso   1.000  O
  O15      1.0000 0.17500  0.34420  0.17300  Biso   1.000  O
  O16      1.0000 0.82500  0.65580  0.82700  Biso   1.000  O
  O17      1.0000 0.70050  0.29670  0.80190  Biso   1.000  O
  O18      1.0000 0.29950  0.70330  0.19810  Biso   1.000  O
  O19      1.0000 0.00000  0.50000  0.00000  Biso   1.000  O
  O20      1.0000 0.75890  0.57860  0.25410  Biso   1.000  O
  O21      1.0000 0.24110  0.42140  0.74590  Biso   1.000  O
  O22      1.0000 0.63000  0.45530  0.09810  Biso   1.000  O
  O23      1.0000 0.37000  0.54470  0.90190  Biso   1.000  O
