data_image0
_cell_length_a       13.702
_cell_length_b       11.056
_cell_length_c       27.727
_cell_angle_alpha    90
_cell_angle_beta     95.026
_cell_angle_gamma    90

_symmetry_space_group_name_H-M    "P 1"
_symmetry_int_tables_number       1

loop_
  _symmetry_equiv_pos_as_xyz
  'x, y, z'

loop_
  _atom_site_label
  _atom_site_occupancy
  _atom_site_fract_x
  _atom_site_fract_y
  _atom_site_fract_z
  _atom_site_thermal_displace_type
  _atom_site_B_iso_or_equiv
  _atom_site_type_symbol
  Cu1      1.0000 0.29212  0.51990  0.02679  Biso   1.000  Cu
  Cu2      1.0000 0.20788  0.01990  0.47321  Biso   1.000  Cu
  Cu3      1.0000 0.70788  0.48010  0.97321  Biso   1.000  Cu
  Cu4      1.0000 0.79212  0.98010  0.52679  Biso   1.000  Cu
  Cu5      1.0000 0.07396  0.66356  0.02017  Biso   1.000  Cu
  Cu6      1.0000 0.42604  0.16356  0.47983  Biso   1.000  Cu
  Cu7      1.0000 0.92604  0.33644  0.97983  Biso   1.000  Cu
  Cu8      1.0000 0.57396  0.83644  0.52017  Biso   1.000  Cu
  Cu9      1.0000 0.50933  0.38132  0.02911  Biso   1.000  Cu
  Cu10     1.0000 0.99067  0.88132  0.47089  Biso   1.000  Cu
  Cu11     1.0000 0.49067  0.61868  0.97089  Biso   1.000  Cu
  Cu12     1.0000 0.00933  0.11868  0.52911  Biso   1.000  Cu
  C1       1.0000 0.23570  0.71320  0.09407  Biso   1.000  C
  C2       1.0000 0.26430  0.21320  0.40593  Biso   1.000  C
  C3       1.0000 0.76430  0.28680  0.90593  Biso   1.000  C
  C4       1.0000 0.73570  0.78680  0.59407  Biso   1.000  C
  C5       1.0000 0.26810  0.76970  0.14134  Biso   1.000  C
  C6       1.0000 0.23190  0.26970  0.35866  Biso   1.000  C
  C7       1.0000 0.73190  0.23030  0.85866  Biso   1.000  C
  C8       1.0000 0.76810  0.73030  0.64134  Biso   1.000  C
  C9       1.0000 0.20470  0.83700  0.16681  Biso   1.000  C
  C10      1.0000 0.29530  0.33700  0.33319  Biso   1.000  C
  C11      1.0000 0.79530  0.16300  0.83319  Biso   1.000  C
  C12      1.0000 0.70470  0.66300  0.66681  Biso   1.000  C
  H1       1.0000 0.14140  0.85240  0.15330  Biso   1.000  H
  H2       1.0000 0.35860  0.35240  0.34670  Biso   1.000  H
  H3       1.0000 0.85860  0.14760  0.84670  Biso   1.000  H
  H4       1.0000 0.64140  0.64760  0.65330  Biso   1.000  H
  C13      1.0000 0.23510  0.88110  0.21206  Biso   1.000  C
  C14      1.0000 0.26490  0.38110  0.28794  Biso   1.000  C
  C15      1.0000 0.76490  0.11890  0.78794  Biso   1.000  C
  C16      1.0000 0.73510  0.61890  0.71206  Biso   1.000  C
  C17      1.0000 0.33000  0.86210  0.23321  Biso   1.000  C
  C18      1.0000 0.17000  0.36210  0.26679  Biso   1.000  C
  C19      1.0000 0.67000  0.13790  0.76679  Biso   1.000  C
  C20      1.0000 0.83000  0.63790  0.73321  Biso   1.000  C
  C21      1.0000 0.39270  0.79830  0.20657  Biso   1.000  C
  C22      1.0000 0.10730  0.29830  0.29343  Biso   1.000  C
  C23      1.0000 0.60730  0.20170  0.79343  Biso   1.000  C
  C24      1.0000 0.89270  0.70170  0.70657  Biso   1.000  C
  H5       1.0000 0.45700  0.78640  0.21930  Biso   1.000  H
  H6       1.0000 0.04300  0.28640  0.28070  Biso   1.000  H
  H7       1.0000 0.54300  0.21360  0.78070  Biso   1.000  H
  H8       1.0000 0.95700  0.71360  0.71930  Biso   1.000  H
  C25      1.0000 0.36330  0.75150  0.16153  Biso   1.000  C
  C26      1.0000 0.13670  0.25150  0.33847  Biso   1.000  C
  C27      1.0000 0.63670  0.24850  0.83847  Biso   1.000  C
  C28      1.0000 0.86330  0.74850  0.66153  Biso   1.000  C
  H9       1.0000 0.40720  0.70760  0.14470  Biso   1.000  H
  H10      1.0000 0.09280  0.20760  0.35530  Biso   1.000  H
  H11      1.0000 0.59280  0.29240  0.85530  Biso   1.000  H
  H12      1.0000 0.90720  0.79240  0.64470  Biso   1.000  H
  C29      1.0000 0.36850  0.89550  0.28376  Biso   1.000  C
  C30      1.0000 0.13150  0.39550  0.21624  Biso   1.000  C
  C31      1.0000 0.63150  0.10450  0.71624  Biso   1.000  C
  C32      1.0000 0.86850  0.60450  0.78376  Biso   1.000  C
  C33      1.0000 0.40440  0.00740  0.29912  Biso   1.000  C
  C34      1.0000 0.09560  0.50740  0.20088  Biso   1.000  C
  C35      1.0000 0.59560  0.99260  0.70088  Biso   1.000  C
  C36      1.0000 0.90440  0.49260  0.79912  Biso   1.000  C
  C37      1.0000 0.45040  0.02550  0.34492  Biso   1.000  C
  C38      1.0000 0.04960  0.52550  0.15508  Biso   1.000  C
  C39      1.0000 0.54960  0.97450  0.65508  Biso   1.000  C
  C40      1.0000 0.95040  0.47450  0.84492  Biso   1.000  C
  H13      1.0000 0.47250  0.10220  0.35440  Biso   1.000  H
  H14      1.0000 0.02750  0.60220  0.14560  Biso   1.000  H
  H15      1.0000 0.52750  0.89780  0.64560  Biso   1.000  H
  H16      1.0000 0.97250  0.39780  0.85440  Biso   1.000  H
  C41      1.0000 0.46340  0.92900  0.37678  Biso   1.000  C
  C42      1.0000 0.03660  0.42900  0.12322  Biso   1.000  C
  C43      1.0000 0.53660  0.07100  0.62322  Biso   1.000  C
  C44      1.0000 0.96340  0.57100  0.87678  Biso   1.000  C
  C45      1.0000 0.42900  0.81600  0.36181  Biso   1.000  C
  C46      1.0000 0.07100  0.31600  0.13819  Biso   1.000  C
  C47      1.0000 0.57100  0.18400  0.63819  Biso   1.000  C
  C48      1.0000 0.92900  0.68400  0.86181  Biso   1.000  C
  H17      1.0000 0.43750  0.75020  0.38270  Biso   1.000  H
  H18      1.0000 0.06250  0.25020  0.11730  Biso   1.000  H
  H19      1.0000 0.56250  0.24980  0.61730  Biso   1.000  H
  H20      1.0000 0.93750  0.74980  0.88270  Biso   1.000  H
  C49      1.0000 0.38240  0.80060  0.31623  Biso   1.000  C
  C50      1.0000 0.11760  0.30060  0.18377  Biso   1.000  C
  C51      1.0000 0.61760  0.19940  0.68377  Biso   1.000  C
  C52      1.0000 0.88240  0.69940  0.81623  Biso   1.000  C
  H21      1.0000 0.35940  0.72410  0.30690  Biso   1.000  H
  H22      1.0000 0.14060  0.22410  0.19310  Biso   1.000  H
  H23      1.0000 0.64060  0.27590  0.69310  Biso   1.000  H
  H24      1.0000 0.85940  0.77590  0.80690  Biso   1.000  H
  C53      1.0000 0.51490  0.94680  0.42653  Biso   1.000  C
  C54      1.0000 0.98510  0.44680  0.07347  Biso   1.000  C
  C55      1.0000 0.48510  0.05320  0.57347  Biso   1.000  C
  C56      1.0000 0.01490  0.55320  0.92653  Biso   1.000  C
  C57      1.0000 0.33460  0.33000  0.95682  Biso   1.000  C
  C58      1.0000 0.16540  0.83000  0.54318  Biso   1.000  C
  C59      1.0000 0.66540  0.67000  0.04318  Biso   1.000  C
  C60      1.0000 0.83460  0.17000  0.45682  Biso   1.000  C
  C61      1.0000 0.29610  0.26800  0.91038  Biso   1.000  C
  C62      1.0000 0.20390  0.76800  0.58962  Biso   1.000  C
  C63      1.0000 0.70390  0.73200  0.08962  Biso   1.000  C
  C64      1.0000 0.79610  0.23200  0.41038  Biso   1.000  C
  C65      1.0000 0.34720  0.17640  0.89046  Biso   1.000  C
  C66      1.0000 0.15280  0.67640  0.60954  Biso   1.000  C
  C67      1.0000 0.65280  0.82360  0.10954  Biso   1.000  C
  C68      1.0000 0.84720  0.32360  0.39046  Biso   1.000  C
  H25      1.0000 0.40580  0.14910  0.90620  Biso   1.000  H
  H26      1.0000 0.09420  0.64910  0.59380  Biso   1.000  H
  H27      1.0000 0.59420  0.85090  0.09380  Biso   1.000  H
  H28      1.0000 0.90580  0.35090  0.40620  Biso   1.000  H
  C69      1.0000 0.31170  0.12470  0.84711  Biso   1.000  C
  C70      1.0000 0.18830  0.62470  0.65289  Biso   1.000  C
  C71      1.0000 0.68830  0.87530  0.15289  Biso   1.000  C
  C72      1.0000 0.81170  0.37530  0.34711  Biso   1.000  C
  C73      1.0000 0.22280  0.15830  0.82260  Biso   1.000  C
  C74      1.0000 0.27720  0.65830  0.67740  Biso   1.000  C
  C75      1.0000 0.77720  0.84170  0.17740  Biso   1.000  C
  C76      1.0000 0.72280  0.34170  0.32260  Biso   1.000  C
  C77      1.0000 0.17230  0.24780  0.84424  Biso   1.000  C
  C78      1.0000 0.32770  0.74780  0.65576  Biso   1.000  C
  C79      1.0000 0.82770  0.75220  0.15576  Biso   1.000  C
  C80      1.0000 0.67230  0.25220  0.34424  Biso   1.000  C
  H29      1.0000 0.11230  0.27290  0.82930  Biso   1.000  H
  H30      1.0000 0.38770  0.77290  0.67070  Biso   1.000  H
  H31      1.0000 0.88770  0.72710  0.17070  Biso   1.000  H
  H32      1.0000 0.61230  0.22710  0.32930  Biso   1.000  H
  C81      1.0000 0.20710  0.30180  0.88718  Biso   1.000  C
  C82      1.0000 0.29290  0.80180  0.61282  Biso   1.000  C
  C83      1.0000 0.79290  0.69820  0.11282  Biso   1.000  C
  C84      1.0000 0.70710  0.19820  0.38718  Biso   1.000  C
  H33      1.0000 0.17020  0.36170  0.90060  Biso   1.000  H
  H34      1.0000 0.32980  0.86170  0.59940  Biso   1.000  H
  H35      1.0000 0.82980  0.63830  0.09940  Biso   1.000  H
  H36      1.0000 0.67020  0.13830  0.40060  Biso   1.000  H
  C85      1.0000 0.17950  0.11610  0.77367  Biso   1.000  C
  C86      1.0000 0.32050  0.61610  0.72633  Biso   1.000  C
  C87      1.0000 0.82050  0.88390  0.22633  Biso   1.000  C
  C88      1.0000 0.67950  0.38390  0.27367  Biso   1.000  C
  C89      1.0000 0.13780  0.00420  0.76124  Biso   1.000  C
  C90      1.0000 0.36220  0.50420  0.73876  Biso   1.000  C
  C91      1.0000 0.86220  0.99580  0.23876  Biso   1.000  C
  C92      1.0000 0.63780  0.49580  0.26124  Biso   1.000  C
  C93      1.0000 0.09620  0.97840  0.71499  Biso   1.000  C
  C94      1.0000 0.40380  0.47840  0.78501  Biso   1.000  C
  C95      1.0000 0.90380  0.02160  0.28501  Biso   1.000  C
  C96      1.0000 0.59620  0.52160  0.21499  Biso   1.000  C
  H37      1.0000 0.06990  0.90220  0.70820  Biso   1.000  H
  H38      1.0000 0.43010  0.40220  0.79180  Biso   1.000  H
  H39      1.0000 0.93010  0.09780  0.29180  Biso   1.000  H
  H40      1.0000 0.56990  0.59780  0.20820  Biso   1.000  H
  C97      1.0000 0.09360  0.06430  0.67921  Biso   1.000  C
  C98      1.0000 0.40640  0.56430  0.82079  Biso   1.000  C
  C99      1.0000 0.90640  0.93570  0.32079  Biso   1.000  C
  C100     1.0000 0.59360  0.43570  0.17921  Biso   1.000  C
  C101     1.0000 0.13140  0.17740  0.69064  Biso   1.000  C
  C102     1.0000 0.36860  0.67740  0.80936  Biso   1.000  C
  C103     1.0000 0.86860  0.82260  0.30936  Biso   1.000  C
  C104     1.0000 0.63140  0.32260  0.19064  Biso   1.000  C
  H41      1.0000 0.12770  0.23800  0.66730  Biso   1.000  H
  H42      1.0000 0.37230  0.73800  0.83270  Biso   1.000  H
  H43      1.0000 0.87230  0.76200  0.33270  Biso   1.000  H
  H44      1.0000 0.62770  0.26200  0.16730  Biso   1.000  H
  C105     1.0000 0.17510  0.20130  0.73693  Biso   1.000  C
  C106     1.0000 0.32490  0.70130  0.76307  Biso   1.000  C
  C107     1.0000 0.82490  0.79870  0.26307  Biso   1.000  C
  C108     1.0000 0.67510  0.29870  0.23693  Biso   1.000  C
  H45      1.0000 0.20230  0.27730  0.74340  Biso   1.000  H
  H46      1.0000 0.29770  0.77730  0.75660  Biso   1.000  H
  H47      1.0000 0.79770  0.72270  0.25660  Biso   1.000  H
  H48      1.0000 0.70230  0.22270  0.24340  Biso   1.000  H
  C109     1.0000 0.04750  0.03600  0.62879  Biso   1.000  C
  C110     1.0000 0.45250  0.53600  0.87121  Biso   1.000  C
  C111     1.0000 0.95250  0.96400  0.37121  Biso   1.000  C
  C112     1.0000 0.54750  0.46400  0.12879  Biso   1.000  C
  C113     1.0000 0.69330  0.25900  0.05154  Biso   1.000  C
  C114     1.0000 0.80670  0.75900  0.44846  Biso   1.000  C
  C115     1.0000 0.30670  0.74100  0.94846  Biso   1.000  C
  C116     1.0000 0.19330  0.24100  0.55154  Biso   1.000  C
  H49      1.0000 0.70550  0.32900  0.06960  Biso   1.000  H
  H50      1.0000 0.79450  0.82900  0.43040  Biso   1.000  H
  H51      1.0000 0.29450  0.67100  0.93040  Biso   1.000  H
  H52      1.0000 0.20550  0.17100  0.56960  Biso   1.000  H
  C117     1.0000 0.76600  0.17410  0.05163  Biso   1.000  C
  C118     1.0000 0.73400  0.67410  0.44837  Biso   1.000  C
  C119     1.0000 0.23400  0.82590  0.94837  Biso   1.000  C
  C120     1.0000 0.26600  0.32590  0.55163  Biso   1.000  C
  H53      1.0000 0.82560  0.18740  0.06960  Biso   1.000  H
  H54      1.0000 0.67440  0.68740  0.43040  Biso   1.000  H
  H55      1.0000 0.17440  0.81260  0.93040  Biso   1.000  H
  H56      1.0000 0.32560  0.31260  0.56960  Biso   1.000  H
  C121     1.0000 0.75160  0.06960  0.02535  Biso   1.000  C
  C122     1.0000 0.74840  0.56960  0.47465  Biso   1.000  C
  C123     1.0000 0.24840  0.93040  0.97465  Biso   1.000  C
  C124     1.0000 0.25160  0.43040  0.52535  Biso   1.000  C
  C125     1.0000 0.66000  0.05620  0.99980  Biso   1.000  C
  C126     1.0000 0.84000  0.55620  0.50020  Biso   1.000  C
  C127     1.0000 0.34000  0.94380  0.00020  Biso   1.000  C
  C128     1.0000 0.16000  0.44380  0.49980  Biso   1.000  C
  H57      1.0000 0.64510  0.98630  0.98200  Biso   1.000  H
  H58      1.0000 0.85490  0.48630  0.51800  Biso   1.000  H
  H59      1.0000 0.35490  0.01370  0.01800  Biso   1.000  H
  H60      1.0000 0.14510  0.51370  0.48200  Biso   1.000  H
  C129     1.0000 0.59150  0.14710  0.00110  Biso   1.000  C
  C130     1.0000 0.90850  0.64710  0.49890  Biso   1.000  C
  C131     1.0000 0.40850  0.85290  0.99890  Biso   1.000  C
  C132     1.0000 0.09150  0.35290  0.50110  Biso   1.000  C
  H61      1.0000 0.53170  0.13790  0.98280  Biso   1.000  H
  H62      1.0000 0.96830  0.63790  0.51720  Biso   1.000  H
  H63      1.0000 0.46830  0.86210  0.01720  Biso   1.000  H
  H64      1.0000 0.03170  0.36210  0.48280  Biso   1.000  H
  C133     1.0000 0.82880  0.97590  0.02395  Biso   1.000  C
  C134     1.0000 0.67120  0.47590  0.47605  Biso   1.000  C
  C135     1.0000 0.17120  0.02410  0.97605  Biso   1.000  C
  C136     1.0000 0.32880  0.52410  0.52395  Biso   1.000  C
  C137     1.0000 0.91710  0.98500  0.05287  Biso   1.000  C
  C138     1.0000 0.58290  0.48500  0.44713  Biso   1.000  C
  C139     1.0000 0.08290  0.01500  0.94713  Biso   1.000  C
  C140     1.0000 0.41710  0.51500  0.55287  Biso   1.000  C
  H65      1.0000 0.92910  0.05110  0.07330  Biso   1.000  H
  H66      1.0000 0.57090  0.55110  0.42670  Biso   1.000  H
  H67      1.0000 0.07090  0.94890  0.92670  Biso   1.000  H
  H68      1.0000 0.42910  0.44890  0.57330  Biso   1.000  H
  C141     1.0000 0.98630  0.89520  0.05094  Biso   1.000  C
  C142     1.0000 0.51370  0.39520  0.44906  Biso   1.000  C
  C143     1.0000 0.01370  0.10480  0.94906  Biso   1.000  C
  C144     1.0000 0.48630  0.60480  0.55094  Biso   1.000  C
  H69      1.0000 0.04410  0.90230  0.07090  Biso   1.000  H
  H70      1.0000 0.45590  0.40230  0.42910  Biso   1.000  H
  H71      1.0000 0.95590  0.09770  0.92910  Biso   1.000  H
  H72      1.0000 0.54410  0.59770  0.57090  Biso   1.000  H
  C145     1.0000 0.88910  0.78940  0.99503  Biso   1.000  C
  C146     1.0000 0.61090  0.28940  0.50497  Biso   1.000  C
  C147     1.0000 0.11090  0.21060  0.00497  Biso   1.000  C
  C148     1.0000 0.38910  0.71060  0.49503  Biso   1.000  C
  H73      1.0000 0.87810  0.72120  0.97570  Biso   1.000  H
  H74      1.0000 0.62190  0.22120  0.52430  Biso   1.000  H
  H75      1.0000 0.12190  0.27880  0.02430  Biso   1.000  H
  H76      1.0000 0.37810  0.77880  0.47570  Biso   1.000  H
  C149     1.0000 0.81720  0.87440  0.99449  Biso   1.000  C
  C150     1.0000 0.68280  0.37440  0.50551  Biso   1.000  C
  C151     1.0000 0.18280  0.12560  0.00551  Biso   1.000  C
  C152     1.0000 0.31720  0.62560  0.49449  Biso   1.000  C
  H77      1.0000 0.75990  0.86440  0.97430  Biso   1.000  H
  H78      1.0000 0.74010  0.36440  0.52570  Biso   1.000  H
  H79      1.0000 0.24010  0.13560  0.02570  Biso   1.000  H
  H80      1.0000 0.25990  0.63560  0.47430  Biso   1.000  H
  N1       1.0000 0.60630  0.24670  0.02700  Biso   1.000  N
  N2       1.0000 0.89370  0.74670  0.47300  Biso   1.000  N
  N3       1.0000 0.39370  0.75330  0.97300  Biso   1.000  N
  N4       1.0000 0.10630  0.25330  0.52700  Biso   1.000  N
  N5       1.0000 0.97530  0.79880  0.02212  Biso   1.000  N
  N6       1.0000 0.52470  0.29880  0.47788  Biso   1.000  N
  N7       1.0000 0.02470  0.20120  0.97788  Biso   1.000  N
  N8       1.0000 0.47530  0.70120  0.52212  Biso   1.000  N
  N9       1.0000 0.16360  0.94800  0.23828  Biso   1.000  N
  N10      1.0000 0.33640  0.44800  0.26172  Biso   1.000  N
  N11      1.0000 0.83640  0.05200  0.76172  Biso   1.000  N
  N12      1.0000 0.66360  0.55200  0.73828  Biso   1.000  N
  N13      1.0000 0.39670  0.11280  0.26640  Biso   1.000  N
  N14      1.0000 0.10330  0.61280  0.23360  Biso   1.000  N
  N15      1.0000 0.60330  0.88720  0.73360  Biso   1.000  N
  N16      1.0000 0.89670  0.38720  0.76640  Biso   1.000  N
  N17      1.0000 0.13260  0.90750  0.79772  Biso   1.000  N
  N18      1.0000 0.36740  0.40750  0.70228  Biso   1.000  N
  N19      1.0000 0.86740  0.09250  0.20228  Biso   1.000  N
  N20      1.0000 0.63260  0.59250  0.29772  Biso   1.000  N
  N21      1.0000 0.37200  0.03090  0.82761  Biso   1.000  N
  N22      1.0000 0.12800  0.53090  0.67239  Biso   1.000  N
  N23      1.0000 0.62800  0.96910  0.17239  Biso   1.000  N
  N24      1.0000 0.87200  0.46910  0.32761  Biso   1.000  N
  O1       1.0000 0.14906  0.73330  0.07720  Biso   1.000  O
  O2       1.0000 0.35094  0.23330  0.42280  Biso   1.000  O
  O3       1.0000 0.85094  0.26670  0.92280  Biso   1.000  O
  O4       1.0000 0.64906  0.76670  0.57720  Biso   1.000  O
  O5       1.0000 0.29712  0.64980  0.07491  Biso   1.000  O
  O6       1.0000 0.20288  0.14980  0.42509  Biso   1.000  O
  O7       1.0000 0.70288  0.35020  0.92509  Biso   1.000  O
  O8       1.0000 0.79712  0.85020  0.57491  Biso   1.000  O
  O9       1.0000 0.53776  0.05140  0.43980  Biso   1.000  O
  O10      1.0000 0.96224  0.55140  0.06020  Biso   1.000  O
  O11      1.0000 0.46224  0.94860  0.56020  Biso   1.000  O
  O12      1.0000 0.03776  0.44860  0.93980  Biso   1.000  O
  O13      1.0000 0.53072  0.85070  0.45080  Biso   1.000  O
  O14      1.0000 0.96928  0.35070  0.04920  Biso   1.000  O
  O15      1.0000 0.46928  0.14930  0.54920  Biso   1.000  O
  O16      1.0000 0.03072  0.64930  0.95080  Biso   1.000  O
  O17      1.0000 0.28841  0.42450  0.96702  Biso   1.000  O
  O18      1.0000 0.21159  0.92450  0.53298  Biso   1.000  O
  O19      1.0000 0.71159  0.57550  0.03298  Biso   1.000  O
  O20      1.0000 0.78841  0.07550  0.46702  Biso   1.000  O
  O21      1.0000 0.40681  0.28610  0.98096  Biso   1.000  O
  O22      1.0000 0.09319  0.78610  0.51904  Biso   1.000  O
  O23      1.0000 0.59319  0.71390  0.01904  Biso   1.000  O
  O24      1.0000 0.90681  0.21390  0.48096  Biso   1.000  O
  O25      1.0000 0.03810  0.12560  0.60006  Biso   1.000  O
  O26      1.0000 0.46190  0.62560  0.89994  Biso   1.000  O
  O27      1.0000 0.96190  0.87440  0.39994  Biso   1.000  O
  O28      1.0000 0.53810  0.37440  0.10006  Biso   1.000  O
  O29      1.0000 0.02315  0.93080  0.61943  Biso   1.000  O
  O30      1.0000 0.47685  0.43080  0.88057  Biso   1.000  O
  O31      1.0000 0.97685  0.06920  0.38057  Biso   1.000  O
  O32      1.0000 0.52315  0.56920  0.11943  Biso   1.000  O
  O33      1.0000 0.15508  0.52480  0.01996  Biso   1.000  O
  O34      1.0000 0.34492  0.02480  0.48004  Biso   1.000  O
  O35      1.0000 0.84492  0.47520  0.98004  Biso   1.000  O
  O36      1.0000 0.65508  0.97520  0.51996  Biso   1.000  O
  H81      1.0000 0.14100  0.48700  0.99500  Biso   1.000  H
  H82      1.0000 0.35900  0.98700  0.50500  Biso   1.000  H
  H83      1.0000 0.85900  0.51300  0.00500  Biso   1.000  H
  H84      1.0000 0.64100  0.01300  0.49500  Biso   1.000  H
  O37      1.0000 0.43274  0.52790  0.03039  Biso   1.000  O
  O38      1.0000 0.06726  0.02790  0.46961  Biso   1.000  O
  O39      1.0000 0.56726  0.47210  0.96961  Biso   1.000  O
  O40      1.0000 0.93274  0.97210  0.53039  Biso   1.000  O
  H85      1.0000 0.44300  0.56900  0.05500  Biso   1.000  H
  H86      1.0000 0.05700  0.06900  0.44500  Biso   1.000  H
  H87      1.0000 0.55700  0.43100  0.94500  Biso   1.000  H
  H88      1.0000 0.94300  0.93100  0.55500  Biso   1.000  H
  O41      1.0000 0.09520  0.99580  0.21378  Biso   1.000  O
  O42      1.0000 0.40480  0.49580  0.28622  Biso   1.000  O
  O43      1.0000 0.90480  0.00420  0.78622  Biso   1.000  O
  O44      1.0000 0.59520  0.50420  0.71378  Biso   1.000  O
  O45      1.0000 0.17410  0.95200  0.28213  Biso   1.000  O
  O46      1.0000 0.32590  0.45200  0.21787  Biso   1.000  O
  O47      1.0000 0.82590  0.04800  0.71787  Biso   1.000  O
  O48      1.0000 0.67410  0.54800  0.78213  Biso   1.000  O
  O49      1.0000 0.33320  0.11170  0.23268  Biso   1.000  O
  O50      1.0000 0.16680  0.61170  0.26732  Biso   1.000  O
  O51      1.0000 0.66680  0.88830  0.76732  Biso   1.000  O
  O52      1.0000 0.83320  0.38830  0.73268  Biso   1.000  O
  O53      1.0000 0.45140  0.19720  0.27506  Biso   1.000  O
  O54      1.0000 0.04860  0.69720  0.22494  Biso   1.000  O
  O55      1.0000 0.54860  0.80280  0.72494  Biso   1.000  O
  O56      1.0000 0.95140  0.30280  0.77506  Biso   1.000  O
  O57      1.0000 0.36520  0.01310  0.78430  Biso   1.000  O
  O58      1.0000 0.13480  0.51310  0.71570  Biso   1.000  O
  O59      1.0000 0.63480  0.98690  0.21570  Biso   1.000  O
  O60      1.0000 0.86520  0.48690  0.28430  Biso   1.000  O
  O61      1.0000 0.42480  0.97010  0.85740  Biso   1.000  O
  O62      1.0000 0.07520  0.47010  0.64260  Biso   1.000  O
  O63      1.0000 0.57520  0.02990  0.14260  Biso   1.000  O
  O64      1.0000 0.92480  0.52990  0.35740  Biso   1.000  O
  O65      1.0000 0.10090  0.81160  0.78564  Biso   1.000  O
  O66      1.0000 0.39910  0.31160  0.71436  Biso   1.000  O
  O67      1.0000 0.89910  0.18840  0.21436  Biso   1.000  O
  O68      1.0000 0.60090  0.68840  0.28564  Biso   1.000  O
  O69      1.0000 0.16010  0.92990  0.83866  Biso   1.000  O
  O70      1.0000 0.33990  0.42990  0.66134  Biso   1.000  O
  O71      1.0000 0.83990  0.07010  0.16134  Biso   1.000  O
  O72      1.0000 0.66010  0.57010  0.33866  Biso   1.000  O
  O73      1.0000 0.29080  0.36740  0.08946  Biso   1.000  O
  O74      1.0000 0.20920  0.86740  0.41054  Biso   1.000  O
  O75      1.0000 0.70920  0.63260  0.91054  Biso   1.000  O
  O76      1.0000 0.79080  0.13260  0.58946  Biso   1.000  O
  H89      1.0000 0.31600  0.30000  0.10100  Biso   1.000  H
  H90      1.0000 0.18400  0.80000  0.39900  Biso   1.000  H
  H91      1.0000 0.68400  0.70000  0.89900  Biso   1.000  H
  H92      1.0000 0.81600  0.20000  0.60100  Biso   1.000  H
  H93      1.0000 0.30800  0.42100  0.11200  Biso   1.000  H
  H94      1.0000 0.19200  0.92100  0.38800  Biso   1.000  H
  H95      1.0000 0.69200  0.57900  0.88800  Biso   1.000  H
  H96      1.0000 0.80800  0.07900  0.61200  Biso   1.000  H
  O77      1.0000 0.39500  0.16460  0.11240  Biso   1.000  O
  O78      1.0000 0.10500  0.66460  0.38760  Biso   1.000  O
  O79      1.0000 0.60500  0.83540  0.88760  Biso   1.000  O
  O80      1.0000 0.89500  0.33540  0.61240  Biso   1.000  O
  O81      1.0000 0.34400  0.98300  0.78960  Biso   1.000  O
  O82      1.0000 0.15600  0.48300  0.71040  Biso   1.000  O
  O83      1.0000 0.65600  0.01700  0.21040  Biso   1.000  O
  O84      1.0000 0.84400  0.51700  0.28960  Biso   1.000  O
  O85      1.0000 0.45480  0.02600  0.84340  Biso   1.000  O
  O86      1.0000 0.04520  0.52600  0.65660  Biso   1.000  O
  O87      1.0000 0.54520  0.97400  0.15660  Biso   1.000  O
  O88      1.0000 0.95480  0.47400  0.34340  Biso   1.000  O
