data_image0
_cell_length_a       7.788
_cell_length_b       9.551
_cell_length_c       14.389
_cell_angle_alpha    101.446
_cell_angle_beta     105.298
_cell_angle_gamma    98.651

_symmetry_space_group_name_H-M    "P 1"
_symmetry_int_tables_number       1

loop_
  _symmetry_equiv_pos_as_xyz
  'x, y, z'

loop_
  _atom_site_label
  _atom_site_occupancy
  _atom_site_fract_x
  _atom_site_fract_y
  _atom_site_fract_z
  _atom_site_thermal_displace_type
  _atom_site_B_iso_or_equiv
  _atom_site_type_symbol
  Cu1      1.0000 0.99116  0.83945  0.02884  Biso   1.000  Cu
  Cu2      1.0000 0.00884  0.16055  0.97116  Biso   1.000  Cu
  O1       1.0000 0.83150  0.98120  0.02790  Biso   1.000  O
  O2       1.0000 0.16850  0.01880  0.97210  Biso   1.000  O
  N1       1.0000 0.17110  0.71330  0.02040  Biso   1.000  N
  N2       1.0000 0.82890  0.28670  0.97960  Biso   1.000  N
  O3       1.0000 0.11870  0.94840  0.16240  Biso   1.000  O
  O4       1.0000 0.88130  0.05160  0.83760  Biso   1.000  O
  C1       1.0000 0.43120  0.54530  0.00530  Biso   1.000  C
  C2       1.0000 0.56880  0.45470  0.99470  Biso   1.000  C
  C3       1.0000 0.26240  0.26590  0.42250  Biso   1.000  C
  C4       1.0000 0.73760  0.73410  0.57750  Biso   1.000  C
  H1       1.0000 0.28380  0.36380  0.42110  Biso   1.000  H
  H2       1.0000 0.71620  0.63620  0.57890  Biso   1.000  H
  N3       1.0000 0.29680  0.03370  0.60290  Biso   1.000  N
  N4       1.0000 0.70320  0.96630  0.39710  Biso   1.000  N
  C5       1.0000 0.37850  0.35050  0.60650  Biso   1.000  C
  C6       1.0000 0.62150  0.64950  0.39350  Biso   1.000  C
  N5       1.0000 0.08680  0.42590  0.61210  Biso   1.000  N
  N6       1.0000 0.91320  0.57410  0.38790  Biso   1.000  N
  C7       1.0000 0.29550  0.23030  0.51470  Biso   1.000  C
  C8       1.0000 0.70450  0.76970  0.48530  Biso   1.000  C
  C9       1.0000 0.13310  0.59000  0.94950  Biso   1.000  C
  C10      1.0000 0.86690  0.41000  0.05050  Biso   1.000  C
  H3       1.0000 0.01600  0.55980  0.90500  Biso   1.000  H
  H4       1.0000 0.98400  0.44020  0.09500  Biso   1.000  H
  O5       1.0000 0.02920  0.77510  0.23220  Biso   1.000  O
  O6       1.0000 0.97080  0.22490  0.76780  Biso   1.000  O
  C11      1.0000 0.09860  0.90010  0.23540  Biso   1.000  C
  C12      1.0000 0.90140  0.09990  0.76460  Biso   1.000  C
  O7       1.0000 0.32690  0.91430  0.60220  Biso   1.000  O
  O8       1.0000 0.67310  0.08570  0.39780  Biso   1.000  O
  O9       1.0000 0.00170  0.32940  0.54080  Biso   1.000  O
  O10      1.0000 0.99830  0.67060  0.45920  Biso   1.000  O
  C13      1.0000 0.26450  0.08170  0.51020  Biso   1.000  C
  C14      1.0000 0.73550  0.91830  0.48980  Biso   1.000  C
  C15      1.0000 0.47000  0.67280  0.07850  Biso   1.000  C
  C16      1.0000 0.53000  0.32720  0.92150  Biso   1.000  C
  H5       1.0000 0.58550  0.70520  0.12470  Biso   1.000  H
  H6       1.0000 0.41450  0.29480  0.87530  Biso   1.000  H
  C17      1.0000 0.25760  0.50460  0.93840  Biso   1.000  C
  C18      1.0000 0.74240  0.49540  0.06160  Biso   1.000  C
  H7       1.0000 0.22530  0.42070  0.88650  Biso   1.000  H
  H8       1.0000 0.77470  0.57930  0.11350  Biso   1.000  H
  C19      1.0000 0.19990  0.16140  0.33520  Biso   1.000  C
  C20      1.0000 0.80010  0.83860  0.66480  Biso   1.000  C
  H9       1.0000 0.17680  0.18970  0.27560  Biso   1.000  H
  H10      1.0000 0.82320  0.81030  0.72440  Biso   1.000  H
  C21      1.0000 0.28620  0.44610  0.65020  Biso   1.000  C
  C22      1.0000 0.71380  0.55390  0.34980  Biso   1.000  C
  C23      1.0000 0.20180  0.97550  0.42350  Biso   1.000  C
  C24      1.0000 0.79820  0.02450  0.57650  Biso   1.000  C
  H11      1.0000 0.18030  0.87760  0.42480  Biso   1.000  H
  H12      1.0000 0.81970  0.12240  0.57520  Biso   1.000  H
  C25      1.0000 0.16950  0.01340  0.33270  Biso   1.000  C
  C26      1.0000 0.83050  0.98660  0.66730  Biso   1.000  C
  C27      1.0000 0.33870  0.75160  0.08330  Biso   1.000  C
  C28      1.0000 0.66130  0.24840  0.91670  Biso   1.000  C
  H13      1.0000 0.36860  0.83720  0.13350  Biso   1.000  H
  H14      1.0000 0.63140  0.16280  0.86650  Biso   1.000  H
  O11      1.0000 0.01540  0.50840  0.65710  Biso   1.000  O
  O12      1.0000 0.98460  0.49160  0.34290  Biso   1.000  O
  C29      1.0000 0.56650  0.37720  0.65010  Biso   1.000  C
  C30      1.0000 0.43350  0.62280  0.34990  Biso   1.000  C
  H15      1.0000 0.63330  0.31670  0.62290  Biso   1.000  H
  H16      1.0000 0.36670  0.68330  0.37710  Biso   1.000  H
  O13      1.0000 0.29100  0.11330  0.67560  Biso   1.000  O
  O14      1.0000 0.70900  0.88670  0.32440  Biso   1.000  O
  C31      1.0000 0.65600  0.49160  0.73270  Biso   1.000  C
  C32      1.0000 0.34400  0.50840  0.26730  Biso   1.000  C
  H17      1.0000 0.78090  0.50490  0.76180  Biso   1.000  H
  H18      1.0000 0.21910  0.49510  0.23820  Biso   1.000  H
  C33      1.0000 0.56120  0.58610  0.77220  Biso   1.000  C
  C34      1.0000 0.43880  0.41390  0.22780  Biso   1.000  C
  C35      1.0000 0.37570  0.56170  0.72950  Biso   1.000  C
  C36      1.0000 0.62430  0.43830  0.27050  Biso   1.000  C
  H19      1.0000 0.31050  0.62530  0.75500  Biso   1.000  H
  H20      1.0000 0.68950  0.37470  0.24500  Biso   1.000  H
  C37      1.0000 0.65750  0.71240  0.86060  Biso   1.000  C
  C38      1.0000 0.34250  0.28760  0.13940  Biso   1.000  C
  O15      1.0000 0.82130  0.71430  0.90398  Biso   1.000  O
  O16      1.0000 0.17870  0.28570  0.09602  Biso   1.000  O
  O17      1.0000 0.57030  0.80450  0.88630  Biso   1.000  O
  O18      1.0000 0.42970  0.19550  0.11370  Biso   1.000  O
  O19      1.0000 0.73630  0.09020  0.18420  Biso   1.000  O
  O20      1.0000 0.26370  0.90980  0.81580  Biso   1.000  O
  H21      1.0000 0.81600  0.01100  0.08450  Biso   1.000  H
  H22      1.0000 0.18400  0.98900  0.91550  Biso   1.000  H
  H23      1.0000 0.72700  0.95200  0.98700  Biso   1.000  H
  H24      1.0000 0.27300  0.04800  0.01300  Biso   1.000  H
  H25      1.0000 0.64600  0.13000  0.17300  Biso   1.000  H
  H26      1.0000 0.35400  0.87000  0.82700  Biso   1.000  H
  H27      1.0000 0.71800  0.02700  0.21600  Biso   1.000  H
  H28      1.0000 0.28200  0.97300  0.78400  Biso   1.000  H
