data_image0
_cell_length_a       29.7864
_cell_length_b       6.7861
_cell_length_c       18.4731
_cell_angle_alpha    90
_cell_angle_beta     122.907
_cell_angle_gamma    90

_symmetry_space_group_name_H-M    "P 1"
_symmetry_int_tables_number       1

loop_
  _symmetry_equiv_pos_as_xyz
  'x, y, z'

loop_
  _atom_site_label
  _atom_site_occupancy
  _atom_site_fract_x
  _atom_site_fract_y
  _atom_site_fract_z
  _atom_site_thermal_displace_type
  _atom_site_B_iso_or_equiv
  _atom_site_type_symbol
  Cu1      1.0000 0.17947  0.23496  0.15858  Biso   1.000  Cu
  Cu2      1.0000 0.82053  0.23496  0.34142  Biso   1.000  Cu
  Cu3      1.0000 0.67947  0.73496  0.15858  Biso   1.000  Cu
  Cu4      1.0000 0.32053  0.73496  0.34142  Biso   1.000  Cu
  Cu5      1.0000 0.82053  0.76504  0.84142  Biso   1.000  Cu
  Cu6      1.0000 0.17947  0.76504  0.65858  Biso   1.000  Cu
  Cu7      1.0000 0.32053  0.26504  0.84142  Biso   1.000  Cu
  Cu8      1.0000 0.67947  0.26504  0.65858  Biso   1.000  Cu
  Cu9      1.0000 0.17826  0.73106  0.15124  Biso   1.000  Cu
  Cu10     1.0000 0.82174  0.73106  0.34876  Biso   1.000  Cu
  Cu11     1.0000 0.67826  0.23106  0.15124  Biso   1.000  Cu
  Cu12     1.0000 0.32174  0.23106  0.34876  Biso   1.000  Cu
  Cu13     1.0000 0.82174  0.26894  0.84876  Biso   1.000  Cu
  Cu14     1.0000 0.17826  0.26894  0.65124  Biso   1.000  Cu
  Cu15     1.0000 0.32174  0.76894  0.84876  Biso   1.000  Cu
  Cu16     1.0000 0.67826  0.76894  0.65124  Biso   1.000  Cu
  C1       1.0000 0.25658  0.47790  0.14530  Biso   1.000  C
  C2       1.0000 0.74342  0.47790  0.35470  Biso   1.000  C
  C3       1.0000 0.75658  0.97790  0.14530  Biso   1.000  C
  C4       1.0000 0.24342  0.97790  0.35470  Biso   1.000  C
  C5       1.0000 0.74342  0.52210  0.85470  Biso   1.000  C
  C6       1.0000 0.25658  0.52210  0.64530  Biso   1.000  C
  C7       1.0000 0.24342  0.02210  0.85470  Biso   1.000  C
  C8       1.0000 0.75658  0.02210  0.64530  Biso   1.000  C
  C9       1.0000 0.30163  0.46580  0.13100  Biso   1.000  C
  C10      1.0000 0.69837  0.46580  0.36900  Biso   1.000  C
  C11      1.0000 0.80163  0.96580  0.13100  Biso   1.000  C
  C12      1.0000 0.19837  0.96580  0.36900  Biso   1.000  C
  C13      1.0000 0.69837  0.53420  0.86900  Biso   1.000  C
  C14      1.0000 0.30163  0.53420  0.63100  Biso   1.000  C
  C15      1.0000 0.19837  0.03420  0.86900  Biso   1.000  C
  C16      1.0000 0.80163  0.03420  0.63100  Biso   1.000  C
  C17      1.0000 0.33324  0.29920  0.15870  Biso   1.000  C
  C18      1.0000 0.66676  0.29920  0.34130  Biso   1.000  C
  C19      1.0000 0.83324  0.79920  0.15870  Biso   1.000  C
  C20      1.0000 0.16676  0.79920  0.34130  Biso   1.000  C
  C21      1.0000 0.66676  0.70080  0.84130  Biso   1.000  C
  C22      1.0000 0.33324  0.70080  0.65870  Biso   1.000  C
  C23      1.0000 0.16676  0.20080  0.84130  Biso   1.000  C
  C24      1.0000 0.83324  0.20080  0.65870  Biso   1.000  C
  H1       1.0000 0.32500  0.19460  0.18200  Biso   1.000  H
  H2       1.0000 0.67500  0.19460  0.31800  Biso   1.000  H
  H3       1.0000 0.82500  0.69460  0.18200  Biso   1.000  H
  H4       1.0000 0.17500  0.69460  0.31800  Biso   1.000  H
  H5       1.0000 0.67500  0.80540  0.81800  Biso   1.000  H
  H6       1.0000 0.32500  0.80540  0.68200  Biso   1.000  H
  H7       1.0000 0.17500  0.30540  0.81800  Biso   1.000  H
  H8       1.0000 0.82500  0.30540  0.68200  Biso   1.000  H
  C25      1.0000 0.37711  0.28740  0.15210  Biso   1.000  C
  C26      1.0000 0.62289  0.28740  0.34790  Biso   1.000  C
  C27      1.0000 0.87711  0.78740  0.15210  Biso   1.000  C
  C28      1.0000 0.12289  0.78740  0.34790  Biso   1.000  C
  C29      1.0000 0.62289  0.71260  0.84790  Biso   1.000  C
  C30      1.0000 0.37711  0.71260  0.65210  Biso   1.000  C
  C31      1.0000 0.12289  0.21260  0.84790  Biso   1.000  C
  C32      1.0000 0.87711  0.21260  0.65210  Biso   1.000  C
  C33      1.0000 0.38995  0.43390  0.11330  Biso   1.000  C
  C34      1.0000 0.61005  0.43390  0.38670  Biso   1.000  C
  C35      1.0000 0.88995  0.93390  0.11330  Biso   1.000  C
  C36      1.0000 0.11005  0.93390  0.38670  Biso   1.000  C
  C37      1.0000 0.61005  0.56610  0.88670  Biso   1.000  C
  C38      1.0000 0.38995  0.56610  0.61330  Biso   1.000  C
  C39      1.0000 0.11005  0.06610  0.88670  Biso   1.000  C
  C40      1.0000 0.88995  0.06610  0.61330  Biso   1.000  C
  C41      1.0000 0.35660  0.59790  0.08410  Biso   1.000  C
  C42      1.0000 0.64340  0.59790  0.41590  Biso   1.000  C
  C43      1.0000 0.85660  0.09790  0.08410  Biso   1.000  C
  C44      1.0000 0.14340  0.09790  0.41590  Biso   1.000  C
  C45      1.0000 0.64340  0.40210  0.91590  Biso   1.000  C
  C46      1.0000 0.35660  0.40210  0.58410  Biso   1.000  C
  C47      1.0000 0.14340  0.90210  0.91590  Biso   1.000  C
  C48      1.0000 0.85660  0.90210  0.58410  Biso   1.000  C
  H9       1.0000 0.36300  0.69840  0.05660  Biso   1.000  H
  H10      1.0000 0.63700  0.69840  0.44340  Biso   1.000  H
  H11      1.0000 0.86300  0.19840  0.05660  Biso   1.000  H
  H12      1.0000 0.13700  0.19840  0.44340  Biso   1.000  H
  H13      1.0000 0.63700  0.30160  0.94340  Biso   1.000  H
  H14      1.0000 0.36300  0.30160  0.55660  Biso   1.000  H
  H15      1.0000 0.13700  0.80160  0.94340  Biso   1.000  H
  H16      1.0000 0.86300  0.80160  0.55660  Biso   1.000  H
  C49      1.0000 0.31398  0.61680  0.09440  Biso   1.000  C
  C50      1.0000 0.68602  0.61680  0.40560  Biso   1.000  C
  C51      1.0000 0.81398  0.11680  0.09440  Biso   1.000  C
  C52      1.0000 0.18602  0.11680  0.40560  Biso   1.000  C
  C53      1.0000 0.68602  0.38320  0.90560  Biso   1.000  C
  C54      1.0000 0.31398  0.38320  0.59440  Biso   1.000  C
  C55      1.0000 0.18602  0.88320  0.90560  Biso   1.000  C
  C56      1.0000 0.81398  0.88320  0.59440  Biso   1.000  C
  H17      1.0000 0.29370  0.73160  0.07670  Biso   1.000  H
  H18      1.0000 0.70630  0.73160  0.42330  Biso   1.000  H
  H19      1.0000 0.79370  0.23160  0.07670  Biso   1.000  H
  H20      1.0000 0.20630  0.23160  0.42330  Biso   1.000  H
  H21      1.0000 0.70630  0.26840  0.92330  Biso   1.000  H
  H22      1.0000 0.29370  0.26840  0.57670  Biso   1.000  H
  H23      1.0000 0.20630  0.76840  0.92330  Biso   1.000  H
  H24      1.0000 0.79370  0.76840  0.57670  Biso   1.000  H
  C57      1.0000 0.43848  0.44120  0.10910  Biso   1.000  C
  C58      1.0000 0.56152  0.44120  0.39090  Biso   1.000  C
  C59      1.0000 0.93848  0.94120  0.10910  Biso   1.000  C
  C60      1.0000 0.06152  0.94120  0.39090  Biso   1.000  C
  C61      1.0000 0.56152  0.55880  0.89090  Biso   1.000  C
  C62      1.0000 0.43848  0.55880  0.60910  Biso   1.000  C
  C63      1.0000 0.06152  0.05880  0.89090  Biso   1.000  C
  C64      1.0000 0.93848  0.05880  0.60910  Biso   1.000  C
  C65      1.0000 0.45581  0.29850  0.07420  Biso   1.000  C
  C66      1.0000 0.54419  0.29850  0.42580  Biso   1.000  C
  C67      1.0000 0.95581  0.79850  0.07420  Biso   1.000  C
  C68      1.0000 0.04419  0.79850  0.42580  Biso   1.000  C
  C69      1.0000 0.54419  0.70150  0.92580  Biso   1.000  C
  C70      1.0000 0.45581  0.70150  0.57420  Biso   1.000  C
  C71      1.0000 0.04419  0.20150  0.92580  Biso   1.000  C
  C72      1.0000 0.95581  0.20150  0.57420  Biso   1.000  C
  C73      1.0000 0.50432  0.30990  0.08170  Biso   1.000  C
  C74      1.0000 0.49568  0.30990  0.41830  Biso   1.000  C
  C75      1.0000 0.00432  0.80990  0.08170  Biso   1.000  C
  C76      1.0000 0.99568  0.80990  0.41830  Biso   1.000  C
  C77      1.0000 0.49568  0.69010  0.91830  Biso   1.000  C
  C78      1.0000 0.50432  0.69010  0.58170  Biso   1.000  C
  C79      1.0000 0.99568  0.19010  0.91830  Biso   1.000  C
  C80      1.0000 0.00432  0.19010  0.58170  Biso   1.000  C
  H25      1.0000 0.51520  0.20910  0.06040  Biso   1.000  H
  H26      1.0000 0.48480  0.20910  0.43960  Biso   1.000  H
  H27      1.0000 0.01520  0.70910  0.06040  Biso   1.000  H
  H28      1.0000 0.98480  0.70910  0.43960  Biso   1.000  H
  H29      1.0000 0.48480  0.79090  0.93960  Biso   1.000  H
  H30      1.0000 0.51520  0.79090  0.56040  Biso   1.000  H
  H31      1.0000 0.98480  0.29090  0.93960  Biso   1.000  H
  H32      1.0000 0.01520  0.29090  0.56040  Biso   1.000  H
  C81      1.0000 0.53704  0.47330  0.12140  Biso   1.000  C
  C82      1.0000 0.46296  0.47330  0.37860  Biso   1.000  C
  C83      1.0000 0.03704  0.97330  0.12140  Biso   1.000  C
  C84      1.0000 0.96296  0.97330  0.37860  Biso   1.000  C
  C85      1.0000 0.46296  0.52670  0.87860  Biso   1.000  C
  C86      1.0000 0.53704  0.52670  0.62140  Biso   1.000  C
  C87      1.0000 0.96296  0.02670  0.87860  Biso   1.000  C
  C88      1.0000 0.03704  0.02670  0.62140  Biso   1.000  C
  C89      1.0000 0.51968  0.62330  0.15020  Biso   1.000  C
  C90      1.0000 0.48032  0.62330  0.34980  Biso   1.000  C
  C91      1.0000 0.01968  0.12330  0.15020  Biso   1.000  C
  C92      1.0000 0.98032  0.12330  0.34980  Biso   1.000  C
  C93      1.0000 0.48032  0.37670  0.84980  Biso   1.000  C
  C94      1.0000 0.51968  0.37670  0.65020  Biso   1.000  C
  C95      1.0000 0.98032  0.87670  0.84980  Biso   1.000  C
  C96      1.0000 0.01968  0.87670  0.65020  Biso   1.000  C
  H33      1.0000 0.54020  0.73680  0.17340  Biso   1.000  H
  H34      1.0000 0.45980  0.73680  0.32660  Biso   1.000  H
  H35      1.0000 0.04020  0.23680  0.17340  Biso   1.000  H
  H36      1.0000 0.95980  0.23680  0.32660  Biso   1.000  H
  H37      1.0000 0.45980  0.26320  0.82660  Biso   1.000  H
  H38      1.0000 0.54020  0.26320  0.67340  Biso   1.000  H
  H39      1.0000 0.95980  0.76320  0.82660  Biso   1.000  H
  H40      1.0000 0.04020  0.76320  0.67340  Biso   1.000  H
  C97      1.0000 0.47137  0.60530  0.14480  Biso   1.000  C
  C98      1.0000 0.52863  0.60530  0.35520  Biso   1.000  C
  C99      1.0000 0.97137  0.10530  0.14480  Biso   1.000  C
  C100     1.0000 0.02863  0.10530  0.35520  Biso   1.000  C
  C101     1.0000 0.52863  0.39470  0.85520  Biso   1.000  C
  C102     1.0000 0.47137  0.39470  0.64480  Biso   1.000  C
  C103     1.0000 0.02863  0.89470  0.85520  Biso   1.000  C
  C104     1.0000 0.97137  0.89470  0.64480  Biso   1.000  C
  H41      1.0000 0.46070  0.70710  0.16590  Biso   1.000  H
  H42      1.0000 0.53930  0.70710  0.33410  Biso   1.000  H
  H43      1.0000 0.96070  0.20710  0.16590  Biso   1.000  H
  H44      1.0000 0.03930  0.20710  0.33410  Biso   1.000  H
  H45      1.0000 0.53930  0.29290  0.83410  Biso   1.000  H
  H46      1.0000 0.46070  0.29290  0.66590  Biso   1.000  H
  H47      1.0000 0.03930  0.79290  0.83410  Biso   1.000  H
  H48      1.0000 0.96070  0.79290  0.66590  Biso   1.000  H
  C105     1.0000 0.59153  0.48050  0.13470  Biso   1.000  C
  C106     1.0000 0.40847  0.48050  0.36530  Biso   1.000  C
  C107     1.0000 0.09153  0.98050  0.13470  Biso   1.000  C
  C108     1.0000 0.90847  0.98050  0.36530  Biso   1.000  C
  C109     1.0000 0.40847  0.51950  0.86530  Biso   1.000  C
  C110     1.0000 0.59153  0.51950  0.63470  Biso   1.000  C
  C111     1.0000 0.90847  0.01950  0.86530  Biso   1.000  C
  C112     1.0000 0.09153  0.01950  0.63470  Biso   1.000  C
  N1       1.0000 0.41009  0.10990  0.19230  Biso   1.000  N
  N2       1.0000 0.58991  0.10990  0.30770  Biso   1.000  N
  N3       1.0000 0.91009  0.60990  0.19230  Biso   1.000  N
  N4       1.0000 0.08991  0.60990  0.30770  Biso   1.000  N
  N5       1.0000 0.58991  0.89010  0.80770  Biso   1.000  N
  N6       1.0000 0.41009  0.89010  0.69230  Biso   1.000  N
  N7       1.0000 0.08991  0.39010  0.80770  Biso   1.000  N
  N8       1.0000 0.91009  0.39010  0.69230  Biso   1.000  N
  N9       1.0000 0.42285  0.12610  0.02830  Biso   1.000  N
  N10      1.0000 0.57715  0.12610  0.47170  Biso   1.000  N
  N11      1.0000 0.92285  0.62610  0.02830  Biso   1.000  N
  N12      1.0000 0.07715  0.62610  0.47170  Biso   1.000  N
  N13      1.0000 0.57715  0.87390  0.97170  Biso   1.000  N
  N14      1.0000 0.42285  0.87390  0.52830  Biso   1.000  N
  N15      1.0000 0.07715  0.37390  0.97170  Biso   1.000  N
  N16      1.0000 0.92285  0.37390  0.52830  Biso   1.000  N
  O1       1.0000 0.24513  0.32190  0.16710  Biso   1.000  O
  O2       1.0000 0.75487  0.32190  0.33290  Biso   1.000  O
  O3       1.0000 0.74513  0.82190  0.16710  Biso   1.000  O
  O4       1.0000 0.25487  0.82190  0.33290  Biso   1.000  O
  O5       1.0000 0.75487  0.67810  0.83290  Biso   1.000  O
  O6       1.0000 0.24513  0.67810  0.66710  Biso   1.000  O
  O7       1.0000 0.25487  0.17810  0.83290  Biso   1.000  O
  O8       1.0000 0.74513  0.17810  0.66710  Biso   1.000  O
  O9       1.0000 0.23512  0.64230  0.13540  Biso   1.000  O
  O10      1.0000 0.76488  0.64230  0.36460  Biso   1.000  O
  O11      1.0000 0.73512  0.14230  0.13540  Biso   1.000  O
  O12      1.0000 0.26488  0.14230  0.36460  Biso   1.000  O
  O13      1.0000 0.76488  0.35770  0.86460  Biso   1.000  O
  O14      1.0000 0.23512  0.35770  0.63540  Biso   1.000  O
  O15      1.0000 0.26488  0.85770  0.86460  Biso   1.000  O
  O16      1.0000 0.73512  0.85770  0.63540  Biso   1.000  O
  O17      1.0000 0.61098  0.31710  0.13459  Biso   1.000  O
  O18      1.0000 0.38902  0.31710  0.36541  Biso   1.000  O
  O19      1.0000 0.11098  0.81710  0.13459  Biso   1.000  O
  O20      1.0000 0.88902  0.81710  0.36541  Biso   1.000  O
  O21      1.0000 0.38902  0.68290  0.86541  Biso   1.000  O
  O22      1.0000 0.61098  0.68290  0.63459  Biso   1.000  O
  O23      1.0000 0.88902  0.18290  0.86541  Biso   1.000  O
  O24      1.0000 0.11098  0.18290  0.63459  Biso   1.000  O
  O25      1.0000 0.61291  0.64700  0.14715  Biso   1.000  O
  O26      1.0000 0.38709  0.64700  0.35285  Biso   1.000  O
  O27      1.0000 0.11291  0.14700  0.14715  Biso   1.000  O
  O28      1.0000 0.88709  0.14700  0.35285  Biso   1.000  O
  O29      1.0000 0.38709  0.35300  0.85285  Biso   1.000  O
  O30      1.0000 0.61291  0.35300  0.64715  Biso   1.000  O
  O31      1.0000 0.88709  0.85300  0.85285  Biso   1.000  O
  O32      1.0000 0.11291  0.85300  0.64715  Biso   1.000  O
  O33      1.0000 0.16924  0.48590  0.19095  Biso   1.000  O
  O34      1.0000 0.83076  0.48590  0.30905  Biso   1.000  O
  O35      1.0000 0.66924  0.98590  0.19095  Biso   1.000  O
  O36      1.0000 0.33076  0.98590  0.30905  Biso   1.000  O
  O37      1.0000 0.83076  0.51410  0.80905  Biso   1.000  O
  O38      1.0000 0.16924  0.51410  0.69095  Biso   1.000  O
  O39      1.0000 0.33076  0.01410  0.80905  Biso   1.000  O
  O40      1.0000 0.66924  0.01410  0.69095  Biso   1.000  O
  H49      1.0000 0.13870  0.49100  0.18400  Biso   1.000  H
  H50      1.0000 0.86130  0.49100  0.31600  Biso   1.000  H
  H51      1.0000 0.63870  0.99100  0.18400  Biso   1.000  H
  H52      1.0000 0.36130  0.99100  0.31600  Biso   1.000  H
  H53      1.0000 0.86130  0.50900  0.81600  Biso   1.000  H
  H54      1.0000 0.13870  0.50900  0.68400  Biso   1.000  H
  H55      1.0000 0.36130  0.00900  0.81600  Biso   1.000  H
  H56      1.0000 0.63870  0.00900  0.68400  Biso   1.000  H
  O41      1.0000 0.19342  0.98520  0.13170  Biso   1.000  O
  O42      1.0000 0.80658  0.98520  0.36830  Biso   1.000  O
  O43      1.0000 0.69342  0.48520  0.13170  Biso   1.000  O
  O44      1.0000 0.30658  0.48520  0.36830  Biso   1.000  O
  O45      1.0000 0.80658  0.01480  0.86830  Biso   1.000  O
  O46      1.0000 0.19342  0.01480  0.63170  Biso   1.000  O
  O47      1.0000 0.30658  0.51480  0.86830  Biso   1.000  O
  O48      1.0000 0.69342  0.51480  0.63170  Biso   1.000  O
  H57      1.0000 0.22500  0.99000  0.14600  Biso   1.000  H
  H58      1.0000 0.77500  0.99000  0.35400  Biso   1.000  H
  H59      1.0000 0.72500  0.49000  0.14600  Biso   1.000  H
  H60      1.0000 0.27500  0.49000  0.35400  Biso   1.000  H
  H61      1.0000 0.77500  0.01000  0.85400  Biso   1.000  H
  H62      1.0000 0.22500  0.01000  0.64600  Biso   1.000  H
  H63      1.0000 0.27500  0.51000  0.85400  Biso   1.000  H
  H64      1.0000 0.72500  0.51000  0.64600  Biso   1.000  H
  O49      1.0000 0.45390  0.11190  0.20480  Biso   1.000  O
  O50      1.0000 0.54610  0.11190  0.29520  Biso   1.000  O
  O51      1.0000 0.95390  0.61190  0.20480  Biso   1.000  O
  O52      1.0000 0.04610  0.61190  0.29520  Biso   1.000  O
  O53      1.0000 0.54610  0.88810  0.79520  Biso   1.000  O
  O54      1.0000 0.45390  0.88810  0.70480  Biso   1.000  O
  O55      1.0000 0.04610  0.38810  0.79520  Biso   1.000  O
  O56      1.0000 0.95390  0.38810  0.70480  Biso   1.000  O
  O57      1.0000 0.38880  0.97050  0.20210  Biso   1.000  O
  O58      1.0000 0.61120  0.97050  0.29790  Biso   1.000  O
  O59      1.0000 0.88880  0.47050  0.20210  Biso   1.000  O
  O60      1.0000 0.11120  0.47050  0.29790  Biso   1.000  O
  O61      1.0000 0.61120  0.02950  0.79790  Biso   1.000  O
  O62      1.0000 0.38880  0.02950  0.70210  Biso   1.000  O
  O63      1.0000 0.11120  0.52950  0.79790  Biso   1.000  O
  O64      1.0000 0.88880  0.52950  0.70210  Biso   1.000  O
  O65      1.0000 0.37544  0.13220  0.00161  Biso   1.000  O
  O66      1.0000 0.62456  0.13220  0.49839  Biso   1.000  O
  O67      1.0000 0.87544  0.63220  0.00161  Biso   1.000  O
  O68      1.0000 0.12456  0.63220  0.49839  Biso   1.000  O
  O69      1.0000 0.62456  0.86780  0.99839  Biso   1.000  O
  O70      1.0000 0.37544  0.86780  0.50161  Biso   1.000  O
  O71      1.0000 0.12456  0.36780  0.99839  Biso   1.000  O
  O72      1.0000 0.87544  0.36780  0.50161  Biso   1.000  O
  O73      1.0000 0.44420  0.98320  0.01820  Biso   1.000  O
  O74      1.0000 0.55580  0.98320  0.48180  Biso   1.000  O
  O75      1.0000 0.94420  0.48320  0.01820  Biso   1.000  O
  O76      1.0000 0.05580  0.48320  0.48180  Biso   1.000  O
  O77      1.0000 0.55580  0.01680  0.98180  Biso   1.000  O
  O78      1.0000 0.44420  0.01680  0.51820  Biso   1.000  O
  O79      1.0000 0.05580  0.51680  0.98180  Biso   1.000  O
  O80      1.0000 0.94420  0.51680  0.51820  Biso   1.000  O
  O81      1.0000 0.41070  0.03270  0.25430  Biso   1.000  O
  O82      1.0000 0.58930  0.03270  0.24570  Biso   1.000  O
  O83      1.0000 0.91070  0.53270  0.25430  Biso   1.000  O
  O84      1.0000 0.08930  0.53270  0.24570  Biso   1.000  O
  O85      1.0000 0.58930  0.96730  0.74570  Biso   1.000  O
  O86      1.0000 0.41070  0.96730  0.75430  Biso   1.000  O
  O87      1.0000 0.08930  0.46730  0.74570  Biso   1.000  O
  O88      1.0000 0.91070  0.46730  0.75430  Biso   1.000  O
  O89      1.0000 0.43950  0.04060  0.17520  Biso   1.000  O
  O90      1.0000 0.56050  0.04060  0.32480  Biso   1.000  O
  O91      1.0000 0.93950  0.54060  0.17520  Biso   1.000  O
  O92      1.0000 0.06050  0.54060  0.32480  Biso   1.000  O
  O93      1.0000 0.56050  0.95940  0.82480  Biso   1.000  O
  O94      1.0000 0.43950  0.95940  0.67520  Biso   1.000  O
  O95      1.0000 0.06050  0.45940  0.82480  Biso   1.000  O
  O96      1.0000 0.93950  0.45940  0.67520  Biso   1.000  O
