data_image0
_cell_length_a       10.901
_cell_length_b       16.032
_cell_length_c       23.843
_cell_angle_alpha    90
_cell_angle_beta     90
_cell_angle_gamma    90

_symmetry_space_group_name_H-M    "P 1"
_symmetry_int_tables_number       1

loop_
  _symmetry_equiv_pos_as_xyz
  'x, y, z'

loop_
  _atom_site_label
  _atom_site_occupancy
  _atom_site_fract_x
  _atom_site_fract_y
  _atom_site_fract_z
  _atom_site_thermal_displace_type
  _atom_site_B_iso_or_equiv
  _atom_site_type_symbol
  C1       1.0000 0.18140  0.87538  0.37437  Biso   1.000  C
  C2       1.0000 0.31860  0.12462  0.87437  Biso   1.000  C
  C3       1.0000 0.68140  0.62462  0.62563  Biso   1.000  C
  C4       1.0000 0.81860  0.37538  0.12563  Biso   1.000  C
  C5       1.0000 0.81860  0.12462  0.62563  Biso   1.000  C
  C6       1.0000 0.68140  0.87538  0.12563  Biso   1.000  C
  C7       1.0000 0.31860  0.37538  0.37437  Biso   1.000  C
  C8       1.0000 0.18140  0.62462  0.87437  Biso   1.000  C
  H1       1.0000 0.14080  0.87480  0.40870  Biso   1.000  H
  H2       1.0000 0.35920  0.12520  0.90870  Biso   1.000  H
  H3       1.0000 0.64080  0.62520  0.59130  Biso   1.000  H
  H4       1.0000 0.85920  0.37480  0.09130  Biso   1.000  H
  H5       1.0000 0.85920  0.12520  0.59130  Biso   1.000  H
  H6       1.0000 0.64080  0.87480  0.09130  Biso   1.000  H
  H7       1.0000 0.35920  0.37480  0.40870  Biso   1.000  H
  H8       1.0000 0.14080  0.62520  0.90870  Biso   1.000  H
  C9       1.0000 0.24930  0.80702  0.35962  Biso   1.000  C
  C10      1.0000 0.25070  0.19298  0.85962  Biso   1.000  C
  C11      1.0000 0.74930  0.69298  0.64038  Biso   1.000  C
  C12      1.0000 0.75070  0.30702  0.14038  Biso   1.000  C
  C13      1.0000 0.75070  0.19298  0.64038  Biso   1.000  C
  C14      1.0000 0.74930  0.80702  0.14038  Biso   1.000  C
  C15      1.0000 0.25070  0.30702  0.35962  Biso   1.000  C
  C16      1.0000 0.24930  0.69298  0.85962  Biso   1.000  C
  H9       1.0000 0.25370  0.76070  0.38300  Biso   1.000  H
  H10      1.0000 0.24630  0.23930  0.88300  Biso   1.000  H
  H11      1.0000 0.75370  0.73930  0.61700  Biso   1.000  H
  H12      1.0000 0.74630  0.26070  0.11700  Biso   1.000  H
  H13      1.0000 0.74630  0.23930  0.61700  Biso   1.000  H
  H14      1.0000 0.75370  0.76070  0.11700  Biso   1.000  H
  H15      1.0000 0.24630  0.26070  0.38300  Biso   1.000  H
  H16      1.0000 0.25370  0.73930  0.88300  Biso   1.000  H
  C17      1.0000 0.31120  0.80866  0.30902  Biso   1.000  C
  C18      1.0000 0.18880  0.19134  0.80902  Biso   1.000  C
  C19      1.0000 0.81120  0.69134  0.69098  Biso   1.000  C
  C20      1.0000 0.68880  0.30866  0.19098  Biso   1.000  C
  C21      1.0000 0.68880  0.19134  0.69098  Biso   1.000  C
  C22      1.0000 0.81120  0.80866  0.19098  Biso   1.000  C
  C23      1.0000 0.18880  0.30866  0.30902  Biso   1.000  C
  C24      1.0000 0.31120  0.69134  0.80902  Biso   1.000  C
  H17      1.0000 0.35970  0.76370  0.29830  Biso   1.000  H
  H18      1.0000 0.14030  0.23630  0.79830  Biso   1.000  H
  H19      1.0000 0.85970  0.73630  0.70170  Biso   1.000  H
  H20      1.0000 0.64030  0.26370  0.20170  Biso   1.000  H
  H21      1.0000 0.64030  0.23630  0.70170  Biso   1.000  H
  H22      1.0000 0.85970  0.76370  0.20170  Biso   1.000  H
  H23      1.0000 0.14030  0.26370  0.29830  Biso   1.000  H
  H24      1.0000 0.35970  0.73630  0.79830  Biso   1.000  H
  C25      1.0000 0.30090  0.87645  0.27484  Biso   1.000  C
  C26      1.0000 0.19910  0.12355  0.77484  Biso   1.000  C
  C27      1.0000 0.80090  0.62355  0.72516  Biso   1.000  C
  C28      1.0000 0.69910  0.37645  0.22516  Biso   1.000  C
  C29      1.0000 0.69910  0.12355  0.72516  Biso   1.000  C
  C30      1.0000 0.80090  0.87645  0.22516  Biso   1.000  C
  C31      1.0000 0.19910  0.37645  0.27484  Biso   1.000  C
  C32      1.0000 0.30090  0.62355  0.77484  Biso   1.000  C
  H25      1.0000 0.34220  0.87810  0.24070  Biso   1.000  H
  H26      1.0000 0.15780  0.12190  0.74070  Biso   1.000  H
  H27      1.0000 0.84220  0.62190  0.75930  Biso   1.000  H
  H28      1.0000 0.65780  0.37810  0.25930  Biso   1.000  H
  H29      1.0000 0.65780  0.12190  0.75930  Biso   1.000  H
  H30      1.0000 0.84220  0.87810  0.25930  Biso   1.000  H
  H31      1.0000 0.15780  0.37810  0.24070  Biso   1.000  H
  H32      1.0000 0.34220  0.62190  0.74070  Biso   1.000  H
  C33      1.0000 0.22713  0.94368  0.29172  Biso   1.000  C
  C34      1.0000 0.27287  0.05632  0.79172  Biso   1.000  C
  C35      1.0000 0.72713  0.55632  0.70828  Biso   1.000  C
  C36      1.0000 0.77287  0.44368  0.20828  Biso   1.000  C
  C37      1.0000 0.77287  0.05632  0.70828  Biso   1.000  C
  C38      1.0000 0.72713  0.94368  0.20828  Biso   1.000  C
  C39      1.0000 0.27287  0.44368  0.29172  Biso   1.000  C
  C40      1.0000 0.22713  0.55632  0.79172  Biso   1.000  C
  C41      1.0000 0.12280  0.06829  0.25132  Biso   1.000  C
  C42      1.0000 0.37720  0.93171  0.75132  Biso   1.000  C
  C43      1.0000 0.62280  0.43171  0.74868  Biso   1.000  C
  C44      1.0000 0.87720  0.56829  0.24868  Biso   1.000  C
  C45      1.0000 0.87720  0.93171  0.74868  Biso   1.000  C
  C46      1.0000 0.62280  0.06829  0.24868  Biso   1.000  C
  C47      1.0000 0.37720  0.56829  0.25132  Biso   1.000  C
  C48      1.0000 0.12280  0.43171  0.75132  Biso   1.000  C
  C49      1.0000 0.10660  0.10859  0.19944  Biso   1.000  C
  C50      1.0000 0.39340  0.89141  0.69944  Biso   1.000  C
  C51      1.0000 0.60660  0.39141  0.80056  Biso   1.000  C
  C52      1.0000 0.89340  0.60859  0.30056  Biso   1.000  C
  C53      1.0000 0.89340  0.89141  0.80056  Biso   1.000  C
  C54      1.0000 0.60660  0.10859  0.30056  Biso   1.000  C
  C55      1.0000 0.39340  0.60859  0.19944  Biso   1.000  C
  C56      1.0000 0.10660  0.39141  0.69944  Biso   1.000  C
  H33      1.0000 0.15900  0.09750  0.16960  Biso   1.000  H
  H34      1.0000 0.34100  0.90250  0.66960  Biso   1.000  H
  H35      1.0000 0.65900  0.40250  0.83040  Biso   1.000  H
  H36      1.0000 0.84100  0.59750  0.33040  Biso   1.000  H
  H37      1.0000 0.84100  0.90250  0.83040  Biso   1.000  H
  H38      1.0000 0.65900  0.09750  0.33040  Biso   1.000  H
  H39      1.0000 0.34100  0.59750  0.16960  Biso   1.000  H
  H40      1.0000 0.15900  0.40250  0.66960  Biso   1.000  H
  C57      1.0000 0.01270  0.16422  0.19378  Biso   1.000  C
  C58      1.0000 0.48730  0.83578  0.69378  Biso   1.000  C
  C59      1.0000 0.51270  0.33578  0.80622  Biso   1.000  C
  C60      1.0000 0.98730  0.66422  0.30622  Biso   1.000  C
  C61      1.0000 0.98730  0.83578  0.80622  Biso   1.000  C
  C62      1.0000 0.51270  0.16422  0.30622  Biso   1.000  C
  C63      1.0000 0.48730  0.66422  0.19378  Biso   1.000  C
  C64      1.0000 0.01270  0.33578  0.69378  Biso   1.000  C
  H41      1.0000 0.00020  0.19150  0.15980  Biso   1.000  H
  H42      1.0000 0.49980  0.80850  0.65980  Biso   1.000  H
  H43      1.0000 0.50020  0.30850  0.84020  Biso   1.000  H
  H44      1.0000 0.99980  0.69150  0.34020  Biso   1.000  H
  H45      1.0000 0.99980  0.80850  0.84020  Biso   1.000  H
  H46      1.0000 0.50020  0.19150  0.34020  Biso   1.000  H
  H47      1.0000 0.49980  0.69150  0.15980  Biso   1.000  H
  H48      1.0000 0.00020  0.30850  0.65980  Biso   1.000  H
  C65      1.0000 0.93690  0.17959  0.23858  Biso   1.000  C
  C66      1.0000 0.56310  0.82041  0.73858  Biso   1.000  C
  C67      1.0000 0.43690  0.32041  0.76142  Biso   1.000  C
  C68      1.0000 0.06310  0.67959  0.26142  Biso   1.000  C
  C69      1.0000 0.06310  0.82041  0.76142  Biso   1.000  C
  C70      1.0000 0.43690  0.17959  0.26142  Biso   1.000  C
  C71      1.0000 0.56310  0.67959  0.23858  Biso   1.000  C
  C72      1.0000 0.93690  0.32041  0.73858  Biso   1.000  C
  H49      1.0000 0.87120  0.21630  0.23520  Biso   1.000  H
  H50      1.0000 0.62880  0.78370  0.73520  Biso   1.000  H
  H51      1.0000 0.37120  0.28370  0.76480  Biso   1.000  H
  H52      1.0000 0.12880  0.71630  0.26480  Biso   1.000  H
  H53      1.0000 0.12880  0.78370  0.76480  Biso   1.000  H
  H54      1.0000 0.37120  0.21630  0.26480  Biso   1.000  H
  H55      1.0000 0.62880  0.71630  0.23520  Biso   1.000  H
  H56      1.0000 0.87120  0.28370  0.73520  Biso   1.000  H
  C73      1.0000 0.95950  0.14015  0.28801  Biso   1.000  C
  C74      1.0000 0.54050  0.85985  0.78801  Biso   1.000  C
  C75      1.0000 0.45950  0.35985  0.71199  Biso   1.000  C
  C76      1.0000 0.04050  0.64015  0.21199  Biso   1.000  C
  C77      1.0000 0.04050  0.85985  0.71199  Biso   1.000  C
  C78      1.0000 0.45950  0.14015  0.21199  Biso   1.000  C
  C79      1.0000 0.54050  0.64015  0.28801  Biso   1.000  C
  C80      1.0000 0.95950  0.35985  0.78801  Biso   1.000  C
  H57      1.0000 0.90810  0.15120  0.31830  Biso   1.000  H
  H58      1.0000 0.59190  0.84880  0.81830  Biso   1.000  H
  H59      1.0000 0.40810  0.34880  0.68170  Biso   1.000  H
  H60      1.0000 0.09190  0.65120  0.18170  Biso   1.000  H
  H61      1.0000 0.09190  0.84880  0.68170  Biso   1.000  H
  H62      1.0000 0.40810  0.15120  0.18170  Biso   1.000  H
  H63      1.0000 0.59190  0.65120  0.31830  Biso   1.000  H
  H64      1.0000 0.90810  0.34880  0.81830  Biso   1.000  H
  C81      1.0000 0.28647  0.05389  0.43766  Biso   1.000  C
  C82      1.0000 0.21353  0.94611  0.93766  Biso   1.000  C
  C83      1.0000 0.78647  0.44611  0.56234  Biso   1.000  C
  C84      1.0000 0.71353  0.55389  0.06234  Biso   1.000  C
  C85      1.0000 0.71353  0.94611  0.56234  Biso   1.000  C
  C86      1.0000 0.78647  0.05389  0.06234  Biso   1.000  C
  C87      1.0000 0.21353  0.55389  0.43766  Biso   1.000  C
  C88      1.0000 0.28647  0.44611  0.93766  Biso   1.000  C
  C89      1.0000 0.39528  0.02722  0.47177  Biso   1.000  C
  C90      1.0000 0.10472  0.97278  0.97177  Biso   1.000  C
  C91      1.0000 0.89528  0.47278  0.52823  Biso   1.000  C
  C92      1.0000 0.60472  0.52722  0.02823  Biso   1.000  C
  C93      1.0000 0.60472  0.97278  0.52823  Biso   1.000  C
  C94      1.0000 0.89528  0.02722  0.02823  Biso   1.000  C
  C95      1.0000 0.10472  0.52722  0.47177  Biso   1.000  C
  C96      1.0000 0.39528  0.47278  0.97177  Biso   1.000  C
  C97      1.0000 0.38793  0.96244  0.50957  Biso   1.000  C
  C98      1.0000 0.11207  0.03756  0.00957  Biso   1.000  C
  C99      1.0000 0.88793  0.53756  0.49043  Biso   1.000  C
  C100     1.0000 0.61207  0.46244  0.99043  Biso   1.000  C
  C101     1.0000 0.61207  0.03756  0.49043  Biso   1.000  C
  C102     1.0000 0.88793  0.96244  0.99043  Biso   1.000  C
  C103     1.0000 0.11207  0.46244  0.50957  Biso   1.000  C
  C104     1.0000 0.38793  0.53756  0.00957  Biso   1.000  C
  H65      1.0000 0.31280  0.93680  0.51630  Biso   1.000  H
  H66      1.0000 0.18720  0.06320  0.01630  Biso   1.000  H
  H67      1.0000 0.81280  0.56320  0.48370  Biso   1.000  H
  H68      1.0000 0.68720  0.43680  0.98370  Biso   1.000  H
  H69      1.0000 0.68720  0.06320  0.48370  Biso   1.000  H
  H70      1.0000 0.81280  0.93680  0.98370  Biso   1.000  H
  H71      1.0000 0.18720  0.43680  0.51630  Biso   1.000  H
  H72      1.0000 0.31280  0.56320  0.01630  Biso   1.000  H
  C105     1.0000 0.50826  0.06468  0.46236  Biso   1.000  C
  C106     1.0000 0.99174  0.93532  0.96236  Biso   1.000  C
  C107     1.0000 0.00826  0.43532  0.53764  Biso   1.000  C
  C108     1.0000 0.49174  0.56468  0.03764  Biso   1.000  C
  C109     1.0000 0.49174  0.93532  0.53764  Biso   1.000  C
  C110     1.0000 0.00826  0.06468  0.03764  Biso   1.000  C
  C111     1.0000 0.99174  0.56468  0.46236  Biso   1.000  C
  C112     1.0000 0.50826  0.43532  0.96236  Biso   1.000  C
  H73      1.0000 0.51430  0.10850  0.43690  Biso   1.000  H
  H74      1.0000 0.98570  0.89150  0.93690  Biso   1.000  H
  H75      1.0000 0.01430  0.39150  0.56310  Biso   1.000  H
  H76      1.0000 0.48570  0.60850  0.06310  Biso   1.000  H
  H77      1.0000 0.48570  0.89150  0.56310  Biso   1.000  H
  H78      1.0000 0.01430  0.10850  0.06310  Biso   1.000  H
  H79      1.0000 0.98570  0.60850  0.43690  Biso   1.000  H
  H80      1.0000 0.51430  0.39150  0.93690  Biso   1.000  H
  C113     1.0000 0.55269  0.66584  0.44071  Biso   1.000  C
  C114     1.0000 0.94731  0.33416  0.94071  Biso   1.000  C
  C115     1.0000 0.05269  0.83416  0.55929  Biso   1.000  C
  C116     1.0000 0.44731  0.16584  0.05929  Biso   1.000  C
  C117     1.0000 0.44731  0.33416  0.55929  Biso   1.000  C
  C118     1.0000 0.05269  0.66584  0.05929  Biso   1.000  C
  C119     1.0000 0.94731  0.16584  0.44071  Biso   1.000  C
  C120     1.0000 0.55269  0.83416  0.94071  Biso   1.000  C
  C121     1.0000 0.62707  0.74370  0.43221  Biso   1.000  C
  C122     1.0000 0.87293  0.25630  0.93221  Biso   1.000  C
  C123     1.0000 0.12707  0.75630  0.56779  Biso   1.000  C
  C124     1.0000 0.37293  0.24370  0.06779  Biso   1.000  C
  C125     1.0000 0.37293  0.25630  0.56779  Biso   1.000  C
  C126     1.0000 0.12707  0.74370  0.06779  Biso   1.000  C
  C127     1.0000 0.87293  0.24370  0.43221  Biso   1.000  C
  C128     1.0000 0.62707  0.75630  0.93221  Biso   1.000  C
  C129     1.0000 0.58700  0.80368  0.39494  Biso   1.000  C
  C130     1.0000 0.91300  0.19632  0.89494  Biso   1.000  C
  C131     1.0000 0.08700  0.69632  0.60506  Biso   1.000  C
  C132     1.0000 0.41300  0.30368  0.10506  Biso   1.000  C
  C133     1.0000 0.41300  0.19632  0.60506  Biso   1.000  C
  C134     1.0000 0.08700  0.80368  0.10506  Biso   1.000  C
  C135     1.0000 0.91300  0.30368  0.39494  Biso   1.000  C
  C136     1.0000 0.58700  0.69632  0.89494  Biso   1.000  C
  H81      1.0000 0.51050  0.79800  0.37810  Biso   1.000  H
  H82      1.0000 0.98950  0.20200  0.87810  Biso   1.000  H
  H83      1.0000 0.01050  0.70200  0.62190  Biso   1.000  H
  H84      1.0000 0.48950  0.29800  0.12190  Biso   1.000  H
  H85      1.0000 0.48950  0.20200  0.62190  Biso   1.000  H
  H86      1.0000 0.01050  0.79800  0.12190  Biso   1.000  H
  H87      1.0000 0.98950  0.29800  0.37810  Biso   1.000  H
  H88      1.0000 0.51050  0.70200  0.87810  Biso   1.000  H
  C137     1.0000 0.73910  0.75444  0.45837  Biso   1.000  C
  C138     1.0000 0.76090  0.24556  0.95837  Biso   1.000  C
  C139     1.0000 0.23910  0.74556  0.54163  Biso   1.000  C
  C140     1.0000 0.26090  0.25444  0.04163  Biso   1.000  C
  C141     1.0000 0.26090  0.24556  0.54163  Biso   1.000  C
  C142     1.0000 0.23910  0.75444  0.04163  Biso   1.000  C
  C143     1.0000 0.76090  0.25444  0.45837  Biso   1.000  C
  C144     1.0000 0.73910  0.74556  0.95837  Biso   1.000  C
  H89      1.0000 0.76520  0.71610  0.48510  Biso   1.000  H
  H90      1.0000 0.73480  0.28390  0.98510  Biso   1.000  H
  H91      1.0000 0.26520  0.78390  0.51490  Biso   1.000  H
  H92      1.0000 0.23480  0.21610  0.01490  Biso   1.000  H
  H93      1.0000 0.23480  0.28390  0.51490  Biso   1.000  H
  H94      1.0000 0.26520  0.71610  0.01490  Biso   1.000  H
  H95      1.0000 0.73480  0.21610  0.48510  Biso   1.000  H
  H96      1.0000 0.76520  0.78390  0.98510  Biso   1.000  H
  C145     1.0000 0.85383  0.95201  0.38968  Biso   1.000  C
  C146     1.0000 0.64617  0.04799  0.88968  Biso   1.000  C
  C147     1.0000 0.35383  0.54799  0.61032  Biso   1.000  C
  C148     1.0000 0.14617  0.45201  0.11032  Biso   1.000  C
  C149     1.0000 0.14617  0.04799  0.61032  Biso   1.000  C
  C150     1.0000 0.35383  0.95201  0.11032  Biso   1.000  C
  C151     1.0000 0.64617  0.45201  0.38968  Biso   1.000  C
  C152     1.0000 0.85383  0.54799  0.88968  Biso   1.000  C
  C153     1.0000 0.77365  0.88037  0.40647  Biso   1.000  C
  C154     1.0000 0.72635  0.11963  0.90647  Biso   1.000  C
  C155     1.0000 0.27365  0.61963  0.59353  Biso   1.000  C
  C156     1.0000 0.22635  0.38037  0.09353  Biso   1.000  C
  C157     1.0000 0.22635  0.11963  0.59353  Biso   1.000  C
  C158     1.0000 0.27365  0.88037  0.09353  Biso   1.000  C
  C159     1.0000 0.72635  0.38037  0.40647  Biso   1.000  C
  C160     1.0000 0.77365  0.61963  0.90647  Biso   1.000  C
  C161     1.0000 0.65890  0.87173  0.38248  Biso   1.000  C
  C162     1.0000 0.84110  0.12827  0.88248  Biso   1.000  C
  C163     1.0000 0.15890  0.62827  0.61752  Biso   1.000  C
  C164     1.0000 0.34110  0.37173  0.11752  Biso   1.000  C
  C165     1.0000 0.34110  0.12827  0.61752  Biso   1.000  C
  C166     1.0000 0.15890  0.87173  0.11752  Biso   1.000  C
  C167     1.0000 0.84110  0.37173  0.38248  Biso   1.000  C
  C168     1.0000 0.65890  0.62827  0.88248  Biso   1.000  C
  H97      1.0000 0.63020  0.91210  0.35780  Biso   1.000  H
  H98      1.0000 0.86980  0.08790  0.85780  Biso   1.000  H
  H99      1.0000 0.13020  0.58790  0.64220  Biso   1.000  H
  H100     1.0000 0.36980  0.41210  0.14220  Biso   1.000  H
  H101     1.0000 0.36980  0.08790  0.64220  Biso   1.000  H
  H102     1.0000 0.13020  0.91210  0.14220  Biso   1.000  H
  H103     1.0000 0.86980  0.41210  0.35780  Biso   1.000  H
  H104     1.0000 0.63020  0.58790  0.85780  Biso   1.000  H
  C169     1.0000 0.81230  0.82155  0.44512  Biso   1.000  C
  C170     1.0000 0.68770  0.17845  0.94512  Biso   1.000  C
  C171     1.0000 0.31230  0.67845  0.55488  Biso   1.000  C
  C172     1.0000 0.18770  0.32155  0.05488  Biso   1.000  C
  C173     1.0000 0.18770  0.17845  0.55488  Biso   1.000  C
  C174     1.0000 0.31230  0.82155  0.05488  Biso   1.000  C
  C175     1.0000 0.68770  0.32155  0.44512  Biso   1.000  C
  C176     1.0000 0.81230  0.67845  0.94512  Biso   1.000  C
  H105     1.0000 0.88850  0.82740  0.46230  Biso   1.000  H
  H106     1.0000 0.61150  0.17260  0.96230  Biso   1.000  H
  H107     1.0000 0.38850  0.67260  0.53770  Biso   1.000  H
  H108     1.0000 0.11150  0.32740  0.03770  Biso   1.000  H
  H109     1.0000 0.11150  0.17260  0.53770  Biso   1.000  H
  H110     1.0000 0.38850  0.82740  0.03770  Biso   1.000  H
  H111     1.0000 0.61150  0.32740  0.46230  Biso   1.000  H
  H112     1.0000 0.88850  0.67260  0.96230  Biso   1.000  H
  N1       1.0000 0.17057  0.94396  0.34135  Biso   1.000  N
  N2       1.0000 0.32943  0.05604  0.84135  Biso   1.000  N
  N3       1.0000 0.67057  0.55604  0.65865  Biso   1.000  N
  N4       1.0000 0.82943  0.44396  0.15865  Biso   1.000  N
  N5       1.0000 0.82943  0.05604  0.65865  Biso   1.000  N
  N6       1.0000 0.67057  0.94396  0.15865  Biso   1.000  N
  N7       1.0000 0.32943  0.44396  0.34135  Biso   1.000  N
  N8       1.0000 0.17057  0.55604  0.84135  Biso   1.000  N
  N9       1.0000 0.05288  0.08569  0.29542  Biso   1.000  N
  N10      1.0000 0.44712  0.91431  0.79542  Biso   1.000  N
  N11      1.0000 0.55288  0.41431  0.70458  Biso   1.000  N
  N12      1.0000 0.94712  0.58569  0.20458  Biso   1.000  N
  N13      1.0000 0.94712  0.91431  0.70458  Biso   1.000  N
  N14      1.0000 0.55288  0.08569  0.20458  Biso   1.000  N
  N15      1.0000 0.44712  0.58569  0.29542  Biso   1.000  N
  N16      1.0000 0.05288  0.41431  0.79542  Biso   1.000  N
  N17      1.0000 0.21410  0.00915  0.25515  Biso   1.000  N
  N18      1.0000 0.28590  0.99085  0.75515  Biso   1.000  N
  N19      1.0000 0.71410  0.49085  0.74485  Biso   1.000  N
  N20      1.0000 0.78590  0.50915  0.24485  Biso   1.000  N
  N21      1.0000 0.78590  0.99085  0.74485  Biso   1.000  N
  N22      1.0000 0.71410  0.00915  0.24485  Biso   1.000  N
  N23      1.0000 0.28590  0.50915  0.25515  Biso   1.000  N
  N24      1.0000 0.21410  0.49085  0.75515  Biso   1.000  N
  O1       1.0000 0.18066  0.02342  0.45014  Biso   1.000  O
  O2       1.0000 0.31934  0.97658  0.95014  Biso   1.000  O
  O3       1.0000 0.68066  0.47658  0.54986  Biso   1.000  O
  O4       1.0000 0.81934  0.52342  0.04986  Biso   1.000  O
  O5       1.0000 0.81934  0.97658  0.54986  Biso   1.000  O
  O6       1.0000 0.68066  0.02342  0.04986  Biso   1.000  O
  O7       1.0000 0.31934  0.52342  0.45014  Biso   1.000  O
  O8       1.0000 0.18066  0.47658  0.95014  Biso   1.000  O
  O9       1.0000 0.30096  0.09917  0.39630  Biso   1.000  O
  O10      1.0000 0.19904  0.90083  0.89630  Biso   1.000  O
  O11      1.0000 0.80096  0.40083  0.60370  Biso   1.000  O
  O12      1.0000 0.69904  0.59917  0.10370  Biso   1.000  O
  O13      1.0000 0.69904  0.90083  0.60370  Biso   1.000  O
  O14      1.0000 0.80096  0.09917  0.10370  Biso   1.000  O
  O15      1.0000 0.19904  0.59917  0.39630  Biso   1.000  O
  O16      1.0000 0.30096  0.40083  0.89630  Biso   1.000  O
  O17      1.0000 0.47408  0.65161  0.40316  Biso   1.000  O
  O18      1.0000 0.02592  0.34839  0.90316  Biso   1.000  O
  O19      1.0000 0.97408  0.84839  0.59684  Biso   1.000  O
  O20      1.0000 0.52592  0.15161  0.09684  Biso   1.000  O
  O21      1.0000 0.52592  0.34839  0.59684  Biso   1.000  O
  O22      1.0000 0.97408  0.65161  0.09684  Biso   1.000  O
  O23      1.0000 0.02592  0.15161  0.40316  Biso   1.000  O
  O24      1.0000 0.47408  0.84839  0.90316  Biso   1.000  O
  O25      1.0000 0.57492  0.62055  0.48216  Biso   1.000  O
  O26      1.0000 0.92508  0.37945  0.98216  Biso   1.000  O
  O27      1.0000 0.07492  0.87945  0.51784  Biso   1.000  O
  O28      1.0000 0.42508  0.12055  0.01784  Biso   1.000  O
  O29      1.0000 0.42508  0.37945  0.51784  Biso   1.000  O
  O30      1.0000 0.07492  0.62055  0.01784  Biso   1.000  O
  O31      1.0000 0.92508  0.12055  0.48216  Biso   1.000  O
  O32      1.0000 0.57492  0.87945  0.98216  Biso   1.000  O
  O33      1.0000 0.95118  0.96442  0.41780  Biso   1.000  O
  O34      1.0000 0.54882  0.03558  0.91780  Biso   1.000  O
  O35      1.0000 0.45118  0.53558  0.58220  Biso   1.000  O
  O36      1.0000 0.04882  0.46442  0.08220  Biso   1.000  O
  O37      1.0000 0.04882  0.03558  0.58220  Biso   1.000  O
  O38      1.0000 0.45118  0.96442  0.08220  Biso   1.000  O
  O39      1.0000 0.54882  0.46442  0.41780  Biso   1.000  O
  O40      1.0000 0.95118  0.53558  0.91780  Biso   1.000  O
  O41      1.0000 0.82611  0.99514  0.34922  Biso   1.000  O
  O42      1.0000 0.67389  0.00486  0.84922  Biso   1.000  O
  O43      1.0000 0.32611  0.50486  0.65078  Biso   1.000  O
  O44      1.0000 0.17389  0.49514  0.15078  Biso   1.000  O
  O45      1.0000 0.17389  0.00486  0.65078  Biso   1.000  O
  O46      1.0000 0.32611  0.99514  0.15078  Biso   1.000  O
  O47      1.0000 0.67389  0.49514  0.34922  Biso   1.000  O
  O48      1.0000 0.82611  0.50486  0.84922  Biso   1.000  O
  Mn1      1.0000 0.00000  0.00000  0.50000  Biso   1.000  Mn
  Mn2      1.0000 0.50000  0.00000  0.00000  Biso   1.000  Mn
  Mn3      1.0000 0.50000  0.50000  0.50000  Biso   1.000  Mn
  Mn4      1.0000 0.00000  0.50000  0.00000  Biso   1.000  Mn
  Cu1      1.0000 0.09294  0.04671  0.37433  Biso   1.000  Cu
  Cu2      1.0000 0.40706  0.95329  0.87433  Biso   1.000  Cu
  Cu3      1.0000 0.59294  0.45329  0.62567  Biso   1.000  Cu
  Cu4      1.0000 0.90706  0.54671  0.12567  Biso   1.000  Cu
  Cu5      1.0000 0.90706  0.95329  0.62567  Biso   1.000  Cu
  Cu6      1.0000 0.59294  0.04671  0.12567  Biso   1.000  Cu
  Cu7      1.0000 0.40706  0.54671  0.37433  Biso   1.000  Cu
  Cu8      1.0000 0.09294  0.45329  0.87433  Biso   1.000  Cu
  H113     1.0000 0.24500  0.00320  0.22790  Biso   1.000  H
  H114     1.0000 0.25500  0.99680  0.72790  Biso   1.000  H
  H115     1.0000 0.74500  0.49680  0.77210  Biso   1.000  H
  H116     1.0000 0.75500  0.50320  0.27210  Biso   1.000  H
  H117     1.0000 0.75500  0.99680  0.77210  Biso   1.000  H
  H118     1.0000 0.74500  0.00320  0.27210  Biso   1.000  H
  H119     1.0000 0.25500  0.50320  0.22790  Biso   1.000  H
  H120     1.0000 0.24500  0.49680  0.72790  Biso   1.000  H
