data_image0
_cell_length_a       14.397
_cell_length_b       17.432
_cell_length_c       8.535
_cell_angle_alpha    90
_cell_angle_beta     112.6
_cell_angle_gamma    90

_symmetry_space_group_name_H-M    "P 1"
_symmetry_int_tables_number       1

loop_
  _symmetry_equiv_pos_as_xyz
  'x, y, z'

loop_
  _atom_site_label
  _atom_site_occupancy
  _atom_site_fract_x
  _atom_site_fract_y
  _atom_site_fract_z
  _atom_site_thermal_displace_type
  _atom_site_B_iso_or_equiv
  _atom_site_type_symbol
  Cu1      1.0000 0.00000  0.39551  0.25000  Biso   1.000  Cu
  Cu2      1.0000 0.50000  0.89551  0.25000  Biso   1.000  Cu
  Cu3      1.0000 0.00000  0.60449  0.75000  Biso   1.000  Cu
  Cu4      1.0000 0.50000  0.10449  0.75000  Biso   1.000  Cu
  O1       1.0000 0.00000  0.52430  0.25000  Biso   1.000  O
  O2       1.0000 0.50000  0.02430  0.25000  Biso   1.000  O
  O3       1.0000 0.00000  0.47570  0.75000  Biso   1.000  O
  O4       1.0000 0.50000  0.97570  0.75000  Biso   1.000  O
  O5       1.0000 0.04040  0.38119  0.05110  Biso   1.000  O
  O6       1.0000 0.95960  0.38119  0.44890  Biso   1.000  O
  O7       1.0000 0.54040  0.88119  0.05110  Biso   1.000  O
  O8       1.0000 0.45960  0.88119  0.44890  Biso   1.000  O
  O9       1.0000 0.95960  0.61881  0.94890  Biso   1.000  O
  O10      1.0000 0.04040  0.61881  0.55110  Biso   1.000  O
  O11      1.0000 0.45960  0.11881  0.94890  Biso   1.000  O
  O12      1.0000 0.54040  0.11881  0.55110  Biso   1.000  O
  O13      1.0000 0.09500  0.26533  0.15270  Biso   1.000  O
  O14      1.0000 0.90500  0.26533  0.34730  Biso   1.000  O
  O15      1.0000 0.59500  0.76533  0.15270  Biso   1.000  O
  O16      1.0000 0.40500  0.76533  0.34730  Biso   1.000  O
  O17      1.0000 0.90500  0.73467  0.84730  Biso   1.000  O
  O18      1.0000 0.09500  0.73467  0.65270  Biso   1.000  O
  O19      1.0000 0.40500  0.23467  0.84730  Biso   1.000  O
  O20      1.0000 0.59500  0.23467  0.65270  Biso   1.000  O
  N1       1.0000 0.85560  0.38959  0.08890  Biso   1.000  N
  N2       1.0000 0.14440  0.38959  0.41110  Biso   1.000  N
  N3       1.0000 0.35560  0.88959  0.08890  Biso   1.000  N
  N4       1.0000 0.64440  0.88959  0.41110  Biso   1.000  N
  N5       1.0000 0.14440  0.61041  0.91110  Biso   1.000  N
  N6       1.0000 0.85560  0.61041  0.58890  Biso   1.000  N
  N7       1.0000 0.64440  0.11041  0.91110  Biso   1.000  N
  N8       1.0000 0.35560  0.11041  0.58890  Biso   1.000  N
  N9       1.0000 0.72680  0.32860  0.89670  Biso   1.000  N
  N10      1.0000 0.27320  0.32860  0.60330  Biso   1.000  N
  N11      1.0000 0.22680  0.82860  0.89670  Biso   1.000  N
  N12      1.0000 0.77320  0.82860  0.60330  Biso   1.000  N
  N13      1.0000 0.27320  0.67140  0.10330  Biso   1.000  N
  N14      1.0000 0.72680  0.67140  0.39670  Biso   1.000  N
  N15      1.0000 0.77320  0.17140  0.10330  Biso   1.000  N
  N16      1.0000 0.22680  0.17140  0.39670  Biso   1.000  N
  C1       1.0000 0.82590  0.34150  0.95960  Biso   1.000  C
  C2       1.0000 0.17410  0.34150  0.54040  Biso   1.000  C
  C3       1.0000 0.32590  0.84150  0.95960  Biso   1.000  C
  C4       1.0000 0.67410  0.84150  0.54040  Biso   1.000  C
  C5       1.0000 0.17410  0.65850  0.04040  Biso   1.000  C
  C6       1.0000 0.82590  0.65850  0.45960  Biso   1.000  C
  C7       1.0000 0.67410  0.15850  0.04040  Biso   1.000  C
  C8       1.0000 0.32590  0.15850  0.45960  Biso   1.000  C
  C9       1.0000 0.68730  0.36950  0.99390  Biso   1.000  C
  C10      1.0000 0.31270  0.36950  0.50610  Biso   1.000  C
  C11      1.0000 0.18730  0.86950  0.99390  Biso   1.000  C
  C12      1.0000 0.81270  0.86950  0.50610  Biso   1.000  C
  C13      1.0000 0.31270  0.63050  0.00610  Biso   1.000  C
  C14      1.0000 0.68730  0.63050  0.49390  Biso   1.000  C
  C15      1.0000 0.81270  0.13050  0.00610  Biso   1.000  C
  C16      1.0000 0.18730  0.13050  0.49390  Biso   1.000  C
  C17      1.0000 0.76780  0.40880  0.11280  Biso   1.000  C
  C18      1.0000 0.23220  0.40880  0.38720  Biso   1.000  C
  C19      1.0000 0.26780  0.90880  0.11280  Biso   1.000  C
  C20      1.0000 0.73220  0.90880  0.38720  Biso   1.000  C
  C21      1.0000 0.23220  0.59120  0.88720  Biso   1.000  C
  C22      1.0000 0.76780  0.59120  0.61280  Biso   1.000  C
  C23      1.0000 0.73220  0.09120  0.88720  Biso   1.000  C
  C24      1.0000 0.26780  0.09120  0.61280  Biso   1.000  C
  C25      1.0000 0.75150  0.45760  0.22890  Biso   1.000  C
  C26      1.0000 0.24850  0.45760  0.27110  Biso   1.000  C
  C27      1.0000 0.25150  0.95760  0.22890  Biso   1.000  C
  C28      1.0000 0.74850  0.95760  0.27110  Biso   1.000  C
  C29      1.0000 0.24850  0.54240  0.77110  Biso   1.000  C
  C30      1.0000 0.75150  0.54240  0.72890  Biso   1.000  C
  C31      1.0000 0.74850  0.04240  0.77110  Biso   1.000  C
  C32      1.0000 0.25150  0.04240  0.72890  Biso   1.000  C
  C33      1.0000 0.65460  0.46310  0.22260  Biso   1.000  C
  C34      1.0000 0.34540  0.46310  0.27740  Biso   1.000  C
  C35      1.0000 0.15460  0.96310  0.22260  Biso   1.000  C
  C36      1.0000 0.84540  0.96310  0.27740  Biso   1.000  C
  C37      1.0000 0.34540  0.53690  0.77740  Biso   1.000  C
  C38      1.0000 0.65460  0.53690  0.72260  Biso   1.000  C
  C39      1.0000 0.84540  0.03690  0.77740  Biso   1.000  C
  C40      1.0000 0.15460  0.03690  0.72260  Biso   1.000  C
  C41      1.0000 0.57520  0.42180  0.10490  Biso   1.000  C
  C42      1.0000 0.42480  0.42180  0.39510  Biso   1.000  C
  C43      1.0000 0.07520  0.92180  0.10490  Biso   1.000  C
  C44      1.0000 0.92480  0.92180  0.39510  Biso   1.000  C
  C45      1.0000 0.42480  0.57820  0.89510  Biso   1.000  C
  C46      1.0000 0.57520  0.57820  0.60490  Biso   1.000  C
  C47      1.0000 0.92480  0.07820  0.89510  Biso   1.000  C
  C48      1.0000 0.07520  0.07820  0.60490  Biso   1.000  C
  C49      1.0000 0.58920  0.37450  0.98800  Biso   1.000  C
  C50      1.0000 0.41080  0.37450  0.51200  Biso   1.000  C
  C51      1.0000 0.08920  0.87450  0.98800  Biso   1.000  C
  C52      1.0000 0.91080  0.87450  0.51200  Biso   1.000  C
  C53      1.0000 0.41080  0.62550  0.01200  Biso   1.000  C
  C54      1.0000 0.58920  0.62550  0.48800  Biso   1.000  C
  C55      1.0000 0.91080  0.12550  0.01200  Biso   1.000  C
  C56      1.0000 0.08920  0.12550  0.48800  Biso   1.000  C
  C57      1.0000 0.08690  0.31850  0.05370  Biso   1.000  C
  C58      1.0000 0.91310  0.31850  0.44630  Biso   1.000  C
  C59      1.0000 0.58690  0.81850  0.05370  Biso   1.000  C
  C60      1.0000 0.41310  0.81850  0.44630  Biso   1.000  C
  C61      1.0000 0.91310  0.68150  0.94630  Biso   1.000  C
  C62      1.0000 0.08690  0.68150  0.55370  Biso   1.000  C
  C63      1.0000 0.41310  0.18150  0.94630  Biso   1.000  C
  C64      1.0000 0.58690  0.18150  0.55370  Biso   1.000  C
  C65      1.0000 0.13030  0.31180  0.91780  Biso   1.000  C
  C66      1.0000 0.86970  0.31180  0.58220  Biso   1.000  C
  C67      1.0000 0.63030  0.81180  0.91780  Biso   1.000  C
  C68      1.0000 0.36970  0.81180  0.58220  Biso   1.000  C
  C69      1.0000 0.86970  0.68820  0.08220  Biso   1.000  C
  C70      1.0000 0.13030  0.68820  0.41780  Biso   1.000  C
  C71      1.0000 0.36970  0.18820  0.08220  Biso   1.000  C
  C72      1.0000 0.63030  0.18820  0.41780  Biso   1.000  C
  C73      1.0000 0.19810  0.24060  0.93540  Biso   1.000  C
  C74      1.0000 0.80190  0.24060  0.56460  Biso   1.000  C
  C75      1.0000 0.69810  0.74060  0.93540  Biso   1.000  C
  C76      1.0000 0.30190  0.74060  0.56460  Biso   1.000  C
  C77      1.0000 0.80190  0.75940  0.06460  Biso   1.000  C
  C78      1.0000 0.19810  0.75940  0.43540  Biso   1.000  C
  C79      1.0000 0.30190  0.25940  0.06460  Biso   1.000  C
  C80      1.0000 0.69810  0.25940  0.43540  Biso   1.000  C
  H1       1.0000 0.99400  0.55400  0.17200  Biso   1.000  H
  H2       1.0000 0.00600  0.55400  0.32800  Biso   1.000  H
  H3       1.0000 0.49400  0.05400  0.17200  Biso   1.000  H
  H4       1.0000 0.50600  0.05400  0.32800  Biso   1.000  H
  H5       1.0000 0.00600  0.44600  0.82800  Biso   1.000  H
  H6       1.0000 0.99400  0.44600  0.67200  Biso   1.000  H
  H7       1.0000 0.50600  0.94600  0.82800  Biso   1.000  H
  H8       1.0000 0.49400  0.94600  0.67200  Biso   1.000  H
  H9       1.0000 0.87000  0.31800  0.91900  Biso   1.000  H
  H10      1.0000 0.13000  0.31800  0.58100  Biso   1.000  H
  H11      1.0000 0.37000  0.81800  0.91900  Biso   1.000  H
  H12      1.0000 0.63000  0.81800  0.58100  Biso   1.000  H
  H13      1.0000 0.13000  0.68200  0.08100  Biso   1.000  H
  H14      1.0000 0.87000  0.68200  0.41900  Biso   1.000  H
  H15      1.0000 0.63000  0.18200  0.08100  Biso   1.000  H
  H16      1.0000 0.37000  0.18200  0.41900  Biso   1.000  H
  H17      1.0000 0.70000  0.30200  0.82400  Biso   1.000  H
  H18      1.0000 0.30000  0.30200  0.67600  Biso   1.000  H
  H19      1.0000 0.20000  0.80200  0.82400  Biso   1.000  H
  H20      1.0000 0.80000  0.80200  0.67600  Biso   1.000  H
  H21      1.0000 0.30000  0.69800  0.17600  Biso   1.000  H
  H22      1.0000 0.70000  0.69800  0.32400  Biso   1.000  H
  H23      1.0000 0.80000  0.19800  0.17600  Biso   1.000  H
  H24      1.0000 0.20000  0.19800  0.32400  Biso   1.000  H
  H25      1.0000 0.80300  0.48100  0.30200  Biso   1.000  H
  H26      1.0000 0.19700  0.48100  0.19800  Biso   1.000  H
  H27      1.0000 0.30300  0.98100  0.30200  Biso   1.000  H
  H28      1.0000 0.69700  0.98100  0.19800  Biso   1.000  H
  H29      1.0000 0.19700  0.51900  0.69800  Biso   1.000  H
  H30      1.0000 0.80300  0.51900  0.80200  Biso   1.000  H
  H31      1.0000 0.69700  0.01900  0.69800  Biso   1.000  H
  H32      1.0000 0.30300  0.01900  0.80200  Biso   1.000  H
  H33      1.0000 0.63500  0.49500  0.29600  Biso   1.000  H
  H34      1.0000 0.36500  0.49500  0.20400  Biso   1.000  H
  H35      1.0000 0.13500  0.99500  0.29600  Biso   1.000  H
  H36      1.0000 0.86500  0.99500  0.20400  Biso   1.000  H
  H37      1.0000 0.36500  0.50500  0.70400  Biso   1.000  H
  H38      1.0000 0.63500  0.50500  0.79600  Biso   1.000  H
  H39      1.0000 0.86500  0.00500  0.70400  Biso   1.000  H
  H40      1.0000 0.13500  0.00500  0.79600  Biso   1.000  H
  H41      1.0000 0.50900  0.43200  0.10300  Biso   1.000  H
  H42      1.0000 0.49100  0.43200  0.39700  Biso   1.000  H
  H43      1.0000 0.00900  0.93200  0.10300  Biso   1.000  H
  H44      1.0000 0.99100  0.93200  0.39700  Biso   1.000  H
  H45      1.0000 0.49100  0.56800  0.89700  Biso   1.000  H
  H46      1.0000 0.50900  0.56800  0.60300  Biso   1.000  H
  H47      1.0000 0.99100  0.06800  0.89700  Biso   1.000  H
  H48      1.0000 0.00900  0.06800  0.60300  Biso   1.000  H
  H49      1.0000 0.53800  0.34900  0.91400  Biso   1.000  H
  H50      1.0000 0.46200  0.34900  0.58600  Biso   1.000  H
  H51      1.0000 0.03800  0.84900  0.91400  Biso   1.000  H
  H52      1.0000 0.96200  0.84900  0.58600  Biso   1.000  H
  H53      1.0000 0.46200  0.65100  0.08600  Biso   1.000  H
  H54      1.0000 0.53800  0.65100  0.41400  Biso   1.000  H
  H55      1.0000 0.96200  0.15100  0.08600  Biso   1.000  H
  H56      1.0000 0.03800  0.15100  0.41400  Biso   1.000  H
  H57      1.0000 0.16900  0.35800  0.92100  Biso   1.000  H
  H58      1.0000 0.83100  0.35800  0.57900  Biso   1.000  H
  H59      1.0000 0.66900  0.85800  0.92100  Biso   1.000  H
  H60      1.0000 0.33100  0.85800  0.57900  Biso   1.000  H
  H61      1.0000 0.83100  0.64200  0.07900  Biso   1.000  H
  H62      1.0000 0.16900  0.64200  0.42100  Biso   1.000  H
  H63      1.0000 0.33100  0.14200  0.07900  Biso   1.000  H
  H64      1.0000 0.66900  0.14200  0.42100  Biso   1.000  H
  H65      1.0000 0.07500  0.31000  0.80800  Biso   1.000  H
  H66      1.0000 0.92500  0.31000  0.69200  Biso   1.000  H
  H67      1.0000 0.57500  0.81000  0.80800  Biso   1.000  H
  H68      1.0000 0.42500  0.81000  0.69200  Biso   1.000  H
  H69      1.0000 0.92500  0.69000  0.19200  Biso   1.000  H
  H70      1.0000 0.07500  0.69000  0.30800  Biso   1.000  H
  H71      1.0000 0.42500  0.19000  0.19200  Biso   1.000  H
  H72      1.0000 0.57500  0.19000  0.30800  Biso   1.000  H
  H73      1.0000 0.17100  0.19700  0.97300  Biso   1.000  H
  H74      1.0000 0.82900  0.19700  0.52700  Biso   1.000  H
  H75      1.0000 0.67100  0.69700  0.97300  Biso   1.000  H
  H76      1.0000 0.32900  0.69700  0.52700  Biso   1.000  H
  H77      1.0000 0.82900  0.80300  0.02700  Biso   1.000  H
  H78      1.0000 0.17100  0.80300  0.47300  Biso   1.000  H
  H79      1.0000 0.32900  0.30300  0.02700  Biso   1.000  H
  H80      1.0000 0.67100  0.30300  0.47300  Biso   1.000  H
  H81      1.0000 0.20200  0.22800  0.82700  Biso   1.000  H
  H82      1.0000 0.79800  0.22800  0.67300  Biso   1.000  H
  H83      1.0000 0.70200  0.72800  0.82700  Biso   1.000  H
  H84      1.0000 0.29800  0.72800  0.67300  Biso   1.000  H
  H85      1.0000 0.79800  0.77200  0.17300  Biso   1.000  H
  H86      1.0000 0.20200  0.77200  0.32700  Biso   1.000  H
  H87      1.0000 0.29800  0.27200  0.17300  Biso   1.000  H
  H88      1.0000 0.70200  0.27200  0.32700  Biso   1.000  H
  C81      1.0000 0.24500  0.29380  0.00410  Biso   1.000  C
  C82      1.0000 0.75500  0.29380  0.49590  Biso   1.000  C
  C83      1.0000 0.74500  0.79380  0.00410  Biso   1.000  C
  C84      1.0000 0.25500  0.79380  0.49590  Biso   1.000  C
  C85      1.0000 0.75500  0.70620  0.99590  Biso   1.000  C
  C86      1.0000 0.24500  0.70620  0.50410  Biso   1.000  C
  C87      1.0000 0.25500  0.20620  0.99590  Biso   1.000  C
  C88      1.0000 0.74500  0.20620  0.50410  Biso   1.000  C
  H89      1.0000 0.28200  0.31900  0.94400  Biso   1.000  H
  H90      1.0000 0.71800  0.31900  0.55600  Biso   1.000  H
  H91      1.0000 0.78200  0.81900  0.94400  Biso   1.000  H
  H92      1.0000 0.21800  0.81900  0.55600  Biso   1.000  H
  H93      1.0000 0.71800  0.68100  0.05600  Biso   1.000  H
  H94      1.0000 0.28200  0.68100  0.44400  Biso   1.000  H
  H95      1.0000 0.21800  0.18100  0.05600  Biso   1.000  H
  H96      1.0000 0.78200  0.18100  0.44400  Biso   1.000  H
  H97      1.0000 0.27200  0.31100  0.87900  Biso   1.000  H
  H98      1.0000 0.72800  0.31100  0.62100  Biso   1.000  H
  H99      1.0000 0.77200  0.81100  0.87900  Biso   1.000  H
  H100     1.0000 0.22800  0.81100  0.62100  Biso   1.000  H
  H101     1.0000 0.72800  0.68900  0.12100  Biso   1.000  H
  H102     1.0000 0.27200  0.68900  0.37900  Biso   1.000  H
  H103     1.0000 0.22800  0.18900  0.12100  Biso   1.000  H
  H104     1.0000 0.77200  0.18900  0.37900  Biso   1.000  H
