data_image0
_cell_length_a       6.724
_cell_length_b       8.721
_cell_length_c       18.692
_cell_angle_alpha    90
_cell_angle_beta     90
_cell_angle_gamma    90

_symmetry_space_group_name_H-M    "P 1"
_symmetry_int_tables_number       1

loop_
  _symmetry_equiv_pos_as_xyz
  'x, y, z'

loop_
  _atom_site_label
  _atom_site_occupancy
  _atom_site_fract_x
  _atom_site_fract_y
  _atom_site_fract_z
  _atom_site_thermal_displace_type
  _atom_site_B_iso_or_equiv
  _atom_site_type_symbol
  Cu1      1.0000 0.07510  0.36800  0.91410  Biso   1.000  Cu
  Cu2      1.0000 0.42490  0.63200  0.41410  Biso   1.000  Cu
  Cu3      1.0000 0.57510  0.13200  0.08590  Biso   1.000  Cu
  Cu4      1.0000 0.92490  0.86800  0.58590  Biso   1.000  Cu
  O1       1.0000 0.18050  0.15510  0.92000  Biso   1.000  O
  O2       1.0000 0.31950  0.84490  0.42000  Biso   1.000  O
  O3       1.0000 0.68050  0.34490  0.08000  Biso   1.000  O
  O4       1.0000 0.81950  0.65510  0.58000  Biso   1.000  O
  O5       1.0000 0.91670  0.55470  0.90460  Biso   1.000  O
  O6       1.0000 0.58330  0.44530  0.40460  Biso   1.000  O
  O7       1.0000 0.41670  0.94530  0.09540  Biso   1.000  O
  O8       1.0000 0.08330  0.05470  0.59540  Biso   1.000  O
  O9       1.0000 0.91290  0.30920  0.99750  Biso   1.000  O
  O10      1.0000 0.58710  0.69080  0.49750  Biso   1.000  O
  O11      1.0000 0.41290  0.19080  0.00250  Biso   1.000  O
  O12      1.0000 0.08710  0.80920  0.50250  Biso   1.000  O
  O13      1.0000 0.77730  0.76440  0.94450  Biso   1.000  O
  O14      1.0000 0.72270  0.23560  0.44450  Biso   1.000  O
  O15      1.0000 0.27730  0.73560  0.05550  Biso   1.000  O
  O16      1.0000 0.22270  0.26440  0.55550  Biso   1.000  O
  O17      1.0000 0.33330  0.48940  0.96600  Biso   1.000  O
  O18      1.0000 0.16670  0.51060  0.46600  Biso   1.000  O
  O19      1.0000 0.83330  0.01060  0.03400  Biso   1.000  O
  O20      1.0000 0.66670  0.98940  0.53400  Biso   1.000  O
  N1       1.0000 0.17500  0.39300  0.81530  Biso   1.000  N
  N2       1.0000 0.32500  0.60700  0.31530  Biso   1.000  N
  N3       1.0000 0.67500  0.10700  0.18470  Biso   1.000  N
  N4       1.0000 0.82500  0.89300  0.68470  Biso   1.000  N
  N5       1.0000 0.19460  0.35140  0.69930  Biso   1.000  N
  N6       1.0000 0.30540  0.64860  0.19930  Biso   1.000  N
  N7       1.0000 0.69460  0.14860  0.30070  Biso   1.000  N
  N8       1.0000 0.80540  0.85140  0.80070  Biso   1.000  N
  C1       1.0000 0.15580  0.29250  0.76310  Biso   1.000  C
  C2       1.0000 0.34420  0.70750  0.26310  Biso   1.000  C
  C3       1.0000 0.65580  0.20750  0.23690  Biso   1.000  C
  C4       1.0000 0.84420  0.79250  0.73690  Biso   1.000  C
  C5       1.0000 0.24330  0.50330  0.70800  Biso   1.000  C
  C6       1.0000 0.25670  0.49670  0.20800  Biso   1.000  C
  C7       1.0000 0.74330  0.99670  0.29200  Biso   1.000  C
  C8       1.0000 0.75670  0.00330  0.79200  Biso   1.000  C
  C9       1.0000 0.29470  0.61890  0.65990  Biso   1.000  C
  C10      1.0000 0.20530  0.38110  0.15990  Biso   1.000  C
  C11      1.0000 0.79470  0.88110  0.34010  Biso   1.000  C
  C12      1.0000 0.70530  0.11890  0.84010  Biso   1.000  C
  C13      1.0000 0.33670  0.76170  0.68770  Biso   1.000  C
  C14      1.0000 0.16330  0.23830  0.18770  Biso   1.000  C
  C15      1.0000 0.83670  0.73830  0.31230  Biso   1.000  C
  C16      1.0000 0.66330  0.26170  0.81230  Biso   1.000  C
  C17      1.0000 0.32750  0.78850  0.76290  Biso   1.000  C
  C18      1.0000 0.17250  0.21150  0.26290  Biso   1.000  C
  C19      1.0000 0.82750  0.71150  0.23710  Biso   1.000  C
  C20      1.0000 0.67250  0.28850  0.73710  Biso   1.000  C
  C21      1.0000 0.27660  0.67390  0.80940  Biso   1.000  C
  C22      1.0000 0.22340  0.32610  0.30940  Biso   1.000  C
  C23      1.0000 0.77660  0.82610  0.19060  Biso   1.000  C
  C24      1.0000 0.72340  0.17390  0.69060  Biso   1.000  C
  C25      1.0000 0.23130  0.52920  0.78180  Biso   1.000  C
  C26      1.0000 0.26870  0.47080  0.28180  Biso   1.000  C
  C27      1.0000 0.73130  0.97080  0.21820  Biso   1.000  C
  C28      1.0000 0.76870  0.02920  0.71820  Biso   1.000  C
  C29      1.0000 0.80480  0.39310  0.03530  Biso   1.000  C
  C30      1.0000 0.69520  0.60690  0.53530  Biso   1.000  C
  C31      1.0000 0.30480  0.10690  0.96470  Biso   1.000  C
  C32      1.0000 0.19520  0.89310  0.46470  Biso   1.000  C
  C33      1.0000 0.82320  0.56740  0.02990  Biso   1.000  C
  C34      1.0000 0.67680  0.43260  0.52990  Biso   1.000  C
  C35      1.0000 0.32320  0.93260  0.97010  Biso   1.000  C
  C36      1.0000 0.17680  0.06740  0.47010  Biso   1.000  C
  C37      1.0000 0.84000  0.63100  0.95390  Biso   1.000  C
  C38      1.0000 0.66000  0.36900  0.45390  Biso   1.000  C
  C39      1.0000 0.34000  0.86900  0.04610  Biso   1.000  C
  C40      1.0000 0.16000  0.13100  0.54610  Biso   1.000  C
  H1       1.0000 0.11900  0.19000  0.77000  Biso   1.000  H
  H2       1.0000 0.38100  0.81000  0.27000  Biso   1.000  H
  H3       1.0000 0.61900  0.31000  0.23000  Biso   1.000  H
  H4       1.0000 0.88100  0.69000  0.73000  Biso   1.000  H
  H5       1.0000 0.19000  0.30300  0.65900  Biso   1.000  H
  H6       1.0000 0.31000  0.69700  0.15900  Biso   1.000  H
  H7       1.0000 0.69000  0.19700  0.34100  Biso   1.000  H
  H8       1.0000 0.81000  0.80300  0.84100  Biso   1.000  H
  H9       1.0000 0.30100  0.60000  0.61100  Biso   1.000  H
  H10      1.0000 0.19900  0.40000  0.11100  Biso   1.000  H
  H11      1.0000 0.80100  0.90000  0.38900  Biso   1.000  H
  H12      1.0000 0.69900  0.10000  0.88900  Biso   1.000  H
  H13      1.0000 0.37100  0.84100  0.65700  Biso   1.000  H
  H14      1.0000 0.12900  0.15900  0.15700  Biso   1.000  H
  H15      1.0000 0.87100  0.65900  0.34300  Biso   1.000  H
  H16      1.0000 0.62900  0.34100  0.84300  Biso   1.000  H
  H17      1.0000 0.35700  0.88600  0.78100  Biso   1.000  H
  H18      1.0000 0.14300  0.11400  0.28100  Biso   1.000  H
  H19      1.0000 0.85700  0.61400  0.21900  Biso   1.000  H
  H20      1.0000 0.64300  0.38600  0.71900  Biso   1.000  H
  H21      1.0000 0.27200  0.69200  0.85800  Biso   1.000  H
  H22      1.0000 0.22800  0.30800  0.35800  Biso   1.000  H
  H23      1.0000 0.77200  0.80800  0.14200  Biso   1.000  H
  H24      1.0000 0.72800  0.19200  0.64200  Biso   1.000  H
  H25      1.0000 0.94000  0.59900  0.05700  Biso   1.000  H
  H26      1.0000 0.56000  0.40100  0.55700  Biso   1.000  H
  H27      1.0000 0.44000  0.90100  0.94300  Biso   1.000  H
  H28      1.0000 0.06000  0.09900  0.44300  Biso   1.000  H
  H29      1.0000 0.70800  0.61300  0.05300  Biso   1.000  H
  H30      1.0000 0.79200  0.38700  0.55300  Biso   1.000  H
  H31      1.0000 0.20800  0.88700  0.94700  Biso   1.000  H
  H32      1.0000 0.29200  0.11300  0.44700  Biso   1.000  H
  H33      1.0000 0.31900  0.56200  0.00200  Biso   1.000  H
  H34      1.0000 0.18100  0.43800  0.50200  Biso   1.000  H
  H35      1.0000 0.81900  0.93800  0.99800  Biso   1.000  H
  H36      1.0000 0.68100  0.06200  0.49800  Biso   1.000  H
  H37      1.0000 0.44500  0.42700  0.97900  Biso   1.000  H
  H38      1.0000 0.05500  0.57300  0.47900  Biso   1.000  H
  H39      1.0000 0.94500  0.07300  0.02100  Biso   1.000  H
  H40      1.0000 0.55500  0.92700  0.52100  Biso   1.000  H
