data_image0
_cell_length_a       12.068
_cell_length_b       10.518
_cell_length_c       7.718
_cell_angle_alpha    90
_cell_angle_beta     127.16
_cell_angle_gamma    90

_symmetry_space_group_name_H-M    "P 1"
_symmetry_int_tables_number       1

loop_
  _symmetry_equiv_pos_as_xyz
  'x, y, z'

loop_
  _atom_site_label
  _atom_site_occupancy
  _atom_site_fract_x
  _atom_site_fract_y
  _atom_site_fract_z
  _atom_site_thermal_displace_type
  _atom_site_B_iso_or_equiv
  _atom_site_type_symbol
  Cu1      1.0000 0.00000  0.16595  0.25000  Biso   1.000  Cu
  Cu2      1.0000 0.50000  0.66595  0.25000  Biso   1.000  Cu
  Cu3      1.0000 0.00000  0.83405  0.75000  Biso   1.000  Cu
  Cu4      1.0000 0.50000  0.33405  0.75000  Biso   1.000  Cu
  O1       1.0000 0.16780  0.19700  0.25520  Biso   1.000  O
  O2       1.0000 0.83220  0.19700  0.24480  Biso   1.000  O
  O3       1.0000 0.66780  0.69700  0.25520  Biso   1.000  O
  O4       1.0000 0.33220  0.69700  0.24480  Biso   1.000  O
  O5       1.0000 0.83220  0.80300  0.74480  Biso   1.000  O
  O6       1.0000 0.16780  0.80300  0.75520  Biso   1.000  O
  O7       1.0000 0.33220  0.30300  0.74480  Biso   1.000  O
  O8       1.0000 0.66780  0.30300  0.75520  Biso   1.000  O
  O9       1.0000 0.31620  0.35410  0.32510  Biso   1.000  O
  O10      1.0000 0.68380  0.35410  0.17490  Biso   1.000  O
  O11      1.0000 0.81620  0.85410  0.32510  Biso   1.000  O
  O12      1.0000 0.18380  0.85410  0.17490  Biso   1.000  O
  O13      1.0000 0.68380  0.64590  0.67490  Biso   1.000  O
  O14      1.0000 0.31620  0.64590  0.82510  Biso   1.000  O
  O15      1.0000 0.18380  0.14590  0.67490  Biso   1.000  O
  O16      1.0000 0.81620  0.14590  0.82510  Biso   1.000  O
  N1       1.0000 0.00000  0.34590  0.25000  Biso   1.000  N
  N2       1.0000 0.50000  0.84590  0.25000  Biso   1.000  N
  N3       1.0000 0.00000  0.65410  0.75000  Biso   1.000  N
  N4       1.0000 0.50000  0.15410  0.75000  Biso   1.000  N
  C1       1.0000 0.20530  0.31520  0.28100  Biso   1.000  C
  C2       1.0000 0.79470  0.31520  0.21900  Biso   1.000  C
  C3       1.0000 0.70530  0.81520  0.28100  Biso   1.000  C
  C4       1.0000 0.29470  0.81520  0.21900  Biso   1.000  C
  C5       1.0000 0.79470  0.68480  0.71900  Biso   1.000  C
  C6       1.0000 0.20530  0.68480  0.78100  Biso   1.000  C
  C7       1.0000 0.29470  0.18480  0.71900  Biso   1.000  C
  C8       1.0000 0.70530  0.18480  0.78100  Biso   1.000  C
  C9       1.0000 0.10290  0.40620  0.26700  Biso   1.000  C
  C10      1.0000 0.89710  0.40620  0.23300  Biso   1.000  C
  C11      1.0000 0.60290  0.90620  0.26700  Biso   1.000  C
  C12      1.0000 0.39710  0.90620  0.23300  Biso   1.000  C
  C13      1.0000 0.89710  0.59380  0.73300  Biso   1.000  C
  C14      1.0000 0.10290  0.59380  0.76700  Biso   1.000  C
  C15      1.0000 0.39710  0.09380  0.73300  Biso   1.000  C
  C16      1.0000 0.60290  0.09380  0.76700  Biso   1.000  C
  C17      1.0000 0.10870  0.53840  0.27400  Biso   1.000  C
  C18      1.0000 0.89130  0.53840  0.22600  Biso   1.000  C
  C19      1.0000 0.60870  0.03840  0.27400  Biso   1.000  C
  C20      1.0000 0.39130  0.03840  0.22600  Biso   1.000  C
  C21      1.0000 0.89130  0.46160  0.72600  Biso   1.000  C
  C22      1.0000 0.10870  0.46160  0.77400  Biso   1.000  C
  C23      1.0000 0.39130  0.96160  0.72600  Biso   1.000  C
  C24      1.0000 0.60870  0.96160  0.77400  Biso   1.000  C
  H1       1.0000 0.18450  0.58240  0.29410  Biso   1.000  H
  H2       1.0000 0.81550  0.58240  0.20590  Biso   1.000  H
  H3       1.0000 0.68450  0.08240  0.29410  Biso   1.000  H
  H4       1.0000 0.31550  0.08240  0.20590  Biso   1.000  H
  H5       1.0000 0.81550  0.41760  0.70590  Biso   1.000  H
  H6       1.0000 0.18450  0.41760  0.79410  Biso   1.000  H
  H7       1.0000 0.31550  0.91760  0.70590  Biso   1.000  H
  H8       1.0000 0.68450  0.91760  0.79410  Biso   1.000  H
  C25      1.0000 0.00000  0.60460  0.25000  Biso   1.000  C
  C26      1.0000 0.50000  0.10460  0.25000  Biso   1.000  C
  C27      1.0000 0.00000  0.39540  0.75000  Biso   1.000  C
  C28      1.0000 0.50000  0.89540  0.75000  Biso   1.000  C
  H9       1.0000 0.00000  0.69490  0.25000  Biso   1.000  H
  H10      1.0000 0.50000  0.19490  0.25000  Biso   1.000  H
  H11      1.0000 0.00000  0.30510  0.75000  Biso   1.000  H
  H12      1.0000 0.50000  0.80510  0.75000  Biso   1.000  H
  O17      1.0000 0.00000  0.98030  0.25000  Biso   1.000  O
  O18      1.0000 0.50000  0.48030  0.25000  Biso   1.000  O
  O19      1.0000 0.00000  0.01970  0.75000  Biso   1.000  O
  O20      1.0000 0.50000  0.51970  0.75000  Biso   1.000  O
  H13      1.0000 0.93210  0.93960  0.14590  Biso   1.000  H
  H14      1.0000 0.06790  0.93960  0.35410  Biso   1.000  H
  H15      1.0000 0.43210  0.43960  0.14590  Biso   1.000  H
  H16      1.0000 0.56790  0.43960  0.35410  Biso   1.000  H
  H17      1.0000 0.06790  0.06040  0.85410  Biso   1.000  H
  H18      1.0000 0.93210  0.06040  0.64590  Biso   1.000  H
  H19      1.0000 0.56790  0.56040  0.85410  Biso   1.000  H
  H20      1.0000 0.43210  0.56040  0.64590  Biso   1.000  H
