data_image0
_cell_length_a       20.199
_cell_length_b       8.541
_cell_length_c       14.768
_cell_angle_alpha    90
_cell_angle_beta     110.96
_cell_angle_gamma    90

_symmetry_space_group_name_H-M    "P 1"
_symmetry_int_tables_number       1

loop_
  _symmetry_equiv_pos_as_xyz
  'x, y, z'

loop_
  _atom_site_label
  _atom_site_occupancy
  _atom_site_fract_x
  _atom_site_fract_y
  _atom_site_fract_z
  _atom_site_thermal_displace_type
  _atom_site_B_iso_or_equiv
  _atom_site_type_symbol
  K1       1.0000 0.64403  0.46114  0.48163  Biso   1.000  K
  K2       1.0000 0.64403  0.53886  0.98163  Biso   1.000  K
  K3       1.0000 0.14403  0.96114  0.48163  Biso   1.000  K
  K4       1.0000 0.14403  0.03886  0.98163  Biso   1.000  K
  K5       1.0000 0.46202  0.56642  0.55363  Biso   1.000  K
  K6       1.0000 0.46202  0.43358  0.05363  Biso   1.000  K
  K7       1.0000 0.96202  0.06642  0.55363  Biso   1.000  K
  K8       1.0000 0.96202  0.93358  0.05363  Biso   1.000  K
  Cu1      1.0000 0.59033  0.98345  0.55668  Biso   1.000  Cu
  Cu2      1.0000 0.59033  0.01655  0.05668  Biso   1.000  Cu
  Cu3      1.0000 0.09033  0.48345  0.55668  Biso   1.000  Cu
  Cu4      1.0000 0.09033  0.51655  0.05668  Biso   1.000  Cu
  N1       1.0000 0.52260  0.98750  0.42640  Biso   1.000  N
  N2       1.0000 0.52260  0.01250  0.92640  Biso   1.000  N
  N3       1.0000 0.02260  0.48750  0.42640  Biso   1.000  N
  N4       1.0000 0.02260  0.51250  0.92640  Biso   1.000  N
  O1       1.0000 0.52198  0.16040  0.56760  Biso   1.000  O
  O2       1.0000 0.52198  0.83960  0.06760  Biso   1.000  O
  O3       1.0000 0.02198  0.66040  0.56760  Biso   1.000  O
  O4       1.0000 0.02198  0.33960  0.06760  Biso   1.000  O
  O5       1.0000 0.41570  0.26920  0.48330  Biso   1.000  O
  O6       1.0000 0.41570  0.73080  0.98330  Biso   1.000  O
  O7       1.0000 0.91570  0.76920  0.48330  Biso   1.000  O
  O8       1.0000 0.91570  0.23080  0.98330  Biso   1.000  O
  O9       1.0000 0.63095  0.80330  0.49530  Biso   1.000  O
  O10      1.0000 0.63095  0.19670  0.99530  Biso   1.000  O
  O11      1.0000 0.13095  0.30330  0.49530  Biso   1.000  O
  O12      1.0000 0.13095  0.69670  0.99530  Biso   1.000  O
  O13      1.0000 0.61425  0.69510  0.34870  Biso   1.000  O
  O14      1.0000 0.61425  0.30490  0.84870  Biso   1.000  O
  O15      1.0000 0.11425  0.19510  0.34870  Biso   1.000  O
  O16      1.0000 0.11425  0.80490  0.84870  Biso   1.000  O
  C1       1.0000 0.46620  0.18100  0.49010  Biso   1.000  C
  C2       1.0000 0.46620  0.81900  0.99010  Biso   1.000  C
  C3       1.0000 0.96620  0.68100  0.49010  Biso   1.000  C
  C4       1.0000 0.96620  0.31900  0.99010  Biso   1.000  C
  C5       1.0000 0.46750  0.08790  0.40350  Biso   1.000  C
  C6       1.0000 0.46750  0.91210  0.90350  Biso   1.000  C
  C7       1.0000 0.96750  0.58790  0.40350  Biso   1.000  C
  C8       1.0000 0.96750  0.41210  0.90350  Biso   1.000  C
  C9       1.0000 0.42150  0.10220  0.30740  Biso   1.000  C
  C10      1.0000 0.42150  0.89780  0.80740  Biso   1.000  C
  C11      1.0000 0.92150  0.60220  0.30740  Biso   1.000  C
  C12      1.0000 0.92150  0.39780  0.80740  Biso   1.000  C
  H1       1.0000 0.38270  0.17320  0.29030  Biso   1.000  H
  H2       1.0000 0.38270  0.82680  0.79030  Biso   1.000  H
  H3       1.0000 0.88270  0.67320  0.29030  Biso   1.000  H
  H4       1.0000 0.88270  0.32680  0.79030  Biso   1.000  H
  C13      1.0000 0.43370  0.00990  0.23730  Biso   1.000  C
  C14      1.0000 0.43370  0.99010  0.73730  Biso   1.000  C
  C15      1.0000 0.93370  0.50990  0.23730  Biso   1.000  C
  C16      1.0000 0.93370  0.49010  0.73730  Biso   1.000  C
  H5       1.0000 0.40670  0.01770  0.17910  Biso   1.000  H
  H6       1.0000 0.40670  0.98230  0.67910  Biso   1.000  H
  H7       1.0000 0.90670  0.51770  0.17910  Biso   1.000  H
  H8       1.0000 0.90670  0.48230  0.67910  Biso   1.000  H
  C17      1.0000 0.49050  0.90380  0.26280  Biso   1.000  C
  C18      1.0000 0.49050  0.09620  0.76280  Biso   1.000  C
  C19      1.0000 0.99050  0.40380  0.26280  Biso   1.000  C
  C20      1.0000 0.99050  0.59620  0.76280  Biso   1.000  C
  H9       1.0000 0.49790  0.84730  0.22080  Biso   1.000  H
  H10      1.0000 0.49790  0.15270  0.72080  Biso   1.000  H
  H11      1.0000 0.99790  0.34730  0.22080  Biso   1.000  H
  H12      1.0000 0.99790  0.65270  0.72080  Biso   1.000  H
  C21      1.0000 0.53450  0.89520  0.36040  Biso   1.000  C
  C22      1.0000 0.53450  0.10480  0.86040  Biso   1.000  C
  C23      1.0000 0.03450  0.39520  0.36040  Biso   1.000  C
  C24      1.0000 0.03450  0.60480  0.86040  Biso   1.000  C
  C25      1.0000 0.59840  0.78850  0.40260  Biso   1.000  C
  C26      1.0000 0.59840  0.21150  0.90260  Biso   1.000  C
  C27      1.0000 0.09840  0.28850  0.40260  Biso   1.000  C
  C28      1.0000 0.09840  0.71150  0.90260  Biso   1.000  C
  N5       1.0000 0.65800  0.00180  0.69250  Biso   1.000  N
  N6       1.0000 0.65800  0.99820  0.19250  Biso   1.000  N
  N7       1.0000 0.15800  0.50180  0.69250  Biso   1.000  N
  N8       1.0000 0.15800  0.49820  0.19250  Biso   1.000  N
  O17      1.0000 0.54650  0.80660  0.64360  Biso   1.000  O
  O18      1.0000 0.54650  0.19340  0.14360  Biso   1.000  O
  O19      1.0000 0.04650  0.30660  0.64360  Biso   1.000  O
  O20      1.0000 0.04650  0.69340  0.14360  Biso   1.000  O
  O21      1.0000 0.57670  0.71980  0.79640  Biso   1.000  O
  O22      1.0000 0.57670  0.28020  0.29640  Biso   1.000  O
  O23      1.0000 0.07670  0.21980  0.79640  Biso   1.000  O
  O24      1.0000 0.07670  0.78020  0.29640  Biso   1.000  O
  O25      1.0000 0.67370  0.16520  0.54890  Biso   1.000  O
  O26      1.0000 0.67370  0.83480  0.04890  Biso   1.000  O
  O27      1.0000 0.17370  0.66520  0.54890  Biso   1.000  O
  O28      1.0000 0.17370  0.33480  0.04890  Biso   1.000  O
  O29      1.0000 0.77909  0.26410  0.64530  Biso   1.000  O
  O30      1.0000 0.77909  0.73590  0.14530  Biso   1.000  O
  O31      1.0000 0.27909  0.76410  0.64530  Biso   1.000  O
  O32      1.0000 0.27909  0.23590  0.14530  Biso   1.000  O
  C29      1.0000 0.58440  0.80560  0.73050  Biso   1.000  C
  C30      1.0000 0.58440  0.19440  0.23050  Biso   1.000  C
  C31      1.0000 0.08440  0.30560  0.73050  Biso   1.000  C
  C32      1.0000 0.08440  0.69440  0.23050  Biso   1.000  C
  C33      1.0000 0.64680  0.91970  0.76380  Biso   1.000  C
  C34      1.0000 0.64680  0.08030  0.26380  Biso   1.000  C
  C35      1.0000 0.14680  0.41970  0.76380  Biso   1.000  C
  C36      1.0000 0.14680  0.58030  0.26380  Biso   1.000  C
  C37      1.0000 0.68740  0.94300  0.86110  Biso   1.000  C
  C38      1.0000 0.68740  0.05700  0.36110  Biso   1.000  C
  C39      1.0000 0.18740  0.44300  0.86110  Biso   1.000  C
  C40      1.0000 0.18740  0.55700  0.36110  Biso   1.000  C
  H13      1.0000 0.67780  0.88610  0.91030  Biso   1.000  H
  H14      1.0000 0.67780  0.11390  0.41030  Biso   1.000  H
  H15      1.0000 0.17780  0.38610  0.91030  Biso   1.000  H
  H16      1.0000 0.17780  0.61390  0.41030  Biso   1.000  H
  C41      1.0000 0.74300  0.05190  0.88530  Biso   1.000  C
  C42      1.0000 0.74300  0.94810  0.38530  Biso   1.000  C
  C43      1.0000 0.24300  0.55190  0.88530  Biso   1.000  C
  C44      1.0000 0.24300  0.44810  0.38530  Biso   1.000  C
  H17      1.0000 0.77140  0.07030  0.95120  Biso   1.000  H
  H18      1.0000 0.77140  0.92970  0.45120  Biso   1.000  H
  H19      1.0000 0.27140  0.57030  0.95120  Biso   1.000  H
  H20      1.0000 0.27140  0.42970  0.45120  Biso   1.000  H
  C45      1.0000 0.75620  0.13300  0.81120  Biso   1.000  C
  C46      1.0000 0.75620  0.86700  0.31120  Biso   1.000  C
  C47      1.0000 0.25620  0.63300  0.81120  Biso   1.000  C
  C48      1.0000 0.25620  0.36700  0.31120  Biso   1.000  C
  H21      1.0000 0.79390  0.20650  0.82580  Biso   1.000  H
  H22      1.0000 0.79390  0.79350  0.32580  Biso   1.000  H
  H23      1.0000 0.29390  0.70650  0.82580  Biso   1.000  H
  H24      1.0000 0.29390  0.29350  0.32580  Biso   1.000  H
  C49      1.0000 0.71290  0.10410  0.71580  Biso   1.000  C
  C50      1.0000 0.71290  0.89590  0.21580  Biso   1.000  C
  C51      1.0000 0.21290  0.60410  0.71580  Biso   1.000  C
  C52      1.0000 0.21290  0.39590  0.21580  Biso   1.000  C
  C53      1.0000 0.72250  0.18450  0.62900  Biso   1.000  C
  C54      1.0000 0.72250  0.81550  0.12900  Biso   1.000  C
  C55      1.0000 0.22250  0.68450  0.62900  Biso   1.000  C
  C56      1.0000 0.22250  0.31550  0.12900  Biso   1.000  C
  N9       1.0000 0.38005  0.67900  0.36570  Biso   1.000  N
  N10      1.0000 0.38005  0.32100  0.86570  Biso   1.000  N
  N11      1.0000 0.88005  0.17900  0.36570  Biso   1.000  N
  N12      1.0000 0.88005  0.82100  0.86570  Biso   1.000  N
  O33      1.0000 0.50022  0.50500  0.40080  Biso   1.000  O
  O34      1.0000 0.50022  0.49500  0.90080  Biso   1.000  O
  O35      1.0000 0.00022  0.00500  0.40080  Biso   1.000  O
  O36      1.0000 0.00022  0.99500  0.90080  Biso   1.000  O
  O37      1.0000 0.46878  0.44860  0.24250  Biso   1.000  O
  O38      1.0000 0.46878  0.55140  0.74250  Biso   1.000  O
  O39      1.0000 0.96878  0.94860  0.24250  Biso   1.000  O
  O40      1.0000 0.96878  0.05140  0.74250  Biso   1.000  O
  H25      1.0000 0.50630  0.39560  0.26190  Biso   1.000  H
  H26      1.0000 0.50630  0.60440  0.76190  Biso   1.000  H
  H27      1.0000 0.00630  0.89560  0.26190  Biso   1.000  H
  H28      1.0000 0.00630  0.10440  0.76190  Biso   1.000  H
  O41      1.0000 0.33644  0.75250  0.51390  Biso   1.000  O
  O42      1.0000 0.33644  0.24750  0.01390  Biso   1.000  O
  O43      1.0000 0.83644  0.25250  0.51390  Biso   1.000  O
  O44      1.0000 0.83644  0.74750  0.01390  Biso   1.000  O
  H29      1.0000 0.32310  0.78800  0.55750  Biso   1.000  H
  H30      1.0000 0.32310  0.21200  0.05750  Biso   1.000  H
  H31      1.0000 0.82310  0.28800  0.55750  Biso   1.000  H
  H32      1.0000 0.82310  0.71200  0.05750  Biso   1.000  H
  O45      1.0000 0.25676  0.92630  0.42070  Biso   1.000  O
  O46      1.0000 0.25676  0.07370  0.92070  Biso   1.000  O
  O47      1.0000 0.75676  0.42630  0.42070  Biso   1.000  O
  O48      1.0000 0.75676  0.57370  0.92070  Biso   1.000  O
  C57      1.0000 0.46000  0.51790  0.31660  Biso   1.000  C
  C58      1.0000 0.46000  0.48210  0.81660  Biso   1.000  C
  C59      1.0000 0.96000  0.01790  0.31660  Biso   1.000  C
  C60      1.0000 0.96000  0.98210  0.81660  Biso   1.000  C
  C61      1.0000 0.39320  0.61810  0.29020  Biso   1.000  C
  C62      1.0000 0.39320  0.38190  0.79020  Biso   1.000  C
  C63      1.0000 0.89320  0.11810  0.29020  Biso   1.000  C
  C64      1.0000 0.89320  0.88190  0.79020  Biso   1.000  C
  C65      1.0000 0.35020  0.64540  0.19320  Biso   1.000  C
  C66      1.0000 0.35020  0.35460  0.69320  Biso   1.000  C
  C67      1.0000 0.85020  0.14540  0.19320  Biso   1.000  C
  C68      1.0000 0.85020  0.85460  0.69320  Biso   1.000  C
  H33      1.0000 0.36050  0.59740  0.14180  Biso   1.000  H
  H34      1.0000 0.36050  0.40260  0.64180  Biso   1.000  H
  H35      1.0000 0.86050  0.09740  0.14180  Biso   1.000  H
  H36      1.0000 0.86050  0.90260  0.64180  Biso   1.000  H
  C69      1.0000 0.29170  0.74480  0.17390  Biso   1.000  C
  C70      1.0000 0.29170  0.25520  0.67390  Biso   1.000  C
  C71      1.0000 0.79170  0.24480  0.17390  Biso   1.000  C
  C72      1.0000 0.79170  0.75520  0.67390  Biso   1.000  C
  H37      1.0000 0.26180  0.76710  0.10910  Biso   1.000  H
  H38      1.0000 0.26180  0.23290  0.60910  Biso   1.000  H
  H39      1.0000 0.76180  0.26710  0.10910  Biso   1.000  H
  H40      1.0000 0.76180  0.73290  0.60910  Biso   1.000  H
  C73      1.0000 0.27820  0.81070  0.25270  Biso   1.000  C
  C74      1.0000 0.27820  0.18930  0.75270  Biso   1.000  C
  C75      1.0000 0.77820  0.31070  0.25270  Biso   1.000  C
  C76      1.0000 0.77820  0.68930  0.75270  Biso   1.000  C
  H41      1.0000 0.23960  0.88040  0.24230  Biso   1.000  H
  H42      1.0000 0.23960  0.11960  0.74230  Biso   1.000  H
  H43      1.0000 0.73960  0.38040  0.24230  Biso   1.000  H
  H44      1.0000 0.73960  0.61960  0.74230  Biso   1.000  H
  C77      1.0000 0.32260  0.77190  0.34630  Biso   1.000  C
  C78      1.0000 0.32260  0.22810  0.84630  Biso   1.000  C
  C79      1.0000 0.82260  0.27190  0.34630  Biso   1.000  C
  C80      1.0000 0.82260  0.72810  0.84630  Biso   1.000  C
  C81      1.0000 0.30240  0.82710  0.43060  Biso   1.000  C
  C82      1.0000 0.30240  0.17290  0.93060  Biso   1.000  C
  C83      1.0000 0.80240  0.32710  0.43060  Biso   1.000  C
  C84      1.0000 0.80240  0.67290  0.93060  Biso   1.000  C
  O49      1.0000 0.60226  0.42520  0.65340  Biso   1.000  O
  O50      1.0000 0.60226  0.57480  0.15340  Biso   1.000  O
  O51      1.0000 0.10226  0.92520  0.65340  Biso   1.000  O
  O52      1.0000 0.10226  0.07480  0.15340  Biso   1.000  O
  H45      1.0000 0.61380  0.43090  0.71420  Biso   1.000  H
  H46      1.0000 0.61380  0.56910  0.21420  Biso   1.000  H
  H47      1.0000 0.11380  0.93090  0.71420  Biso   1.000  H
  H48      1.0000 0.11380  0.06910  0.21420  Biso   1.000  H
  H49      1.0000 0.57670  0.35030  0.62250  Biso   1.000  H
  H50      1.0000 0.57670  0.64970  0.12250  Biso   1.000  H
  H51      1.0000 0.07670  0.85030  0.62250  Biso   1.000  H
  H52      1.0000 0.07670  0.14970  0.12250  Biso   1.000  H
