data_image0
_cell_length_a       8.0135
_cell_length_b       10.656
_cell_length_c       14.5494
_cell_angle_alpha    90
_cell_angle_beta     93.145
_cell_angle_gamma    90

_symmetry_space_group_name_H-M    "P 1"
_symmetry_int_tables_number       1

loop_
  _symmetry_equiv_pos_as_xyz
  'x, y, z'

loop_
  _atom_site_label
  _atom_site_occupancy
  _atom_site_fract_x
  _atom_site_fract_y
  _atom_site_fract_z
  _atom_site_thermal_displace_type
  _atom_site_B_iso_or_equiv
  _atom_site_type_symbol
  C1       1.0000 0.32150  0.08240  0.36595  Biso   1.000  C
  C2       1.0000 0.67850  0.58240  0.13405  Biso   1.000  C
  C3       1.0000 0.67850  0.91760  0.63405  Biso   1.000  C
  C4       1.0000 0.32150  0.41760  0.86595  Biso   1.000  C
  C5       1.0000 0.22430  0.14680  0.28875  Biso   1.000  C
  C6       1.0000 0.77570  0.64680  0.21125  Biso   1.000  C
  C7       1.0000 0.77570  0.85320  0.71125  Biso   1.000  C
  C8       1.0000 0.22430  0.35320  0.78875  Biso   1.000  C
  C9       1.0000 0.30770  0.22980  0.23410  Biso   1.000  C
  C10      1.0000 0.69230  0.72980  0.26590  Biso   1.000  C
  C11      1.0000 0.69230  0.77020  0.76590  Biso   1.000  C
  C12      1.0000 0.30770  0.27020  0.73410  Biso   1.000  C
  H1       1.0000 0.42260  0.24010  0.24350  Biso   1.000  H
  H2       1.0000 0.57740  0.74010  0.25650  Biso   1.000  H
  H3       1.0000 0.57740  0.75990  0.75650  Biso   1.000  H
  H4       1.0000 0.42260  0.25990  0.74350  Biso   1.000  H
  C13      1.0000 0.22120  0.29740  0.16558  Biso   1.000  C
  C14      1.0000 0.77880  0.79740  0.33442  Biso   1.000  C
  C15      1.0000 0.77880  0.70260  0.83442  Biso   1.000  C
  C16      1.0000 0.22120  0.20260  0.66558  Biso   1.000  C
  C17      1.0000 0.04990  0.28260  0.15155  Biso   1.000  C
  C18      1.0000 0.95010  0.78260  0.34845  Biso   1.000  C
  C19      1.0000 0.95010  0.71740  0.84845  Biso   1.000  C
  C20      1.0000 0.04990  0.21740  0.65155  Biso   1.000  C
  H5       1.0000 0.98990  0.33190  0.10860  Biso   1.000  H
  H6       1.0000 0.01010  0.83190  0.39140  Biso   1.000  H
  H7       1.0000 0.01010  0.66810  0.89140  Biso   1.000  H
  H8       1.0000 0.98990  0.16810  0.60860  Biso   1.000  H
  C21      1.0000 0.96880  0.19340  0.20233  Biso   1.000  C
  C22      1.0000 0.03120  0.69340  0.29767  Biso   1.000  C
  C23      1.0000 0.03120  0.80660  0.79767  Biso   1.000  C
  C24      1.0000 0.96880  0.30660  0.70233  Biso   1.000  C
  C25      1.0000 0.05410  0.12530  0.27134  Biso   1.000  C
  C26      1.0000 0.94590  0.62530  0.22866  Biso   1.000  C
  C27      1.0000 0.94590  0.87470  0.72866  Biso   1.000  C
  C28      1.0000 0.05410  0.37470  0.77134  Biso   1.000  C
  H9       1.0000 0.99840  0.06630  0.30540  Biso   1.000  H
  H10      1.0000 0.00160  0.56630  0.19460  Biso   1.000  H
  H11      1.0000 0.00160  0.93370  0.69460  Biso   1.000  H
  H12      1.0000 0.99840  0.43370  0.80540  Biso   1.000  H
  C29      1.0000 0.31620  0.38290  0.10567  Biso   1.000  C
  C30      1.0000 0.68380  0.88290  0.39433  Biso   1.000  C
  C31      1.0000 0.68380  0.61710  0.89433  Biso   1.000  C
  C32      1.0000 0.31620  0.11710  0.60567  Biso   1.000  C
  C33      1.0000 0.74880  0.13870  0.06341  Biso   1.000  C
  C34      1.0000 0.25120  0.63870  0.43659  Biso   1.000  C
  C35      1.0000 0.25120  0.86130  0.93659  Biso   1.000  C
  C36      1.0000 0.74880  0.36130  0.56341  Biso   1.000  C
  C37      1.0000 0.78350  0.90200  0.06930  Biso   1.000  C
  C38      1.0000 0.21650  0.40200  0.43070  Biso   1.000  C
  C39      1.0000 0.21650  0.09800  0.93070  Biso   1.000  C
  C40      1.0000 0.78350  0.59800  0.56930  Biso   1.000  C
  H13      1.0000 0.85720  0.90840  0.12340  Biso   1.000  H
  H14      1.0000 0.14280  0.40840  0.37660  Biso   1.000  H
  H15      1.0000 0.14280  0.09160  0.87660  Biso   1.000  H
  H16      1.0000 0.85720  0.59160  0.62340  Biso   1.000  H
  H17      1.0000 0.82860  0.84340  0.02710  Biso   1.000  H
  H18      1.0000 0.17140  0.34340  0.47290  Biso   1.000  H
  H19      1.0000 0.17140  0.15660  0.97290  Biso   1.000  H
  H20      1.0000 0.82860  0.65660  0.52710  Biso   1.000  H
  H21      1.0000 0.67580  0.87350  0.08620  Biso   1.000  H
  H22      1.0000 0.32420  0.37350  0.41380  Biso   1.000  H
  H23      1.0000 0.32420  0.12650  0.91380  Biso   1.000  H
  H24      1.0000 0.67580  0.62650  0.58620  Biso   1.000  H
  Cu1      1.0000 0.61301  0.09133  0.49578  Biso   1.000  Cu
  Cu2      1.0000 0.38699  0.59133  0.00422  Biso   1.000  Cu
  Cu3      1.0000 0.38699  0.90867  0.50422  Biso   1.000  Cu
  Cu4      1.0000 0.61301  0.40867  0.99578  Biso   1.000  Cu
  N1       1.0000 0.76640  0.02630  0.02493  Biso   1.000  N
  N2       1.0000 0.23360  0.52630  0.47507  Biso   1.000  N
  N3       1.0000 0.23360  0.97370  0.97507  Biso   1.000  N
  N4       1.0000 0.76640  0.47370  0.52493  Biso   1.000  N
  N5       1.0000 0.76280  0.03880  0.93280  Biso   1.000  N
  N6       1.0000 0.23720  0.53880  0.56720  Biso   1.000  N
  N7       1.0000 0.23720  0.96120  0.06720  Biso   1.000  N
  N8       1.0000 0.76280  0.46120  0.43280  Biso   1.000  N
  N9       1.0000 0.74210  0.15650  0.91575  Biso   1.000  N
  N10      1.0000 0.25790  0.65650  0.58425  Biso   1.000  N
  N11      1.0000 0.25790  0.84350  0.08425  Biso   1.000  N
  N12      1.0000 0.74210  0.34350  0.41575  Biso   1.000  N
  N13      1.0000 0.73280  0.22130  0.99542  Biso   1.000  N
  N14      1.0000 0.26720  0.72130  0.50458  Biso   1.000  N
  N15      1.0000 0.26720  0.77870  0.00458  Biso   1.000  N
  N16      1.0000 0.73280  0.27870  0.49542  Biso   1.000  N
  O1       1.0000 0.45850  0.13369  0.39108  Biso   1.000  O
  O2       1.0000 0.54150  0.63369  0.10892  Biso   1.000  O
  O3       1.0000 0.54150  0.86631  0.60892  Biso   1.000  O
  O4       1.0000 0.45850  0.36631  0.89108  Biso   1.000  O
  O5       1.0000 0.26099  0.98620  0.40020  Biso   1.000  O
  O6       1.0000 0.73901  0.48620  0.09980  Biso   1.000  O
  O7       1.0000 0.73901  0.01380  0.59980  Biso   1.000  O
  O8       1.0000 0.26099  0.51380  0.90020  Biso   1.000  O
  O9       1.0000 0.45120  0.33927  0.08014  Biso   1.000  O
  O10      1.0000 0.54880  0.83927  0.41986  Biso   1.000  O
  O11      1.0000 0.54880  0.66073  0.91986  Biso   1.000  O
  O12      1.0000 0.45120  0.16073  0.58014  Biso   1.000  O
  O13      1.0000 0.25460  0.48834  0.08512  Biso   1.000  O
  O14      1.0000 0.74540  0.98834  0.41488  Biso   1.000  O
  O15      1.0000 0.74540  0.51166  0.91488  Biso   1.000  O
  O16      1.0000 0.25460  0.01166  0.58512  Biso   1.000  O
  S1       1.0000 0.74904  0.16743  0.18162  Biso   1.000  S
  S2       1.0000 0.25096  0.66743  0.31838  Biso   1.000  S
  S3       1.0000 0.25096  0.83257  0.81838  Biso   1.000  S
  S4       1.0000 0.74904  0.33257  0.68162  Biso   1.000  S
