data_image0
_cell_length_a       10.578
_cell_length_b       11.603
_cell_length_c       8.027
_cell_angle_alpha    92.11
_cell_angle_beta     103.1
_cell_angle_gamma    76.32

_symmetry_space_group_name_H-M    "P 1"
_symmetry_int_tables_number       1

loop_
  _symmetry_equiv_pos_as_xyz
  'x, y, z'

loop_
  _atom_site_label
  _atom_site_occupancy
  _atom_site_fract_x
  _atom_site_fract_y
  _atom_site_fract_z
  _atom_site_thermal_displace_type
  _atom_site_B_iso_or_equiv
  _atom_site_type_symbol
  Cu1      1.0000 0.92140  0.24750  0.74470  Biso   1.000  Cu
  Cu2      1.0000 0.07860  0.75250  0.25530  Biso   1.000  Cu
  Cu3      1.0000 0.42100  0.24960  0.74800  Biso   1.000  Cu
  Cu4      1.0000 0.57900  0.75040  0.25200  Biso   1.000  Cu
  O1       1.0000 0.81220  0.12770  0.71000  Biso   1.000  O
  O2       1.0000 0.18780  0.87230  0.29000  Biso   1.000  O
  O3       1.0000 0.74700  0.36420  0.70730  Biso   1.000  O
  O4       1.0000 0.25300  0.63580  0.29270  Biso   1.000  O
  O5       1.0000 0.09490  0.13270  0.78550  Biso   1.000  O
  O6       1.0000 0.90510  0.86730  0.21450  Biso   1.000  O
  O7       1.0000 0.02600  0.36730  0.77370  Biso   1.000  O
  O8       1.0000 0.97400  0.63270  0.22630  Biso   1.000  O
  O9       1.0000 0.30510  0.13320  0.79080  Biso   1.000  O
  O10      1.0000 0.69490  0.86680  0.20920  Biso   1.000  O
  O11      1.0000 0.23730  0.37420  0.78620  Biso   1.000  O
  O12      1.0000 0.76270  0.62580  0.21380  Biso   1.000  O
  O13      1.0000 0.60260  0.12360  0.70550  Biso   1.000  O
  O14      1.0000 0.39740  0.87640  0.29450  Biso   1.000  O
  O15      1.0000 0.53770  0.36590  0.70810  Biso   1.000  O
  O16      1.0000 0.46230  0.63410  0.29190  Biso   1.000  O
  N1       1.0000 0.94790  0.24360  0.42140  Biso   1.000  N
  N2       1.0000 0.05210  0.75640  0.57860  Biso   1.000  N
  N3       1.0000 0.90170  0.24460  0.06440  Biso   1.000  N
  N4       1.0000 0.09830  0.75540  0.93560  Biso   1.000  N
  N5       1.0000 0.33520  0.25490  0.49670  Biso   1.000  N
  N6       1.0000 0.66480  0.74510  0.50330  Biso   1.000  N
  N7       1.0000 0.21570  0.26090  0.15060  Biso   1.000  N
  N8       1.0000 0.78430  0.73910  0.84940  Biso   1.000  N
  N9       1.0000 0.50530  0.24760  0.00000  Biso   1.000  N
  N10      1.0000 0.49470  0.75240  0.00000  Biso   1.000  N
  N11      1.0000 0.61950  0.24920  0.34730  Biso   1.000  N
  N12      1.0000 0.38050  0.75080  0.65270  Biso   1.000  N
  C1       1.0000 0.69210  0.17430  0.70800  Biso   1.000  C
  C2       1.0000 0.30790  0.82570  0.29200  Biso   1.000  C
  C3       1.0000 0.65580  0.31420  0.70750  Biso   1.000  C
  C4       1.0000 0.34420  0.68580  0.29250  Biso   1.000  C
  C5       1.0000 0.18750  0.18300  0.78780  Biso   1.000  C
  C6       1.0000 0.81250  0.81700  0.21220  Biso   1.000  C
  C7       1.0000 0.14650  0.32270  0.78080  Biso   1.000  C
  C8       1.0000 0.85350  0.67730  0.21920  Biso   1.000  C
  C9       1.0000 0.90800  0.34210  0.32900  Biso   1.000  C
  C10      1.0000 0.09200  0.65790  0.67100  Biso   1.000  C
  C11      1.0000 0.88500  0.34300  0.15200  Biso   1.000  C
  C12      1.0000 0.11500  0.65700  0.84800  Biso   1.000  C
  C13      1.0000 0.94000  0.14410  0.15700  Biso   1.000  C
  C14      1.0000 0.06000  0.85590  0.84300  Biso   1.000  C
  C15      1.0000 0.96500  0.14480  0.33200  Biso   1.000  C
  C16      1.0000 0.03500  0.85520  0.66800  Biso   1.000  C
  C17      1.0000 0.27600  0.35700  0.41300  Biso   1.000  C
  C18      1.0000 0.72400  0.64300  0.58700  Biso   1.000  C
  C19      1.0000 0.21800  0.35980  0.24300  Biso   1.000  C
  C20      1.0000 0.78200  0.64020  0.75700  Biso   1.000  C
  C21      1.0000 0.27500  0.16060  0.23700  Biso   1.000  C
  C22      1.0000 0.72500  0.83940  0.76300  Biso   1.000  C
  C23      1.0000 0.33370  0.15630  0.40700  Biso   1.000  C
  C24      1.0000 0.66630  0.84370  0.59300  Biso   1.000  C
  C25      1.0000 0.49270  0.34640  0.08700  Biso   1.000  C
  C26      1.0000 0.50730  0.65360  0.91300  Biso   1.000  C
  C27      1.0000 0.55200  0.34580  0.26100  Biso   1.000  C
  C28      1.0000 0.44800  0.65420  0.73900  Biso   1.000  C
  C29      1.0000 0.63100  0.14990  0.25800  Biso   1.000  C
  C30      1.0000 0.36900  0.85010  0.74200  Biso   1.000  C
  C31      1.0000 0.57310  0.14870  0.08600  Biso   1.000  C
  C32      1.0000 0.42690  0.85130  0.91400  Biso   1.000  C
