data_image0
_cell_length_a       8.3295
_cell_length_b       10.4899
_cell_length_c       12.4982
_cell_angle_alpha    73.43
_cell_angle_beta     71.558
_cell_angle_gamma    83.95

_symmetry_space_group_name_H-M    "P 1"
_symmetry_int_tables_number       1

loop_
  _symmetry_equiv_pos_as_xyz
  'x, y, z'

loop_
  _atom_site_label
  _atom_site_occupancy
  _atom_site_fract_x
  _atom_site_fract_y
  _atom_site_fract_z
  _atom_site_thermal_displace_type
  _atom_site_B_iso_or_equiv
  _atom_site_type_symbol
  Mo1      1.0000 0.61495  0.48593  0.36296  Biso   1.000  Mo
  Mo2      1.0000 0.38505  0.51407  0.63704  Biso   1.000  Mo
  Mo3      1.0000 0.62046  0.23103  0.57685  Biso   1.000  Mo
  Mo4      1.0000 0.37954  0.76897  0.42315  Biso   1.000  Mo
  Mo5      1.0000 0.22245  0.24805  0.57719  Biso   1.000  Mo
  Mo6      1.0000 0.77755  0.75195  0.42281  Biso   1.000  Mo
  Mo7      1.0000 0.99334  0.52500  0.62823  Biso   1.000  Mo
  Mo8      1.0000 0.00666  0.47500  0.37177  Biso   1.000  Mo
  O1       1.0000 0.91870  0.94000  0.63360  Biso   1.000  O
  O2       1.0000 0.08130  0.06000  0.36640  Biso   1.000  O
  O3       1.0000 0.67570  0.13210  0.48480  Biso   1.000  O
  O4       1.0000 0.32430  0.86790  0.51520  Biso   1.000  O
  O5       1.0000 0.83960  0.41950  0.72060  Biso   1.000  O
  O6       1.0000 0.16040  0.58050  0.27940  Biso   1.000  O
  O7       1.0000 0.05860  0.16110  0.68710  Biso   1.000  O
  O8       1.0000 0.94140  0.83890  0.31290  Biso   1.000  O
  O9       1.0000 0.75250  0.37940  0.47994  Biso   1.000  O
  O10      1.0000 0.24750  0.62060  0.52006  Biso   1.000  O
  O11      1.0000 0.48850  0.61730  0.31329  Biso   1.000  O
  O12      1.0000 0.51150  0.38270  0.68671  Biso   1.000  O
  O13      1.0000 0.17860  0.41220  0.68073  Biso   1.000  O
  O14      1.0000 0.82140  0.58780  0.31927  Biso   1.000  O
  O15      1.0000 0.38850  0.17310  0.65589  Biso   1.000  O
  O16      1.0000 0.61150  0.82690  0.34411  Biso   1.000  O
  O17      1.0000 0.71340  0.15300  0.68640  Biso   1.000  O
  O18      1.0000 0.28660  0.84700  0.31360  Biso   1.000  O
  O19      1.0000 0.26670  0.17140  0.46900  Biso   1.000  O
  O20      1.0000 0.73330  0.82860  0.53100  Biso   1.000  O
  O21      1.0000 0.90820  0.60130  0.49437  Biso   1.000  O
  O22      1.0000 0.09180  0.39870  0.50563  Biso   1.000  O
  O23      1.0000 0.44770  0.37910  0.49302  Biso   1.000  O
  O24      1.0000 0.55230  0.62090  0.50698  Biso   1.000  O
  O25      1.0000 0.95960  0.65810  0.68630  Biso   1.000  O
  O26      1.0000 0.04040  0.34190  0.31370  Biso   1.000  O
  O27      1.0000 0.66550  0.39860  0.26231  Biso   1.000  O
  O28      1.0000 0.33450  0.60140  0.73769  Biso   1.000  O
  Cu1      1.0000 0.84582  0.02141  0.76963  Biso   1.000  Cu
  Cu2      1.0000 0.15418  0.97859  0.23037  Biso   1.000  Cu
  C1       1.0000 0.07720  0.78370  0.83610  Biso   1.000  C
  C2       1.0000 0.92280  0.21630  0.16390  Biso   1.000  C
  H1       1.0000 0.13600  0.78210  0.75960  Biso   1.000  H
  H2       1.0000 0.86400  0.21790  0.24040  Biso   1.000  H
  C3       1.0000 0.96480  0.74900  0.04490  Biso   1.000  C
  C4       1.0000 0.03520  0.25100  0.95510  Biso   1.000  C
  H3       1.0000 0.93560  0.72300  0.12620  Biso   1.000  H
  H4       1.0000 0.06440  0.27700  0.87380  Biso   1.000  H
  C5       1.0000 0.89660  0.85440  0.98150  Biso   1.000  C
  C6       1.0000 0.10340  0.14560  0.01850  Biso   1.000  C
  C7       1.0000 0.77310  0.95650  0.01210  Biso   1.000  C
  C8       1.0000 0.22690  0.04350  0.98790  Biso   1.000  C
  C9       1.0000 0.62180  0.13790  0.98240  Biso   1.000  C
  C10      1.0000 0.37820  0.86210  0.01760  Biso   1.000  C
  C11      1.0000 0.59330  0.08800  0.10380  Biso   1.000  C
  C12      1.0000 0.40670  0.91200  0.89620  Biso   1.000  C
  C13      1.0000 0.49040  0.15370  0.18340  Biso   1.000  C
  C14      1.0000 0.50960  0.84630  0.81660  Biso   1.000  C
  H5       1.0000 0.47370  0.12070  0.26340  Biso   1.000  H
  H6       1.0000 0.52630  0.87930  0.73660  Biso   1.000  H
  C15      1.0000 0.41450  0.27040  0.13730  Biso   1.000  C
  C16      1.0000 0.58550  0.72960  0.86270  Biso   1.000  C
  H7       1.0000 0.34200  0.31640  0.18770  Biso   1.000  H
  H8       1.0000 0.65800  0.68360  0.81230  Biso   1.000  H
  C17      1.0000 0.44350  0.32140  0.01680  Biso   1.000  C
  C18      1.0000 0.55650  0.67860  0.98320  Biso   1.000  C
  H9       1.0000 0.39180  0.40170  0.98920  Biso   1.000  H
  H10      1.0000 0.60820  0.59830  0.01080  Biso   1.000  H
  C19      1.0000 0.54600  0.25690  0.93760  Biso   1.000  C
  C20      1.0000 0.45400  0.74310  0.06240  Biso   1.000  C
  H11      1.0000 0.56370  0.29150  0.85750  Biso   1.000  H
  H12      1.0000 0.43630  0.70850  0.14250  Biso   1.000  H
  N1       1.0000 0.96060  0.87330  0.86160  Biso   1.000  N
  N2       1.0000 0.03940  0.12670  0.13840  Biso   1.000  N
  N3       1.0000 0.69140  0.97240  0.11920  Biso   1.000  N
  N4       1.0000 0.30860  0.02760  0.88080  Biso   1.000  N
  H13      1.0000 0.69850  0.92080  0.18480  Biso   1.000  H
  H14      1.0000 0.30150  0.07920  0.81520  Biso   1.000  H
  N5       1.0000 0.73690  0.05150  0.92680  Biso   1.000  N
  N6       1.0000 0.26310  0.94850  0.07320  Biso   1.000  N
  S1       1.0000 0.11209  0.67057  0.95442  Biso   1.000  S
  S2       1.0000 0.88791  0.32943  0.04558  Biso   1.000  S
