data_image0
_cell_length_a       11.6658
_cell_length_b       11.7055
_cell_length_c       11.8978
_cell_angle_alpha    71.114
_cell_angle_beta     77.143
_cell_angle_gamma    85.924

_symmetry_space_group_name_H-M    "P 1"
_symmetry_int_tables_number       1

loop_
  _symmetry_equiv_pos_as_xyz
  'x, y, z'

loop_
  _atom_site_label
  _atom_site_occupancy
  _atom_site_fract_x
  _atom_site_fract_y
  _atom_site_fract_z
  _atom_site_thermal_displace_type
  _atom_site_B_iso_or_equiv
  _atom_site_type_symbol
  Mo1      1.0000 0.96074  0.50428  0.36251  Biso   1.000  Mo
  Mo2      1.0000 0.03926  0.49572  0.63749  Biso   1.000  Mo
  Mo3      1.0000 0.99957  0.76027  0.45338  Biso   1.000  Mo
  Mo4      1.0000 0.00043  0.23973  0.54662  Biso   1.000  Mo
  Mo5      1.0000 0.75965  0.57499  0.56424  Biso   1.000  Mo
  Mo6      1.0000 0.24035  0.42501  0.43576  Biso   1.000  Mo
  Mo7      1.0000 0.20234  0.69160  0.25076  Biso   1.000  Mo
  Mo8      1.0000 0.79766  0.30840  0.74924  Biso   1.000  Mo
  O1       1.0000 0.24350  0.74900  0.09590  Biso   1.000  O
  O2       1.0000 0.75650  0.25100  0.90410  Biso   1.000  O
  O3       1.0000 0.27610  0.86480  0.64540  Biso   1.000  O
  O4       1.0000 0.72390  0.13520  0.35460  Biso   1.000  O
  O5       1.0000 0.05000  0.59420  0.22950  Biso   1.000  O
  O6       1.0000 0.95000  0.40580  0.77050  Biso   1.000  O
  O7       1.0000 0.69660  0.70490  0.58490  Biso   1.000  O
  O8       1.0000 0.30340  0.29510  0.41510  Biso   1.000  O
  O9       1.0000 0.89420  0.86780  0.44570  Biso   1.000  O
  O10      1.0000 0.10580  0.13220  0.55430  Biso   1.000  O
  O11      1.0000 0.10300  0.80710  0.50810  Biso   1.000  O
  O12      1.0000 0.89700  0.19290  0.49190  Biso   1.000  O
  O13      1.0000 0.09780  0.57610  0.44530  Biso   1.000  O
  O14      1.0000 0.90220  0.42390  0.55470  Biso   1.000  O
  O15      1.0000 0.73800  0.47050  0.72530  Biso   1.000  O
  O16      1.0000 0.26200  0.52950  0.27470  Biso   1.000  O
  O17      1.0000 0.30300  0.74380  0.30510  Biso   1.000  O
  O18      1.0000 0.69700  0.25620  0.69490  Biso   1.000  O
  O19      1.0000 0.66130  0.52020  0.50860  Biso   1.000  O
  O20      1.0000 0.33870  0.47980  0.49140  Biso   1.000  O
  O21      1.0000 0.85710  0.44970  0.31490  Biso   1.000  O
  O22      1.0000 0.14290  0.55030  0.68510  Biso   1.000  O
  O23      1.0000 0.06870  0.36800  0.39400  Biso   1.000  O
  O24      1.0000 0.93130  0.63200  0.60600  Biso   1.000  O
  O25      1.0000 0.87520  0.63840  0.41000  Biso   1.000  O
  O26      1.0000 0.12480  0.36160  0.59000  Biso   1.000  O
  O27      1.0000 0.07260  0.79330  0.28680  Biso   1.000  O
  O28      1.0000 0.92740  0.20670  0.71320  Biso   1.000  O
  Cu1      1.0000 0.25419  0.79261  0.88204  Biso   1.000  Cu
  Cu2      1.0000 0.74581  0.20739  0.11796  Biso   1.000  Cu
  C1       1.0000 0.02070  0.81200  0.81790  Biso   1.000  C
  C2       1.0000 0.97930  0.18800  0.18210  Biso   1.000  C
  H1       1.0000 0.03710  0.88830  0.76130  Biso   1.000  H
  H2       1.0000 0.96290  0.11170  0.23870  Biso   1.000  H
  C3       1.0000 0.03290  0.64600  0.95180  Biso   1.000  C
  C4       1.0000 0.96710  0.35400  0.04820  Biso   1.000  C
  H3       1.0000 0.06310  0.58230  0.00740  Biso   1.000  H
  H4       1.0000 0.93690  0.41770  0.99260  Biso   1.000  H
  C5       1.0000 0.81540  0.78690  0.79560  Biso   1.000  C
  C6       1.0000 0.18460  0.21310  0.20440  Biso   1.000  C
  H5       1.0000 0.74770  0.76540  0.86260  Biso   1.000  H
  H6       1.0000 0.25230  0.23460  0.13740  Biso   1.000  H
  H7       1.0000 0.81040  0.74220  0.74090  Biso   1.000  H
  H8       1.0000 0.18960  0.25780  0.25910  Biso   1.000  H
  C7       1.0000 0.81210  0.92080  0.72860  Biso   1.000  C
  C8       1.0000 0.18790  0.07920  0.27140  Biso   1.000  C
  H9       1.0000 0.81340  0.96530  0.78430  Biso   1.000  H
  H10      1.0000 0.18660  0.03470  0.21570  Biso   1.000  H
  H11      1.0000 0.88180  0.94290  0.66410  Biso   1.000  H
  H12      1.0000 0.11820  0.05710  0.33590  Biso   1.000  H
  C9       1.0000 0.70470  0.95640  0.67470  Biso   1.000  C
  C10      1.0000 0.29530  0.04360  0.32530  Biso   1.000  C
  H13      1.0000 0.70460  0.04340  0.63720  Biso   1.000  H
  H14      1.0000 0.29540  0.95660  0.36280  Biso   1.000  H
  H15      1.0000 0.70870  0.91980  0.61150  Biso   1.000  H
  H16      1.0000 0.29130  0.08020  0.38850  Biso   1.000  H
  C11      1.0000 0.46030  0.91060  0.91610  Biso   1.000  C
  C12      1.0000 0.53970  0.08940  0.08390  Biso   1.000  C
  H17      1.0000 0.41690  0.92070  0.98800  Biso   1.000  H
  H18      1.0000 0.58310  0.07930  0.01200  Biso   1.000  H
  C13      1.0000 0.50840  0.85580  0.76200  Biso   1.000  C
  C14      1.0000 0.49160  0.14420  0.23800  Biso   1.000  C
  H19      1.0000 0.50920  0.81970  0.70280  Biso   1.000  H
  H20      1.0000 0.49080  0.18030  0.29720  Biso   1.000  H
  C15      1.0000 0.33840  0.53430  0.98940  Biso   1.000  C
  C16      1.0000 0.66160  0.46570  0.01060  Biso   1.000  C
  H21      1.0000 0.32380  0.53870  0.06800  Biso   1.000  H
  H22      1.0000 0.67620  0.46130  0.93200  Biso   1.000  H
  C17      1.0000 0.34650  0.58250  0.80090  Biso   1.000  C
  C18      1.0000 0.65350  0.41750  0.19910  Biso   1.000  C
  H23      1.0000 0.33940  0.62240  0.72130  Biso   1.000  H
  H24      1.0000 0.66060  0.37760  0.27870  Biso   1.000  H
  C19      1.0000 0.44510  0.39600  0.76710  Biso   1.000  C
  C20      1.0000 0.55490  0.60400  0.23290  Biso   1.000  C
  H25      1.0000 0.52890  0.38990  0.76490  Biso   1.000  H
  H26      1.0000 0.47110  0.61010  0.23510  Biso   1.000  H
  H27      1.0000 0.43450  0.43200  0.68430  Biso   1.000  H
  H28      1.0000 0.56550  0.56800  0.31570  Biso   1.000  H
  C21      1.0000 0.39140  0.27080  0.81940  Biso   1.000  C
  C22      1.0000 0.60860  0.72920  0.18060  Biso   1.000  C
  H29      1.0000 0.43560  0.21910  0.77600  Biso   1.000  H
  H30      1.0000 0.56440  0.78090  0.22400  Biso   1.000  H
  H31      1.0000 0.39720  0.23730  0.90400  Biso   1.000  H
  H32      1.0000 0.60280  0.76270  0.09600  Biso   1.000  H
  C23      1.0000 0.26430  0.27200  0.81110  Biso   1.000  C
  C24      1.0000 0.73570  0.72800  0.18890  Biso   1.000  C
  H33      1.0000 0.21890  0.32040  0.85780  Biso   1.000  H
  H34      1.0000 0.78110  0.67960  0.14220  Biso   1.000  H
  H35      1.0000 0.25760  0.30820  0.72710  Biso   1.000  H
  H36      1.0000 0.74240  0.69180  0.27290  Biso   1.000  H
  C25      1.0000 0.14350  0.98920  0.98350  Biso   1.000  C
  C26      1.0000 0.85650  0.01080  0.01650  Biso   1.000  C
  H37      1.0000 0.10150  0.93390  0.05330  Biso   1.000  H
  H38      1.0000 0.89850  0.06610  0.94670  Biso   1.000  H
  C27      1.0000 0.24220  0.06270  0.80880  Biso   1.000  C
  C28      1.0000 0.75780  0.93730  0.19120  Biso   1.000  C
  H39      1.0000 0.28490  0.07320  0.73020  Biso   1.000  H
  H40      1.0000 0.71510  0.92680  0.26980  Biso   1.000  H
  N1       1.0000 0.09340  0.74800  0.88530  Biso   1.000  N
  N2       1.0000 0.90660  0.25200  0.11470  Biso   1.000  N
  N3       1.0000 0.92700  0.64490  0.93060  Biso   1.000  N
  N4       1.0000 0.07300  0.35510  0.06940  Biso   1.000  N
  N5       1.0000 0.92210  0.75250  0.84220  Biso   1.000  N
  N6       1.0000 0.07790  0.24750  0.15780  Biso   1.000  N
  N7       1.0000 0.59440  0.92000  0.76470  Biso   1.000  N
  N8       1.0000 0.40560  0.08000  0.23530  Biso   1.000  N
  N9       1.0000 0.56700  0.95570  0.86520  Biso   1.000  N
  N10      1.0000 0.43300  0.04430  0.13480  Biso   1.000  N
  N11      1.0000 0.42000  0.84930  0.85560  Biso   1.000  N
  N12      1.0000 0.58000  0.15070  0.14440  Biso   1.000  N
  N13      1.0000 0.39140  0.47420  0.83910  Biso   1.000  N
  N14      1.0000 0.60860  0.52580  0.16090  Biso   1.000  N
  N15      1.0000 0.38500  0.44000  0.96060  Biso   1.000  N
  N16      1.0000 0.61500  0.56000  0.03940  Biso   1.000  N
  N17      1.0000 0.31300  0.62620  0.89230  Biso   1.000  N
  N18      1.0000 0.68700  0.37380  0.10770  Biso   1.000  N
  N19      1.0000 0.15400  0.10360  0.97240  Biso   1.000  N
  N20      1.0000 0.84600  0.89640  0.02760  Biso   1.000  N
  N21      1.0000 0.21750  0.14920  0.85760  Biso   1.000  N
  N22      1.0000 0.78250  0.85080  0.14240  Biso   1.000  N
  N23      1.0000 0.19900  0.95920  0.88520  Biso   1.000  N
  N24      1.0000 0.80100  0.04080  0.11480  Biso   1.000  N
  O29      1.0000 0.44470  0.71050  0.49320  Biso   1.000  O
  O30      1.0000 0.55530  0.28950  0.50680  Biso   1.000  O
  O31      1.0000 0.56720  0.90990  0.44990  Biso   1.000  O
  O32      1.0000 0.43280  0.09010  0.55010  Biso   1.000  O
