data_image0
_cell_length_a       5.0489
_cell_length_b       14.868
_cell_length_c       7.0673
_cell_angle_alpha    90
_cell_angle_beta     106.127
_cell_angle_gamma    90

_symmetry_space_group_name_H-M    "P 1"
_symmetry_int_tables_number       1

loop_
  _symmetry_equiv_pos_as_xyz
  'x, y, z'

loop_
  _atom_site_label
  _atom_site_occupancy
  _atom_site_fract_x
  _atom_site_fract_y
  _atom_site_fract_z
  _atom_site_thermal_displace_type
  _atom_site_B_iso_or_equiv
  _atom_site_type_symbol
  Cu1      1.0000 0.00000  0.50000  0.50000  Biso   1.000  Cu
  Cu2      1.0000 0.00000  0.00000  0.00000  Biso   1.000  Cu
  O1       1.0000 0.33210  0.42868  0.60155  Biso   1.000  O
  O2       1.0000 0.66790  0.92868  0.89845  Biso   1.000  O
  O3       1.0000 0.66790  0.57132  0.39845  Biso   1.000  O
  O4       1.0000 0.33210  0.07132  0.10155  Biso   1.000  O
  O5       1.0000 0.77476  0.44356  0.77659  Biso   1.000  O
  O6       1.0000 0.22524  0.94356  0.72341  Biso   1.000  O
  O7       1.0000 0.22524  0.55644  0.22341  Biso   1.000  O
  O8       1.0000 0.77476  0.05644  0.27659  Biso   1.000  O
  N1       1.0000 0.21500  0.59205  0.68137  Biso   1.000  N
  N2       1.0000 0.78500  0.09205  0.81863  Biso   1.000  N
  N3       1.0000 0.78500  0.40795  0.31863  Biso   1.000  N
  N4       1.0000 0.21500  0.90795  0.18137  Biso   1.000  N
  N5       1.0000 0.12580  0.67456  0.70536  Biso   1.000  N
  N6       1.0000 0.87420  0.17456  0.79464  Biso   1.000  N
  N7       1.0000 0.87420  0.32544  0.29464  Biso   1.000  N
  N8       1.0000 0.12580  0.82544  0.20536  Biso   1.000  N
  C1       1.0000 0.30090  0.72955  0.82783  Biso   1.000  C
  C2       1.0000 0.69910  0.22955  0.67217  Biso   1.000  C
  C3       1.0000 0.69910  0.27045  0.17217  Biso   1.000  C
  C4       1.0000 0.30090  0.77045  0.32783  Biso   1.000  C
  H1       1.0000 0.24040  0.78880  0.84460  Biso   1.000  H
  H2       1.0000 0.75960  0.28880  0.65540  Biso   1.000  H
  H3       1.0000 0.75960  0.21120  0.15540  Biso   1.000  H
  H4       1.0000 0.24040  0.71120  0.34460  Biso   1.000  H
  C5       1.0000 0.56910  0.70496  0.93338  Biso   1.000  C
  C6       1.0000 0.43090  0.20496  0.56662  Biso   1.000  C
  C7       1.0000 0.43090  0.29504  0.06662  Biso   1.000  C
  C8       1.0000 0.56910  0.79504  0.43338  Biso   1.000  C
  H5       1.0000 0.68730  0.74620  0.01980  Biso   1.000  H
  H6       1.0000 0.31270  0.24620  0.48020  Biso   1.000  H
  H7       1.0000 0.31270  0.25380  0.98020  Biso   1.000  H
  H8       1.0000 0.68730  0.75380  0.51980  Biso   1.000  H
  C9       1.0000 0.65580  0.61922  0.90785  Biso   1.000  C
  C10      1.0000 0.34420  0.11922  0.59215  Biso   1.000  C
  C11      1.0000 0.34420  0.38078  0.09215  Biso   1.000  C
  C12      1.0000 0.65580  0.88078  0.40785  Biso   1.000  C
  H9       1.0000 0.83430  0.59840  0.97710  Biso   1.000  H
  H10      1.0000 0.16570  0.09840  0.52290  Biso   1.000  H
  H11      1.0000 0.16570  0.40160  0.02290  Biso   1.000  H
  H12      1.0000 0.83430  0.90160  0.47710  Biso   1.000  H
  C13      1.0000 0.46840  0.56435  0.77523  Biso   1.000  C
  C14      1.0000 0.53160  0.06435  0.72477  Biso   1.000  C
  C15      1.0000 0.53160  0.43565  0.22477  Biso   1.000  C
  C16      1.0000 0.46840  0.93565  0.27523  Biso   1.000  C
  C17      1.0000 0.53530  0.47095  0.71738  Biso   1.000  C
  C18      1.0000 0.46470  0.97095  0.78262  Biso   1.000  C
  C19      1.0000 0.46470  0.52905  0.28262  Biso   1.000  C
  C20      1.0000 0.53530  0.02905  0.21738  Biso   1.000  C
