data_image0
_cell_length_a       9.674
_cell_length_b       21.403
_cell_length_c       15.575
_cell_angle_alpha    90
_cell_angle_beta     95.351
_cell_angle_gamma    90

_symmetry_space_group_name_H-M    "P 1"
_symmetry_int_tables_number       1

loop_
  _symmetry_equiv_pos_as_xyz
  'x, y, z'

loop_
  _atom_site_label
  _atom_site_occupancy
  _atom_site_fract_x
  _atom_site_fract_y
  _atom_site_fract_z
  _atom_site_thermal_displace_type
  _atom_site_B_iso_or_equiv
  _atom_site_type_symbol
  Cu1      1.0000 0.22026  0.17801  0.78740  Biso   1.000  Cu
  Cu2      1.0000 0.27974  0.67801  0.71260  Biso   1.000  Cu
  Cu3      1.0000 0.77974  0.82199  0.21260  Biso   1.000  Cu
  Cu4      1.0000 0.72026  0.32199  0.28740  Biso   1.000  Cu
  O1       1.0000 0.17600  0.26717  0.76467  Biso   1.000  O
  O2       1.0000 0.32400  0.76717  0.73533  Biso   1.000  O
  O3       1.0000 0.82400  0.73283  0.23533  Biso   1.000  O
  O4       1.0000 0.67600  0.23283  0.26467  Biso   1.000  O
  O5       1.0000 0.03650  0.26204  0.64226  Biso   1.000  O
  O6       1.0000 0.46350  0.76204  0.85774  Biso   1.000  O
  O7       1.0000 0.96350  0.73796  0.35774  Biso   1.000  O
  O8       1.0000 0.53650  0.23796  0.14226  Biso   1.000  O
  O9       1.0000 0.09810  0.58378  0.59095  Biso   1.000  O
  O10      1.0000 0.40190  0.08378  0.90905  Biso   1.000  O
  O11      1.0000 0.90190  0.41622  0.40905  Biso   1.000  O
  O12      1.0000 0.59810  0.91622  0.09095  Biso   1.000  O
  O13      1.0000 0.24350  0.58729  0.71057  Biso   1.000  O
  O14      1.0000 0.25650  0.08729  0.78943  Biso   1.000  O
  O15      1.0000 0.75650  0.41271  0.28943  Biso   1.000  O
  O16      1.0000 0.74350  0.91271  0.21057  Biso   1.000  O
  O17      1.0000 0.31090  0.20460  0.92763  Biso   1.000  O
  O18      1.0000 0.18910  0.70460  0.57237  Biso   1.000  O
  O19      1.0000 0.68910  0.79540  0.07237  Biso   1.000  O
  O20      1.0000 0.81090  0.29540  0.42763  Biso   1.000  O
  H1       1.0000 0.34840  0.16870  0.92840  Biso   1.000  H
  H2       1.0000 0.15160  0.66870  0.57160  Biso   1.000  H
  H3       1.0000 0.65160  0.83130  0.07160  Biso   1.000  H
  H4       1.0000 0.84840  0.33130  0.42840  Biso   1.000  H
  H5       1.0000 0.36120  0.23480  0.94750  Biso   1.000  H
  H6       1.0000 0.13880  0.73480  0.55250  Biso   1.000  H
  H7       1.0000 0.63880  0.76520  0.05250  Biso   1.000  H
  H8       1.0000 0.86120  0.26520  0.44750  Biso   1.000  H
  N1       1.0000 0.03250  0.15908  0.81987  Biso   1.000  N
  N2       1.0000 0.46750  0.65908  0.68013  Biso   1.000  N
  N3       1.0000 0.96750  0.84092  0.18013  Biso   1.000  N
  N4       1.0000 0.53250  0.34092  0.31987  Biso   1.000  N
  N5       1.0000 0.83860  0.10407  0.82116  Biso   1.000  N
  N6       1.0000 0.66140  0.60407  0.67884  Biso   1.000  N
  N7       1.0000 0.16140  0.89593  0.17884  Biso   1.000  N
  N8       1.0000 0.33860  0.39593  0.32116  Biso   1.000  N
  N9       1.0000 0.39780  0.19370  0.73636  Biso   1.000  N
  N10      1.0000 0.10220  0.69370  0.76364  Biso   1.000  N
  N11      1.0000 0.60220  0.80630  0.26364  Biso   1.000  N
  N12      1.0000 0.89780  0.30630  0.23636  Biso   1.000  N
  N13      1.0000 0.58890  0.24453  0.71000  Biso   1.000  N
  N14      1.0000 0.91110  0.74453  0.79000  Biso   1.000  N
  N15      1.0000 0.41110  0.75547  0.29000  Biso   1.000  N
  N16      1.0000 0.08890  0.25547  0.21000  Biso   1.000  N
  C1       1.0000 0.96450  0.10847  0.79360  Biso   1.000  C
  C2       1.0000 0.53550  0.60847  0.70640  Biso   1.000  C
  C3       1.0000 0.03550  0.89153  0.20640  Biso   1.000  C
  C4       1.0000 0.46450  0.39153  0.29360  Biso   1.000  C
  H9       1.0000 0.00090  0.07840  0.75900  Biso   1.000  H
  H10      1.0000 0.49910  0.57840  0.74100  Biso   1.000  H
  H11      1.0000 0.99910  0.92160  0.24100  Biso   1.000  H
  H12      1.0000 0.50090  0.42160  0.25900  Biso   1.000  H
  C5       1.0000 0.94410  0.19106  0.86980  Biso   1.000  C
  C6       1.0000 0.55590  0.69106  0.63020  Biso   1.000  C
  C7       1.0000 0.05590  0.80894  0.13020  Biso   1.000  C
  C8       1.0000 0.44410  0.30894  0.36980  Biso   1.000  C
  C9       1.0000 0.96100  0.24615  0.91640  Biso   1.000  C
  C10      1.0000 0.53900  0.74615  0.58360  Biso   1.000  C
  C11      1.0000 0.03900  0.75385  0.08360  Biso   1.000  C
  C12      1.0000 0.46100  0.25385  0.41640  Biso   1.000  C
  H13      1.0000 0.04140  0.27000  0.91610  Biso   1.000  H
  H14      1.0000 0.45860  0.77000  0.58390  Biso   1.000  H
  H15      1.0000 0.95860  0.73000  0.08390  Biso   1.000  H
  H16      1.0000 0.54140  0.23000  0.41610  Biso   1.000  H
  C13      1.0000 0.85360  0.26403  0.96300  Biso   1.000  C
  C14      1.0000 0.64640  0.76403  0.53700  Biso   1.000  C
  C15      1.0000 0.14640  0.73597  0.03700  Biso   1.000  C
  C16      1.0000 0.35360  0.23597  0.46300  Biso   1.000  C
  H17      1.0000 0.86230  0.30050  0.99540  Biso   1.000  H
  H18      1.0000 0.63770  0.80050  0.50460  Biso   1.000  H
  H19      1.0000 0.13770  0.69950  0.00460  Biso   1.000  H
  H20      1.0000 0.36230  0.19950  0.49540  Biso   1.000  H
  C17      1.0000 0.73230  0.22910  0.96320  Biso   1.000  C
  C18      1.0000 0.76770  0.72910  0.53680  Biso   1.000  C
  C19      1.0000 0.26770  0.77090  0.03680  Biso   1.000  C
  C20      1.0000 0.23230  0.27090  0.46320  Biso   1.000  C
  H21      1.0000 0.66200  0.24330  0.99510  Biso   1.000  H
  H22      1.0000 0.83800  0.74330  0.50490  Biso   1.000  H
  H23      1.0000 0.33800  0.75670  0.00490  Biso   1.000  H
  H24      1.0000 0.16200  0.25670  0.49510  Biso   1.000  H
  C21      1.0000 0.71330  0.17480  0.91790  Biso   1.000  C
  C22      1.0000 0.78670  0.67480  0.58210  Biso   1.000  C
  C23      1.0000 0.28670  0.82520  0.08210  Biso   1.000  C
  C24      1.0000 0.21330  0.32520  0.41790  Biso   1.000  C
  H25      1.0000 0.63220  0.15140  0.91820  Biso   1.000  H
  H26      1.0000 0.86780  0.65140  0.58180  Biso   1.000  H
  H27      1.0000 0.36780  0.84860  0.08180  Biso   1.000  H
  H28      1.0000 0.13220  0.34860  0.41820  Biso   1.000  H
  C25      1.0000 0.82190  0.15637  0.87160  Biso   1.000  C
  C26      1.0000 0.67810  0.65637  0.62840  Biso   1.000  C
  C27      1.0000 0.17810  0.84363  0.12840  Biso   1.000  C
  C28      1.0000 0.32190  0.34363  0.37160  Biso   1.000  C
  C29      1.0000 0.73670  0.05344  0.80380  Biso   1.000  C
  C30      1.0000 0.76330  0.55344  0.69620  Biso   1.000  C
  C31      1.0000 0.26330  0.94656  0.19620  Biso   1.000  C
  C32      1.0000 0.23670  0.44656  0.30380  Biso   1.000  C
  H29      1.0000 0.64560  0.07140  0.78900  Biso   1.000  H
  H30      1.0000 0.85440  0.57140  0.71100  Biso   1.000  H
  H31      1.0000 0.35440  0.92860  0.21100  Biso   1.000  H
  H32      1.0000 0.14560  0.42860  0.28900  Biso   1.000  H
  H33      1.0000 0.73260  0.02860  0.85550  Biso   1.000  H
  H34      1.0000 0.76740  0.52860  0.64450  Biso   1.000  H
  H35      1.0000 0.26740  0.97140  0.14450  Biso   1.000  H
  H36      1.0000 0.23260  0.47140  0.35550  Biso   1.000  H
  C33      1.0000 0.77390  0.01160  0.73080  Biso   1.000  C
  C34      1.0000 0.72610  0.51160  0.76920  Biso   1.000  C
  C35      1.0000 0.22610  0.98840  0.26920  Biso   1.000  C
  C36      1.0000 0.27390  0.48840  0.23080  Biso   1.000  C
  H37      1.0000 0.86200  0.99130  0.74760  Biso   1.000  H
  H38      1.0000 0.63800  0.49130  0.75240  Biso   1.000  H
  H39      1.0000 0.13800  0.00870  0.25240  Biso   1.000  H
  H40      1.0000 0.36200  0.50870  0.24760  Biso   1.000  H
  H41      1.0000 0.78540  0.03710  0.68040  Biso   1.000  H
  H42      1.0000 0.71460  0.53710  0.81960  Biso   1.000  H
  H43      1.0000 0.21460  0.96290  0.31960  Biso   1.000  H
  H44      1.0000 0.28540  0.46290  0.18040  Biso   1.000  H
  C37      1.0000 0.66390  0.96180  0.70720  Biso   1.000  C
  C38      1.0000 0.83610  0.46180  0.79280  Biso   1.000  C
  C39      1.0000 0.33610  0.03820  0.29280  Biso   1.000  C
  C40      1.0000 0.16390  0.53820  0.20720  Biso   1.000  C
  H45      1.0000 0.65570  0.93510  0.75670  Biso   1.000  H
  H46      1.0000 0.84430  0.43510  0.74330  Biso   1.000  H
  H47      1.0000 0.34430  0.06490  0.24330  Biso   1.000  H
  H48      1.0000 0.15570  0.56490  0.25670  Biso   1.000  H
  H49      1.0000 0.57500  0.98200  0.69310  Biso   1.000  H
  H50      1.0000 0.92500  0.48200  0.80690  Biso   1.000  H
  H51      1.0000 0.42500  0.01800  0.30690  Biso   1.000  H
  H52      1.0000 0.07500  0.51800  0.19310  Biso   1.000  H
  C41      1.0000 0.69730  0.92290  0.63300  Biso   1.000  C
  C42      1.0000 0.80270  0.42290  0.86700  Biso   1.000  C
  C43      1.0000 0.30270  0.07710  0.36700  Biso   1.000  C
  C44      1.0000 0.19730  0.57710  0.13300  Biso   1.000  C
  H53      1.0000 0.71570  0.94950  0.58570  Biso   1.000  H
  H54      1.0000 0.78430  0.44950  0.91430  Biso   1.000  H
  H55      1.0000 0.28430  0.05050  0.41430  Biso   1.000  H
  H56      1.0000 0.21570  0.55050  0.08570  Biso   1.000  H
  H57      1.0000 0.62000  0.89620  0.61570  Biso   1.000  H
  H58      1.0000 0.88000  0.39620  0.88430  Biso   1.000  H
  H59      1.0000 0.38000  0.10380  0.38430  Biso   1.000  H
  H60      1.0000 0.12000  0.60380  0.11570  Biso   1.000  H
  H61      1.0000 0.77770  0.89790  0.64960  Biso   1.000  H
  H62      1.0000 0.72230  0.39790  0.85040  Biso   1.000  H
  H63      1.0000 0.22230  0.10210  0.35040  Biso   1.000  H
  H64      1.0000 0.27770  0.60210  0.14960  Biso   1.000  H
  C45      1.0000 0.47690  0.24256  0.75500  Biso   1.000  C
  C46      1.0000 0.02310  0.74256  0.74500  Biso   1.000  C
  C47      1.0000 0.52310  0.75744  0.24500  Biso   1.000  C
  C48      1.0000 0.97690  0.25744  0.25500  Biso   1.000  C
  H65      1.0000 0.45750  0.27270  0.79520  Biso   1.000  H
  H66      1.0000 0.04250  0.77270  0.70480  Biso   1.000  H
  H67      1.0000 0.54250  0.72730  0.20480  Biso   1.000  H
  H68      1.0000 0.95750  0.22730  0.29520  Biso   1.000  H
  C49      1.0000 0.46280  0.16033  0.67400  Biso   1.000  C
  C50      1.0000 0.03720  0.66033  0.82600  Biso   1.000  C
  C51      1.0000 0.53720  0.83967  0.32600  Biso   1.000  C
  C52      1.0000 0.96280  0.33967  0.17400  Biso   1.000  C
  C53      1.0000 0.42660  0.10615  0.63020  Biso   1.000  C
  C54      1.0000 0.07340  0.60615  0.86980  Biso   1.000  C
  C55      1.0000 0.57340  0.89385  0.36980  Biso   1.000  C
  C56      1.0000 0.92660  0.39385  0.13020  Biso   1.000  C
  H69      1.0000 0.34700  0.08410  0.64040  Biso   1.000  H
  H70      1.0000 0.15300  0.58410  0.85960  Biso   1.000  H
  H71      1.0000 0.65300  0.91590  0.35960  Biso   1.000  H
  H72      1.0000 0.84700  0.41590  0.14040  Biso   1.000  H
  C57      1.0000 0.51240  0.08610  0.57110  Biso   1.000  C
  C58      1.0000 0.98760  0.58610  0.92890  Biso   1.000  C
  C59      1.0000 0.48760  0.91390  0.42890  Biso   1.000  C
  C60      1.0000 0.01240  0.41390  0.07110  Biso   1.000  C
  H73      1.0000 0.49050  0.04970  0.54030  Biso   1.000  H
  H74      1.0000 0.00950  0.54970  0.95970  Biso   1.000  H
  H75      1.0000 0.50950  0.95030  0.45970  Biso   1.000  H
  H76      1.0000 0.99050  0.45030  0.04030  Biso   1.000  H
  C61      1.0000 0.63260  0.11920  0.55590  Biso   1.000  C
  C62      1.0000 0.86740  0.61920  0.94410  Biso   1.000  C
  C63      1.0000 0.36740  0.88080  0.44410  Biso   1.000  C
  C64      1.0000 0.13260  0.38080  0.05590  Biso   1.000  C
  H77      1.0000 0.68870  0.10380  0.51540  Biso   1.000  H
  H78      1.0000 0.81130  0.60380  0.98460  Biso   1.000  H
  H79      1.0000 0.31130  0.89620  0.48460  Biso   1.000  H
  H80      1.0000 0.18870  0.39620  0.01540  Biso   1.000  H
  C65      1.0000 0.66990  0.17250  0.59780  Biso   1.000  C
  C66      1.0000 0.83010  0.67250  0.90220  Biso   1.000  C
  C67      1.0000 0.33010  0.82750  0.40220  Biso   1.000  C
  C68      1.0000 0.16990  0.32750  0.09780  Biso   1.000  C
  H81      1.0000 0.74960  0.19440  0.58720  Biso   1.000  H
  H82      1.0000 0.75040  0.69440  0.91280  Biso   1.000  H
  H83      1.0000 0.25040  0.80560  0.41280  Biso   1.000  H
  H84      1.0000 0.24960  0.30560  0.08720  Biso   1.000  H
  C69      1.0000 0.58280  0.19274  0.65760  Biso   1.000  C
  C70      1.0000 0.91720  0.69274  0.84240  Biso   1.000  C
  C71      1.0000 0.41720  0.80726  0.34240  Biso   1.000  C
  C72      1.0000 0.08280  0.30726  0.15760  Biso   1.000  C
  C73      1.0000 0.69350  0.29430  0.71280  Biso   1.000  C
  C74      1.0000 0.80650  0.79430  0.78720  Biso   1.000  C
  C75      1.0000 0.30650  0.70570  0.28720  Biso   1.000  C
  C76      1.0000 0.19350  0.20570  0.21280  Biso   1.000  C
  H85      1.0000 0.78530  0.27610  0.71260  Biso   1.000  H
  H86      1.0000 0.71470  0.77610  0.78740  Biso   1.000  H
  H87      1.0000 0.21470  0.72390  0.28740  Biso   1.000  H
  H88      1.0000 0.28530  0.22390  0.21260  Biso   1.000  H
  H89      1.0000 0.69080  0.31830  0.76540  Biso   1.000  H
  H90      1.0000 0.80920  0.81830  0.73460  Biso   1.000  H
  H91      1.0000 0.30920  0.68170  0.23460  Biso   1.000  H
  H92      1.0000 0.19080  0.18170  0.26540  Biso   1.000  H
  C77      1.0000 0.66390  0.33770  0.63320  Biso   1.000  C
  C78      1.0000 0.83610  0.83770  0.86680  Biso   1.000  C
  C79      1.0000 0.33610  0.66230  0.36680  Biso   1.000  C
  C80      1.0000 0.16390  0.16230  0.13320  Biso   1.000  C
  H93      1.0000 0.73700  0.36880  0.63380  Biso   1.000  H
  H94      1.0000 0.76300  0.86880  0.86620  Biso   1.000  H
  H95      1.0000 0.26300  0.63120  0.36620  Biso   1.000  H
  H96      1.0000 0.23700  0.13120  0.13380  Biso   1.000  H
  H97      1.0000 0.66670  0.31300  0.58120  Biso   1.000  H
  H98      1.0000 0.83330  0.81300  0.91880  Biso   1.000  H
  H99      1.0000 0.33330  0.68700  0.41880  Biso   1.000  H
  H100     1.0000 0.16670  0.18700  0.08120  Biso   1.000  H
  C81      1.0000 0.52400  0.37120  0.63010  Biso   1.000  C
  C82      1.0000 0.97600  0.87120  0.86990  Biso   1.000  C
  C83      1.0000 0.47600  0.62880  0.36990  Biso   1.000  C
  C84      1.0000 0.02400  0.12880  0.13010  Biso   1.000  C
  H101     1.0000 0.51300  0.39020  0.68560  Biso   1.000  H
  H102     1.0000 0.98700  0.89020  0.81440  Biso   1.000  H
  H103     1.0000 0.48700  0.60980  0.31440  Biso   1.000  H
  H104     1.0000 0.01300  0.10980  0.18560  Biso   1.000  H
  H105     1.0000 0.44930  0.34130  0.61770  Biso   1.000  H
  H106     1.0000 0.05070  0.84130  0.88230  Biso   1.000  H
  H107     1.0000 0.55070  0.65870  0.38230  Biso   1.000  H
  H108     1.0000 0.94930  0.15870  0.11770  Biso   1.000  H
  C85      1.0000 0.51700  0.42260  0.55850  Biso   1.000  C
  C86      1.0000 0.98300  0.92260  0.94150  Biso   1.000  C
  C87      1.0000 0.48300  0.57740  0.44150  Biso   1.000  C
  C88      1.0000 0.01700  0.07740  0.05850  Biso   1.000  C
  H109     1.0000 0.56780  0.40890  0.51180  Biso   1.000  H
  H110     1.0000 0.93220  0.90890  0.98820  Biso   1.000  H
  H111     1.0000 0.43220  0.59110  0.48820  Biso   1.000  H
  H112     1.0000 0.06780  0.09110  0.01180  Biso   1.000  H
  H113     1.0000 0.55700  0.46060  0.58210  Biso   1.000  H
  H114     1.0000 0.94300  0.96060  0.91790  Biso   1.000  H
  H115     1.0000 0.44300  0.53940  0.41790  Biso   1.000  H
  H116     1.0000 0.05700  0.03940  0.08210  Biso   1.000  H
  H117     1.0000 0.42190  0.42990  0.53740  Biso   1.000  H
  H118     1.0000 0.07810  0.92990  0.96260  Biso   1.000  H
  H119     1.0000 0.57810  0.57010  0.46260  Biso   1.000  H
  H120     1.0000 0.92190  0.07010  0.03740  Biso   1.000  H
  C89      1.0000 0.12040  0.36054  0.68980  Biso   1.000  C
  C90      1.0000 0.37960  0.86054  0.81020  Biso   1.000  C
  C91      1.0000 0.87960  0.63946  0.31020  Biso   1.000  C
  C92      1.0000 0.62040  0.13946  0.18980  Biso   1.000  C
  C93      1.0000 0.06000  0.38961  0.61720  Biso   1.000  C
  C94      1.0000 0.44000  0.88961  0.88280  Biso   1.000  C
  C95      1.0000 0.94000  0.61039  0.38280  Biso   1.000  C
  C96      1.0000 0.56000  0.11039  0.11720  Biso   1.000  C
  H121     1.0000 0.00950  0.36610  0.57500  Biso   1.000  H
  H122     1.0000 0.49050  0.86610  0.92500  Biso   1.000  H
  H123     1.0000 0.99050  0.63390  0.42500  Biso   1.000  H
  H124     1.0000 0.50950  0.13390  0.07500  Biso   1.000  H
  C97      1.0000 0.07290  0.45341  0.60580  Biso   1.000  C
  C98      1.0000 0.42710  0.95341  0.89420  Biso   1.000  C
  C99      1.0000 0.92710  0.54659  0.39420  Biso   1.000  C
  C100     1.0000 0.57290  0.04659  0.10580  Biso   1.000  C
  H125     1.0000 0.03020  0.47220  0.55640  Biso   1.000  H
  H126     1.0000 0.46980  0.97220  0.94360  Biso   1.000  H
  H127     1.0000 0.96980  0.52780  0.44360  Biso   1.000  H
  H128     1.0000 0.53020  0.02780  0.05640  Biso   1.000  H
  C101     1.0000 0.14860  0.48952  0.66700  Biso   1.000  C
  C102     1.0000 0.35140  0.98952  0.83300  Biso   1.000  C
  C103     1.0000 0.85140  0.51048  0.33300  Biso   1.000  C
  C104     1.0000 0.64860  0.01048  0.16700  Biso   1.000  C
  C105     1.0000 0.20690  0.45990  0.74020  Biso   1.000  C
  C106     1.0000 0.29310  0.95990  0.75980  Biso   1.000  C
  C107     1.0000 0.79310  0.54010  0.25980  Biso   1.000  C
  C108     1.0000 0.70690  0.04010  0.24020  Biso   1.000  C
  H129     1.0000 0.25670  0.48320  0.78300  Biso   1.000  H
  H130     1.0000 0.24330  0.98320  0.71700  Biso   1.000  H
  H131     1.0000 0.74330  0.51680  0.21700  Biso   1.000  H
  H132     1.0000 0.75670  0.01680  0.28300  Biso   1.000  H
  C109     1.0000 0.19260  0.39620  0.75110  Biso   1.000  C
  C110     1.0000 0.30740  0.89620  0.74890  Biso   1.000  C
  C111     1.0000 0.80740  0.60380  0.24890  Biso   1.000  C
  C112     1.0000 0.69260  0.10380  0.25110  Biso   1.000  C
  H133     1.0000 0.23300  0.37740  0.80110  Biso   1.000  H
  H134     1.0000 0.26700  0.87740  0.69890  Biso   1.000  H
  H135     1.0000 0.76700  0.62260  0.19890  Biso   1.000  H
  H136     1.0000 0.73300  0.12260  0.30110  Biso   1.000  H
  C113     1.0000 0.10950  0.29079  0.69970  Biso   1.000  C
  C114     1.0000 0.39050  0.79079  0.80030  Biso   1.000  C
  C115     1.0000 0.89050  0.70921  0.30030  Biso   1.000  C
  C116     1.0000 0.60950  0.20921  0.19970  Biso   1.000  C
  C117     1.0000 0.16310  0.55915  0.65380  Biso   1.000  C
  C118     1.0000 0.33690  0.05915  0.84620  Biso   1.000  C
  C119     1.0000 0.83690  0.44085  0.34620  Biso   1.000  C
  C120     1.0000 0.66310  0.94085  0.15380  Biso   1.000  C
  O21      1.0000 0.55400  0.35113  0.10670  Biso   1.000  O
  O22      1.0000 0.94600  0.85113  0.39330  Biso   1.000  O
  O23      1.0000 0.44600  0.64887  0.89330  Biso   1.000  O
  O24      1.0000 0.05400  0.14887  0.60670  Biso   1.000  O
  H137     1.0000 0.54430  0.31350  0.11390  Biso   1.000  H
  H138     1.0000 0.95570  0.81350  0.38610  Biso   1.000  H
  H139     1.0000 0.45570  0.68650  0.88610  Biso   1.000  H
  H140     1.0000 0.04430  0.18650  0.61390  Biso   1.000  H
  O25      1.0000 0.45040  0.33043  0.97592  Biso   1.000  O
  O26      1.0000 0.04960  0.83043  0.52408  Biso   1.000  O
  O27      1.0000 0.54960  0.66957  0.02408  Biso   1.000  O
  O28      1.0000 0.95040  0.16957  0.47592  Biso   1.000  O
  C121     1.0000 0.49960  0.36657  0.02970  Biso   1.000  C
  C122     1.0000 0.00040  0.86657  0.47030  Biso   1.000  C
  C123     1.0000 0.50040  0.63343  0.97030  Biso   1.000  C
  C124     1.0000 0.99960  0.13343  0.52970  Biso   1.000  C
  C125     1.0000 0.50140  0.43600  0.01490  Biso   1.000  C
  C126     1.0000 0.99860  0.93600  0.48510  Biso   1.000  C
  C127     1.0000 0.49860  0.56400  0.98510  Biso   1.000  C
  C128     1.0000 0.00140  0.06400  0.51490  Biso   1.000  C
  C129     1.0000 0.55830  0.47635  0.07740  Biso   1.000  C
  C130     1.0000 0.94170  0.97635  0.42260  Biso   1.000  C
  C131     1.0000 0.44170  0.52365  0.92260  Biso   1.000  C
  C132     1.0000 0.05830  0.02365  0.57740  Biso   1.000  C
  H141     1.0000 0.59750  0.46060  0.12980  Biso   1.000  H
  H142     1.0000 0.90250  0.96060  0.37020  Biso   1.000  H
  H143     1.0000 0.40250  0.53940  0.87020  Biso   1.000  H
  H144     1.0000 0.09750  0.03940  0.62980  Biso   1.000  H
  C133     1.0000 0.55740  0.54021  0.06270  Biso   1.000  C
  C134     1.0000 0.94260  0.04021  0.43730  Biso   1.000  C
  C135     1.0000 0.44260  0.45979  0.93730  Biso   1.000  C
  C136     1.0000 0.05740  0.95979  0.56270  Biso   1.000  C
  H145     1.0000 0.59640  0.56720  0.10510  Biso   1.000  H
  H146     1.0000 0.90360  0.06720  0.39490  Biso   1.000  H
  H147     1.0000 0.40360  0.43280  0.89490  Biso   1.000  H
  H148     1.0000 0.09640  0.93280  0.60510  Biso   1.000  H
