data_image0
_cell_length_a       21.212
_cell_length_b       5.033
_cell_length_c       14.246
_cell_angle_alpha    90
_cell_angle_beta     100.72
_cell_angle_gamma    90

_symmetry_space_group_name_H-M    "P 1"
_symmetry_int_tables_number       1

loop_
  _symmetry_equiv_pos_as_xyz
  'x, y, z'

loop_
  _atom_site_label
  _atom_site_occupancy
  _atom_site_fract_x
  _atom_site_fract_y
  _atom_site_fract_z
  _atom_site_thermal_displace_type
  _atom_site_B_iso_or_equiv
  _atom_site_type_symbol
  Cu1      1.0000 0.25559  0.15939  0.54240  Biso   1.000  Cu
  Cu2      1.0000 0.74441  0.65939  0.95760  Biso   1.000  Cu
  Cu3      1.0000 0.74441  0.84061  0.45760  Biso   1.000  Cu
  Cu4      1.0000 0.25559  0.34061  0.04240  Biso   1.000  Cu
  Mn1      1.0000 0.00000  0.00000  0.50000  Biso   1.000  Mn
  Mn2      1.0000 0.00000  0.50000  0.00000  Biso   1.000  Mn
  Mn3      1.0000 0.50000  0.00000  0.50000  Biso   1.000  Mn
  Mn4      1.0000 0.50000  0.50000  0.00000  Biso   1.000  Mn
  O1       1.0000 0.06820  0.27470  0.45860  Biso   1.000  O
  O2       1.0000 0.93180  0.77470  0.04140  Biso   1.000  O
  O3       1.0000 0.93180  0.72530  0.54140  Biso   1.000  O
  O4       1.0000 0.06820  0.22530  0.95860  Biso   1.000  O
  O5       1.0000 0.09120  0.87710  0.58830  Biso   1.000  O
  O6       1.0000 0.90880  0.37710  0.91170  Biso   1.000  O
  O7       1.0000 0.90880  0.12290  0.41170  Biso   1.000  O
  O8       1.0000 0.09120  0.62290  0.08830  Biso   1.000  O
  O9       1.0000 0.19610  0.94330  0.60350  Biso   1.000  O
  O10      1.0000 0.80390  0.44330  0.89650  Biso   1.000  O
  O11      1.0000 0.80390  0.05670  0.39650  Biso   1.000  O
  O12      1.0000 0.19610  0.55670  0.10350  Biso   1.000  O
  O13      1.0000 0.32890  0.93310  0.59670  Biso   1.000  O
  O14      1.0000 0.67110  0.43310  0.90330  Biso   1.000  O
  O15      1.0000 0.67110  0.06690  0.40330  Biso   1.000  O
  O16      1.0000 0.32890  0.56690  0.09670  Biso   1.000  O
  O17      1.0000 0.41770  0.24330  0.44250  Biso   1.000  O
  O18      1.0000 0.58230  0.74330  0.05750  Biso   1.000  O
  O19      1.0000 0.58230  0.75670  0.55750  Biso   1.000  O
  O20      1.0000 0.41770  0.25670  0.94250  Biso   1.000  O
  O21      1.0000 0.42940  0.86110  0.57940  Biso   1.000  O
  O22      1.0000 0.57060  0.36110  0.92060  Biso   1.000  O
  O23      1.0000 0.57060  0.13890  0.42060  Biso   1.000  O
  O24      1.0000 0.42940  0.63890  0.07940  Biso   1.000  O
  O25      1.0000 0.21420  0.18170  0.30150  Biso   1.000  O
  O26      1.0000 0.78580  0.68170  0.19850  Biso   1.000  O
  O27      1.0000 0.78580  0.81830  0.69850  Biso   1.000  O
  O28      1.0000 0.21420  0.31830  0.80150  Biso   1.000  O
  O29      1.0000 0.01650  0.74280  0.38140  Biso   1.000  O
  O30      1.0000 0.98350  0.24280  0.11860  Biso   1.000  O
  O31      1.0000 0.98350  0.25720  0.61860  Biso   1.000  O
  O32      1.0000 0.01650  0.75720  0.88140  Biso   1.000  O
  O33      1.0000 0.46810  0.71020  0.38420  Biso   1.000  O
  O34      1.0000 0.53190  0.21020  0.11580  Biso   1.000  O
  O35      1.0000 0.53190  0.28980  0.61580  Biso   1.000  O
  O36      1.0000 0.46810  0.78980  0.88420  Biso   1.000  O
  O37      1.0000 0.28750  0.44700  0.67020  Biso   1.000  O
  O38      1.0000 0.71250  0.94700  0.82980  Biso   1.000  O
  O39      1.0000 0.71250  0.55300  0.32980  Biso   1.000  O
  O40      1.0000 0.28750  0.05300  0.17020  Biso   1.000  O
  O41      1.0000 0.09020  0.51060  0.73700  Biso   1.000  O
  O42      1.0000 0.90980  0.01060  0.76300  Biso   1.000  O
  O43      1.0000 0.90980  0.48940  0.26300  Biso   1.000  O
  O44      1.0000 0.09020  0.98940  0.23700  Biso   1.000  O
  O45      1.0000 0.42410  0.46400  0.71820  Biso   1.000  O
  O46      1.0000 0.57590  0.96400  0.78180  Biso   1.000  O
  O47      1.0000 0.57590  0.53600  0.28180  Biso   1.000  O
  O48      1.0000 0.42410  0.03600  0.21820  Biso   1.000  O
  N1       1.0000 0.17800  0.31960  0.47390  Biso   1.000  N
  N2       1.0000 0.82200  0.81960  0.02610  Biso   1.000  N
  N3       1.0000 0.82200  0.68040  0.52610  Biso   1.000  N
  N4       1.0000 0.17800  0.18040  0.97390  Biso   1.000  N
  N5       1.0000 0.31250  0.29320  0.46130  Biso   1.000  N
  N6       1.0000 0.68750  0.79320  0.03870  Biso   1.000  N
  N7       1.0000 0.68750  0.70680  0.53870  Biso   1.000  N
  N8       1.0000 0.31250  0.20680  0.96130  Biso   1.000  N
  C1       1.0000 0.13860  0.99660  0.56870  Biso   1.000  C
  C2       1.0000 0.86140  0.49660  0.93130  Biso   1.000  C
  C3       1.0000 0.86140  0.00340  0.43130  Biso   1.000  C
  C4       1.0000 0.13860  0.50340  0.06870  Biso   1.000  C
  C5       1.0000 0.12610  0.21900  0.49360  Biso   1.000  C
  C6       1.0000 0.87390  0.71900  0.00640  Biso   1.000  C
  C7       1.0000 0.87390  0.78100  0.50640  Biso   1.000  C
  C8       1.0000 0.12610  0.28100  0.99360  Biso   1.000  C
  C9       1.0000 0.17590  0.51210  0.39750  Biso   1.000  C
  C10      1.0000 0.82410  0.01210  0.10250  Biso   1.000  C
  C11      1.0000 0.82410  0.48790  0.60250  Biso   1.000  C
  C12      1.0000 0.17590  0.98790  0.89750  Biso   1.000  C
  C13      1.0000 0.22480  0.44760  0.33490  Biso   1.000  C
  C14      1.0000 0.77520  0.94760  0.16510  Biso   1.000  C
  C15      1.0000 0.77520  0.55240  0.66510  Biso   1.000  C
  C16      1.0000 0.22480  0.05240  0.83490  Biso   1.000  C
  C17      1.0000 0.29470  0.47890  0.38250  Biso   1.000  C
  C18      1.0000 0.70530  0.97890  0.11750  Biso   1.000  C
  C19      1.0000 0.70530  0.52110  0.61750  Biso   1.000  C
  C20      1.0000 0.29470  0.02110  0.88250  Biso   1.000  C
  C21      1.0000 0.36930  0.19280  0.48080  Biso   1.000  C
  C22      1.0000 0.63070  0.69280  0.01920  Biso   1.000  C
  C23      1.0000 0.63070  0.80720  0.51920  Biso   1.000  C
  C24      1.0000 0.36930  0.30720  0.98080  Biso   1.000  C
  C25      1.0000 0.37710  0.97950  0.55900  Biso   1.000  C
  C26      1.0000 0.62290  0.47950  0.94100  Biso   1.000  C
  C27      1.0000 0.62290  0.02050  0.44100  Biso   1.000  C
  C28      1.0000 0.37710  0.52050  0.05900  Biso   1.000  C
  H1       1.0000 0.18700  0.68300  0.42900  Biso   1.000  H
  H2       1.0000 0.81300  0.18300  0.07100  Biso   1.000  H
  H3       1.0000 0.81300  0.31700  0.57100  Biso   1.000  H
  H4       1.0000 0.18700  0.81700  0.92900  Biso   1.000  H
  H5       1.0000 0.13200  0.52000  0.35800  Biso   1.000  H
  H6       1.0000 0.86800  0.02000  0.14200  Biso   1.000  H
  H7       1.0000 0.86800  0.48000  0.64200  Biso   1.000  H
  H8       1.0000 0.13200  0.98000  0.85800  Biso   1.000  H
  H9       1.0000 0.21800  0.57200  0.27800  Biso   1.000  H
  H10      1.0000 0.78200  0.07200  0.22200  Biso   1.000  H
  H11      1.0000 0.78200  0.42800  0.72200  Biso   1.000  H
  H12      1.0000 0.21800  0.92800  0.77800  Biso   1.000  H
  H13      1.0000 0.32300  0.44500  0.33400  Biso   1.000  H
  H14      1.0000 0.67700  0.94500  0.16600  Biso   1.000  H
  H15      1.0000 0.67700  0.55500  0.66600  Biso   1.000  H
  H16      1.0000 0.32300  0.05500  0.83400  Biso   1.000  H
  H17      1.0000 0.30200  0.64600  0.40300  Biso   1.000  H
  H18      1.0000 0.69800  0.14600  0.09700  Biso   1.000  H
  H19      1.0000 0.69800  0.35400  0.59700  Biso   1.000  H
  H20      1.0000 0.30200  0.85400  0.90300  Biso   1.000  H
  H21      1.0000 0.17960  0.08390  0.26950  Biso   1.000  H
  H22      1.0000 0.82040  0.58390  0.23050  Biso   1.000  H
  H23      1.0000 0.82040  0.91610  0.73050  Biso   1.000  H
  H24      1.0000 0.17960  0.41610  0.76950  Biso   1.000  H
  H25      1.0000 0.04100  0.54300  0.39450  Biso   1.000  H
  H26      1.0000 0.95900  0.04300  0.10550  Biso   1.000  H
  H27      1.0000 0.95900  0.45700  0.60550  Biso   1.000  H
  H28      1.0000 0.04100  0.95700  0.89450  Biso   1.000  H
  H29      1.0000 0.04100  0.79300  0.33200  Biso   1.000  H
  H30      1.0000 0.95900  0.29300  0.16800  Biso   1.000  H
  H31      1.0000 0.95900  0.20700  0.66800  Biso   1.000  H
  H32      1.0000 0.04100  0.70700  0.83200  Biso   1.000  H
  H33      1.0000 0.44330  0.54300  0.41600  Biso   1.000  H
  H34      1.0000 0.55670  0.04300  0.08400  Biso   1.000  H
  H35      1.0000 0.55670  0.45700  0.58400  Biso   1.000  H
  H36      1.0000 0.44330  0.95700  0.91600  Biso   1.000  H
  H37      1.0000 0.44330  0.79300  0.33200  Biso   1.000  H
  H38      1.0000 0.55670  0.29300  0.16800  Biso   1.000  H
  H39      1.0000 0.55670  0.20700  0.66800  Biso   1.000  H
  H40      1.0000 0.44330  0.70700  0.83200  Biso   1.000  H
  H41      1.0000 0.27730  0.45700  0.70700  Biso   1.000  H
  H42      1.0000 0.72270  0.95700  0.79300  Biso   1.000  H
  H43      1.0000 0.72270  0.54300  0.29300  Biso   1.000  H
  H44      1.0000 0.27730  0.04300  0.20700  Biso   1.000  H
  H45      1.0000 0.26360  0.58200  0.64450  Biso   1.000  H
  H46      1.0000 0.73640  0.08200  0.85550  Biso   1.000  H
  H47      1.0000 0.73640  0.41800  0.35550  Biso   1.000  H
  H48      1.0000 0.26360  0.91800  0.14450  Biso   1.000  H
