data_image0
_cell_length_a       8.877
_cell_length_b       7.112
_cell_length_c       14.876
_cell_angle_alpha    90
_cell_angle_beta     93.94
_cell_angle_gamma    90

_symmetry_space_group_name_H-M    "P 1"
_symmetry_int_tables_number       1

loop_
  _symmetry_equiv_pos_as_xyz
  'x, y, z'

loop_
  _atom_site_label
  _atom_site_occupancy
  _atom_site_fract_x
  _atom_site_fract_y
  _atom_site_fract_z
  _atom_site_thermal_displace_type
  _atom_site_B_iso_or_equiv
  _atom_site_type_symbol
  Cu1      1.0000 0.50000  0.00000  0.00000  Biso   1.000  Cu
  Cu2      1.0000 0.00000  0.50000  0.50000  Biso   1.000  Cu
  Cu3      1.0000 0.50000  0.50000  0.00000  Biso   1.000  Cu
  Cu4      1.0000 0.00000  0.00000  0.50000  Biso   1.000  Cu
  Cl1      1.0000 0.63620  0.77610  0.07660  Biso   1.000  Cl
  Cl2      1.0000 0.36380  0.77610  0.92340  Biso   1.000  Cl
  Cl3      1.0000 0.13620  0.27610  0.57660  Biso   1.000  Cl
  Cl4      1.0000 0.86380  0.27610  0.42340  Biso   1.000  Cl
  Cl5      1.0000 0.36380  0.22390  0.92340  Biso   1.000  Cl
  Cl6      1.0000 0.63620  0.22390  0.07660  Biso   1.000  Cl
  Cl7      1.0000 0.86380  0.72390  0.42340  Biso   1.000  Cl
  Cl8      1.0000 0.13620  0.72390  0.57660  Biso   1.000  Cl
  N1       1.0000 0.86330  0.50000  0.85120  Biso   1.000  N
  N2       1.0000 0.13670  0.50000  0.14880  Biso   1.000  N
  N3       1.0000 0.36330  0.00000  0.35120  Biso   1.000  N
  N4       1.0000 0.63670  0.00000  0.64880  Biso   1.000  N
  N5       1.0000 0.79040  0.50000  0.92670  Biso   1.000  N
  N6       1.0000 0.20960  0.50000  0.07330  Biso   1.000  N
  N7       1.0000 0.29040  0.00000  0.42670  Biso   1.000  N
  N8       1.0000 0.70960  0.00000  0.57330  Biso   1.000  N
  N9       1.0000 0.64480  0.50000  0.90400  Biso   1.000  N
  N10      1.0000 0.35520  0.50000  0.09600  Biso   1.000  N
  N11      1.0000 0.14480  0.00000  0.40400  Biso   1.000  N
  N12      1.0000 0.85520  0.00000  0.59600  Biso   1.000  N
  C1       1.0000 0.49140  0.50000  0.75250  Biso   1.000  C
  C2       1.0000 0.50860  0.50000  0.24750  Biso   1.000  C
  C3       1.0000 0.99140  0.00000  0.25250  Biso   1.000  C
  C4       1.0000 0.00860  0.00000  0.74750  Biso   1.000  C
  C5       1.0000 0.51250  0.50000  0.66210  Biso   1.000  C
  C6       1.0000 0.48750  0.50000  0.33790  Biso   1.000  C
  C7       1.0000 0.01250  0.00000  0.16210  Biso   1.000  C
  C8       1.0000 0.98750  0.00000  0.83790  Biso   1.000  C
  C9       1.0000 0.65730  0.50000  0.62890  Biso   1.000  C
  C10      1.0000 0.34270  0.50000  0.37110  Biso   1.000  C
  C11      1.0000 0.15730  0.00000  0.12890  Biso   1.000  C
  C12      1.0000 0.84270  0.00000  0.87110  Biso   1.000  C
  C13      1.0000 0.78500  0.50000  0.68510  Biso   1.000  C
  C14      1.0000 0.21500  0.50000  0.31490  Biso   1.000  C
  C15      1.0000 0.28500  0.00000  0.18510  Biso   1.000  C
  C16      1.0000 0.71500  0.00000  0.81490  Biso   1.000  C
  C17      1.0000 0.62170  0.50000  0.81120  Biso   1.000  C
  C18      1.0000 0.37830  0.50000  0.18880  Biso   1.000  C
  C19      1.0000 0.12170  0.00000  0.31120  Biso   1.000  C
  C20      1.0000 0.87830  0.00000  0.68880  Biso   1.000  C
  C21      1.0000 0.76440  0.50000  0.77720  Biso   1.000  C
  C22      1.0000 0.23560  0.50000  0.22280  Biso   1.000  C
  C23      1.0000 0.26440  0.00000  0.27720  Biso   1.000  C
  C24      1.0000 0.73560  0.00000  0.72280  Biso   1.000  C
  C25      1.0000 0.02810  0.50000  0.85520  Biso   1.000  C
  C26      1.0000 0.97190  0.50000  0.14480  Biso   1.000  C
  C27      1.0000 0.52810  0.00000  0.35520  Biso   1.000  C
  C28      1.0000 0.47190  0.00000  0.64480  Biso   1.000  C
  H1       1.0000 0.40300  0.50000  0.77300  Biso   1.000  H
  H2       1.0000 0.59700  0.50000  0.22700  Biso   1.000  H
  H3       1.0000 0.90300  0.00000  0.27300  Biso   1.000  H
  H4       1.0000 0.09700  0.00000  0.72700  Biso   1.000  H
  H5       1.0000 0.43400  0.50000  0.62200  Biso   1.000  H
  H6       1.0000 0.56600  0.50000  0.37800  Biso   1.000  H
  H7       1.0000 0.93400  0.00000  0.12200  Biso   1.000  H
  H8       1.0000 0.06600  0.00000  0.87800  Biso   1.000  H
  H9       1.0000 0.65800  0.50000  0.56700  Biso   1.000  H
  H10      1.0000 0.34200  0.50000  0.43300  Biso   1.000  H
  H11      1.0000 0.15800  0.00000  0.06700  Biso   1.000  H
  H12      1.0000 0.84200  0.00000  0.93300  Biso   1.000  H
  H13      1.0000 0.87200  0.50000  0.66800  Biso   1.000  H
  H14      1.0000 0.12800  0.50000  0.33200  Biso   1.000  H
  H15      1.0000 0.37200  0.00000  0.16800  Biso   1.000  H
  H16      1.0000 0.62800  0.00000  0.83200  Biso   1.000  H
  H17      1.0000 0.06400  0.50000  0.90300  Biso   1.000  H
  H18      1.0000 0.93600  0.50000  0.09700  Biso   1.000  H
  H19      1.0000 0.56400  0.00000  0.40300  Biso   1.000  H
  H20      1.0000 0.43600  0.00000  0.59700  Biso   1.000  H
  H21      1.0000 0.06300  0.40100  0.81800  Biso   1.000  H
  H22      1.0000 0.93700  0.40100  0.18200  Biso   1.000  H
  H23      1.0000 0.56300  0.90100  0.31800  Biso   1.000  H
  H24      1.0000 0.43700  0.90100  0.68200  Biso   1.000  H
  H25      1.0000 0.93700  0.59900  0.18200  Biso   1.000  H
  H26      1.0000 0.06300  0.59900  0.81800  Biso   1.000  H
  H27      1.0000 0.43700  0.09900  0.68200  Biso   1.000  H
  H28      1.0000 0.56300  0.09900  0.31800  Biso   1.000  H
