data_image0
_cell_length_a       8.877
_cell_length_b       7.113
_cell_length_c       14.876
_cell_angle_alpha    90
_cell_angle_beta     93.94
_cell_angle_gamma    90

_symmetry_space_group_name_H-M    "P 1"
_symmetry_int_tables_number       1

loop_
  _symmetry_equiv_pos_as_xyz
  'x, y, z'

loop_
  _atom_site_label
  _atom_site_occupancy
  _atom_site_fract_x
  _atom_site_fract_y
  _atom_site_fract_z
  _atom_site_thermal_displace_type
  _atom_site_B_iso_or_equiv
  _atom_site_type_symbol
  Cu1      1.0000 0.00000  0.50000  0.50000  Biso   1.000  Cu
  Cu2      1.0000 0.50000  0.00000  0.00000  Biso   1.000  Cu
  Cu3      1.0000 0.00000  0.00000  0.50000  Biso   1.000  Cu
  Cu4      1.0000 0.50000  0.50000  0.00000  Biso   1.000  Cu
  Cl1      1.0000 0.13623  0.27586  0.57661  Biso   1.000  Cl
  Cl2      1.0000 0.63623  0.77586  0.07661  Biso   1.000  Cl
  Cl3      1.0000 0.86377  0.27586  0.42339  Biso   1.000  Cl
  Cl4      1.0000 0.36377  0.77586  0.92339  Biso   1.000  Cl
  Cl5      1.0000 0.86377  0.72414  0.42339  Biso   1.000  Cl
  Cl6      1.0000 0.36377  0.22414  0.92339  Biso   1.000  Cl
  Cl7      1.0000 0.13623  0.72414  0.57661  Biso   1.000  Cl
  Cl8      1.0000 0.63623  0.22414  0.07661  Biso   1.000  Cl
  N1       1.0000 0.36290  0.00000  0.35126  Biso   1.000  N
  N2       1.0000 0.86290  0.50000  0.85126  Biso   1.000  N
  N3       1.0000 0.63710  0.00000  0.64874  Biso   1.000  N
  N4       1.0000 0.13710  0.50000  0.14874  Biso   1.000  N
  N5       1.0000 0.29040  0.00000  0.42653  Biso   1.000  N
  N6       1.0000 0.79040  0.50000  0.92653  Biso   1.000  N
  N7       1.0000 0.70960  0.00000  0.57347  Biso   1.000  N
  N8       1.0000 0.20960  0.50000  0.07347  Biso   1.000  N
  N9       1.0000 0.14470  0.00000  0.40392  Biso   1.000  N
  N10      1.0000 0.64470  0.50000  0.90392  Biso   1.000  N
  N11      1.0000 0.85530  0.00000  0.59608  Biso   1.000  N
  N12      1.0000 0.35530  0.50000  0.09608  Biso   1.000  N
  C1       1.0000 0.99170  0.00000  0.25248  Biso   1.000  C
  C2       1.0000 0.49170  0.50000  0.75248  Biso   1.000  C
  C3       1.0000 0.00830  0.00000  0.74752  Biso   1.000  C
  C4       1.0000 0.50830  0.50000  0.24752  Biso   1.000  C
  C5       1.0000 0.01190  0.00000  0.16207  Biso   1.000  C
  C6       1.0000 0.51190  0.50000  0.66207  Biso   1.000  C
  C7       1.0000 0.98810  0.00000  0.83793  Biso   1.000  C
  C8       1.0000 0.48810  0.50000  0.33793  Biso   1.000  C
  C9       1.0000 0.15730  0.00000  0.12880  Biso   1.000  C
  C10      1.0000 0.65730  0.50000  0.62880  Biso   1.000  C
  C11      1.0000 0.84270  0.00000  0.87120  Biso   1.000  C
  C12      1.0000 0.34270  0.50000  0.37120  Biso   1.000  C
  C13      1.0000 0.28520  0.00000  0.18489  Biso   1.000  C
  C14      1.0000 0.78520  0.50000  0.68489  Biso   1.000  C
  C15      1.0000 0.71480  0.00000  0.81511  Biso   1.000  C
  C16      1.0000 0.21480  0.50000  0.31511  Biso   1.000  C
  C17      1.0000 0.12170  0.00000  0.31116  Biso   1.000  C
  C18      1.0000 0.62170  0.50000  0.81116  Biso   1.000  C
  C19      1.0000 0.87830  0.00000  0.68884  Biso   1.000  C
  C20      1.0000 0.37830  0.50000  0.18884  Biso   1.000  C
  C21      1.0000 0.26450  0.00000  0.27741  Biso   1.000  C
  C22      1.0000 0.76450  0.50000  0.77741  Biso   1.000  C
  C23      1.0000 0.73550  0.00000  0.72259  Biso   1.000  C
  C24      1.0000 0.23550  0.50000  0.22259  Biso   1.000  C
  C25      1.0000 0.52810  0.00000  0.35540  Biso   1.000  C
  C26      1.0000 0.02810  0.50000  0.85540  Biso   1.000  C
  C27      1.0000 0.47190  0.00000  0.64460  Biso   1.000  C
  C28      1.0000 0.97190  0.50000  0.14460  Biso   1.000  C
  H1       1.0000 0.90100  0.00000  0.27380  Biso   1.000  H
  H2       1.0000 0.40100  0.50000  0.77380  Biso   1.000  H
  H3       1.0000 0.09900  0.00000  0.72620  Biso   1.000  H
  H4       1.0000 0.59900  0.50000  0.22620  Biso   1.000  H
  H5       1.0000 0.93100  0.00000  0.12400  Biso   1.000  H
  H6       1.0000 0.43100  0.50000  0.62400  Biso   1.000  H
  H7       1.0000 0.06900  0.00000  0.87600  Biso   1.000  H
  H8       1.0000 0.56900  0.50000  0.37600  Biso   1.000  H
  H9       1.0000 0.16200  0.00000  0.07000  Biso   1.000  H
  H10      1.0000 0.66200  0.50000  0.57000  Biso   1.000  H
  H11      1.0000 0.83800  0.00000  0.93000  Biso   1.000  H
  H12      1.0000 0.33800  0.50000  0.43000  Biso   1.000  H
  H13      1.0000 0.38300  0.00000  0.16600  Biso   1.000  H
  H14      1.0000 0.88300  0.50000  0.66600  Biso   1.000  H
  H15      1.0000 0.61700  0.00000  0.83400  Biso   1.000  H
  H16      1.0000 0.11700  0.50000  0.33400  Biso   1.000  H
  H17      1.0000 0.56500  0.00000  0.40500  Biso   1.000  H
  H18      1.0000 0.06500  0.50000  0.90500  Biso   1.000  H
  H19      1.0000 0.43500  0.00000  0.59500  Biso   1.000  H
  H20      1.0000 0.93500  0.50000  0.09500  Biso   1.000  H
  H21      1.0000 0.56000  0.90500  0.32000  Biso   1.000  H
  H22      1.0000 0.06000  0.40500  0.82000  Biso   1.000  H
  H23      1.0000 0.44000  0.90500  0.68000  Biso   1.000  H
  H24      1.0000 0.94000  0.40500  0.18000  Biso   1.000  H
  H25      1.0000 0.44000  0.09500  0.68000  Biso   1.000  H
  H26      1.0000 0.94000  0.59500  0.18000  Biso   1.000  H
  H27      1.0000 0.56000  0.09500  0.32000  Biso   1.000  H
  H28      1.0000 0.06000  0.59500  0.82000  Biso   1.000  H
