data_image0
_cell_length_a       16.936
_cell_length_b       12.3483
_cell_length_c       20.2453
_cell_angle_alpha    90
_cell_angle_beta     90
_cell_angle_gamma    90

_symmetry_space_group_name_H-M    "P 1"
_symmetry_int_tables_number       1

loop_
  _symmetry_equiv_pos_as_xyz
  'x, y, z'

loop_
  _atom_site_label
  _atom_site_occupancy
  _atom_site_fract_x
  _atom_site_fract_y
  _atom_site_fract_z
  _atom_site_thermal_displace_type
  _atom_site_B_iso_or_equiv
  _atom_site_type_symbol
  Cu1      1.0000 0.25012  0.03593  0.28526  Biso   1.000  Cu
  Cu2      1.0000 0.24988  0.46407  0.78526  Biso   1.000  Cu
  Cu3      1.0000 0.74989  0.03593  0.21474  Biso   1.000  Cu
  Cu4      1.0000 0.75011  0.46407  0.71474  Biso   1.000  Cu
  Cu5      1.0000 0.74989  0.96407  0.71474  Biso   1.000  Cu
  Cu6      1.0000 0.75011  0.53593  0.21474  Biso   1.000  Cu
  Cu7      1.0000 0.25012  0.96407  0.78526  Biso   1.000  Cu
  Cu8      1.0000 0.24988  0.53593  0.28526  Biso   1.000  Cu
  N1       1.0000 0.24541  0.87474  0.27200  Biso   1.000  N
  N2       1.0000 0.25459  0.62526  0.77200  Biso   1.000  N
  N3       1.0000 0.75459  0.87474  0.22800  Biso   1.000  N
  N4       1.0000 0.74541  0.62526  0.72800  Biso   1.000  N
  N5       1.0000 0.75459  0.12526  0.72800  Biso   1.000  N
  N6       1.0000 0.74541  0.37474  0.22800  Biso   1.000  N
  N7       1.0000 0.24541  0.12526  0.77200  Biso   1.000  N
  N8       1.0000 0.25459  0.37474  0.27200  Biso   1.000  N
  N9       1.0000 0.17773  0.04300  0.36387  Biso   1.000  N
  N10      1.0000 0.32227  0.45700  0.86387  Biso   1.000  N
  N11      1.0000 0.82227  0.04300  0.13613  Biso   1.000  N
  N12      1.0000 0.67773  0.45700  0.63613  Biso   1.000  N
  N13      1.0000 0.82227  0.95700  0.63613  Biso   1.000  N
  N14      1.0000 0.67773  0.54300  0.13613  Biso   1.000  N
  N15      1.0000 0.17773  0.95700  0.86387  Biso   1.000  N
  N16      1.0000 0.32227  0.54300  0.36387  Biso   1.000  N
  O1       1.0000 0.32646  0.02865  0.21023  Biso   1.000  O
  O2       1.0000 0.17354  0.47135  0.71023  Biso   1.000  O
  O3       1.0000 0.67354  0.02865  0.28977  Biso   1.000  O
  O4       1.0000 0.82646  0.47135  0.78977  Biso   1.000  O
  O5       1.0000 0.67354  0.97135  0.78977  Biso   1.000  O
  O6       1.0000 0.82646  0.52865  0.28977  Biso   1.000  O
  O7       1.0000 0.32646  0.97135  0.71023  Biso   1.000  O
  O8       1.0000 0.17354  0.52865  0.21023  Biso   1.000  O
  N17      1.0000 0.33381  0.99884  0.37100  Biso   1.000  N
  N18      1.0000 0.16619  0.50116  0.87100  Biso   1.000  N
  N19      1.0000 0.66619  0.99884  0.12900  Biso   1.000  N
  N20      1.0000 0.83381  0.50116  0.62900  Biso   1.000  N
  N21      1.0000 0.66619  0.00116  0.62900  Biso   1.000  N
  N22      1.0000 0.83381  0.49884  0.12900  Biso   1.000  N
  N23      1.0000 0.33381  0.00116  0.87100  Biso   1.000  N
  N24      1.0000 0.16619  0.49884  0.37100  Biso   1.000  N
  O9       1.0000 0.95789  0.77658  0.40178  Biso   1.000  O
  O10      1.0000 0.54211  0.72342  0.90178  Biso   1.000  O
  O11      1.0000 0.04211  0.77658  0.09822  Biso   1.000  O
  O12      1.0000 0.45789  0.72342  0.59822  Biso   1.000  O
  O13      1.0000 0.04211  0.22342  0.59822  Biso   1.000  O
  O14      1.0000 0.45789  0.27658  0.09822  Biso   1.000  O
  O15      1.0000 0.95789  0.22342  0.90178  Biso   1.000  O
  O16      1.0000 0.54211  0.27658  0.40178  Biso   1.000  O
  C1       1.0000 0.22198  0.78133  0.29916  Biso   1.000  C
  C2       1.0000 0.27802  0.71867  0.79916  Biso   1.000  C
  C3       1.0000 0.77802  0.78133  0.20084  Biso   1.000  C
  C4       1.0000 0.72198  0.71867  0.70084  Biso   1.000  C
  C5       1.0000 0.77802  0.21867  0.70084  Biso   1.000  C
  C6       1.0000 0.72198  0.28133  0.20084  Biso   1.000  C
  C7       1.0000 0.22198  0.21867  0.79916  Biso   1.000  C
  C8       1.0000 0.27802  0.28133  0.29916  Biso   1.000  C
  C9       1.0000 0.08699  0.78152  0.34885  Biso   1.000  C
  C10      1.0000 0.41301  0.71848  0.84885  Biso   1.000  C
  C11      1.0000 0.91301  0.78152  0.15115  Biso   1.000  C
  C12      1.0000 0.58699  0.71848  0.65115  Biso   1.000  C
  C13      1.0000 0.91301  0.21848  0.65115  Biso   1.000  C
  C14      1.0000 0.58699  0.28152  0.15115  Biso   1.000  C
  C15      1.0000 0.08699  0.21848  0.84885  Biso   1.000  C
  C16      1.0000 0.41301  0.28152  0.34885  Biso   1.000  C
  H1       1.0000 0.06550  0.79520  0.30740  Biso   1.000  H
  H2       1.0000 0.43450  0.70480  0.80740  Biso   1.000  H
  H3       1.0000 0.93450  0.79520  0.19260  Biso   1.000  H
  H4       1.0000 0.56550  0.70480  0.69260  Biso   1.000  H
  H5       1.0000 0.93450  0.20480  0.69260  Biso   1.000  H
  H6       1.0000 0.56550  0.29520  0.19260  Biso   1.000  H
  H7       1.0000 0.06550  0.20480  0.80740  Biso   1.000  H
  H8       1.0000 0.43450  0.29520  0.30740  Biso   1.000  H
  O17      1.0000 0.39126  0.91107  0.14734  Biso   1.000  O
  O18      1.0000 0.10874  0.58893  0.64734  Biso   1.000  O
  O19      1.0000 0.60874  0.91107  0.35266  Biso   1.000  O
  O20      1.0000 0.89126  0.58893  0.85266  Biso   1.000  O
  O21      1.0000 0.60874  0.08893  0.85266  Biso   1.000  O
  O22      1.0000 0.89126  0.41107  0.35266  Biso   1.000  O
  O23      1.0000 0.39126  0.08893  0.64734  Biso   1.000  O
  O24      1.0000 0.10874  0.41107  0.14734  Biso   1.000  O
  C17      1.0000 0.16832  0.77219  0.35659  Biso   1.000  C
  C18      1.0000 0.33168  0.72781  0.85659  Biso   1.000  C
  C19      1.0000 0.83168  0.77219  0.14341  Biso   1.000  C
  C20      1.0000 0.66832  0.72781  0.64341  Biso   1.000  C
  C21      1.0000 0.83168  0.22781  0.64341  Biso   1.000  C
  C22      1.0000 0.66832  0.27219  0.14341  Biso   1.000  C
  C23      1.0000 0.16832  0.22781  0.85659  Biso   1.000  C
  C24      1.0000 0.33168  0.27219  0.35659  Biso   1.000  C
  C25      1.0000 0.10296  0.07310  0.36051  Biso   1.000  C
  C26      1.0000 0.39704  0.42690  0.86051  Biso   1.000  C
  C27      1.0000 0.89704  0.07310  0.13949  Biso   1.000  C
  C28      1.0000 0.60296  0.42690  0.63949  Biso   1.000  C
  C29      1.0000 0.89704  0.92690  0.63949  Biso   1.000  C
  C30      1.0000 0.60296  0.57310  0.13949  Biso   1.000  C
  C31      1.0000 0.10296  0.92690  0.86051  Biso   1.000  C
  C32      1.0000 0.39704  0.57310  0.36051  Biso   1.000  C
  H9       1.0000 0.08140  0.08810  0.31930  Biso   1.000  H
  H10      1.0000 0.41860  0.41190  0.81930  Biso   1.000  H
  H11      1.0000 0.91860  0.08810  0.18070  Biso   1.000  H
  H12      1.0000 0.58140  0.41190  0.68070  Biso   1.000  H
  H13      1.0000 0.91860  0.91190  0.68070  Biso   1.000  H
  H14      1.0000 0.58140  0.58810  0.18070  Biso   1.000  H
  H15      1.0000 0.08140  0.91190  0.81930  Biso   1.000  H
  H16      1.0000 0.41860  0.58810  0.31930  Biso   1.000  H
  C33      1.0000 0.03851  0.77020  0.40331  Biso   1.000  C
  C34      1.0000 0.46149  0.72980  0.90331  Biso   1.000  C
  C35      1.0000 0.96149  0.77020  0.09669  Biso   1.000  C
  C36      1.0000 0.53851  0.72980  0.59669  Biso   1.000  C
  C37      1.0000 0.96149  0.22980  0.59669  Biso   1.000  C
  C38      1.0000 0.53851  0.27020  0.09669  Biso   1.000  C
  C39      1.0000 0.03851  0.22980  0.90331  Biso   1.000  C
  C40      1.0000 0.46149  0.27020  0.40331  Biso   1.000  C
  C41      1.0000 0.20017  0.75272  0.41798  Biso   1.000  C
  C42      1.0000 0.29983  0.74728  0.91798  Biso   1.000  C
  C43      1.0000 0.79983  0.75272  0.08202  Biso   1.000  C
  C44      1.0000 0.70017  0.74728  0.58202  Biso   1.000  C
  C45      1.0000 0.79983  0.24728  0.58202  Biso   1.000  C
  C46      1.0000 0.70017  0.25272  0.08202  Biso   1.000  C
  C47      1.0000 0.20017  0.24728  0.91798  Biso   1.000  C
  C48      1.0000 0.29983  0.25272  0.41798  Biso   1.000  C
  H17      1.0000 0.25450  0.74630  0.42310  Biso   1.000  H
  H18      1.0000 0.24550  0.75370  0.92310  Biso   1.000  H
  H19      1.0000 0.74550  0.74630  0.07690  Biso   1.000  H
  H20      1.0000 0.75450  0.75370  0.57690  Biso   1.000  H
  H21      1.0000 0.74550  0.25370  0.57690  Biso   1.000  H
  H22      1.0000 0.75450  0.24630  0.07690  Biso   1.000  H
  H23      1.0000 0.25450  0.25370  0.92310  Biso   1.000  H
  H24      1.0000 0.24550  0.24630  0.42310  Biso   1.000  H
  C49      1.0000 0.32298  0.95731  0.48732  Biso   1.000  C
  C50      1.0000 0.17702  0.54269  0.98732  Biso   1.000  C
  C51      1.0000 0.67702  0.95731  0.01268  Biso   1.000  C
  C52      1.0000 0.82298  0.54269  0.51268  Biso   1.000  C
  C53      1.0000 0.67702  0.04269  0.51268  Biso   1.000  C
  C54      1.0000 0.82298  0.45731  0.01268  Biso   1.000  C
  C55      1.0000 0.32298  0.04269  0.98732  Biso   1.000  C
  C56      1.0000 0.17702  0.45731  0.48732  Biso   1.000  C
  C57      1.0000 0.15072  0.74270  0.47227  Biso   1.000  C
  C58      1.0000 0.34928  0.75730  0.97227  Biso   1.000  C
  C59      1.0000 0.84928  0.74270  0.02773  Biso   1.000  C
  C60      1.0000 0.65072  0.75730  0.52773  Biso   1.000  C
  C61      1.0000 0.84928  0.25730  0.52773  Biso   1.000  C
  C62      1.0000 0.65072  0.24270  0.02773  Biso   1.000  C
  C63      1.0000 0.15072  0.25730  0.97227  Biso   1.000  C
  C64      1.0000 0.34928  0.24270  0.47227  Biso   1.000  C
  H25      1.0000 0.17210  0.73020  0.51390  Biso   1.000  H
  H26      1.0000 0.32790  0.76980  0.01390  Biso   1.000  H
  H27      1.0000 0.82790  0.73020  0.98610  Biso   1.000  H
  H28      1.0000 0.67210  0.76980  0.48610  Biso   1.000  H
  H29      1.0000 0.82790  0.26980  0.48610  Biso   1.000  H
  H30      1.0000 0.67210  0.23020  0.98610  Biso   1.000  H
  H31      1.0000 0.17210  0.26980  0.01390  Biso   1.000  H
  H32      1.0000 0.32790  0.23020  0.51390  Biso   1.000  H
  C65      1.0000 0.27461  0.95770  0.54510  Biso   1.000  C
  C66      1.0000 0.22539  0.54230  0.04510  Biso   1.000  C
  C67      1.0000 0.72539  0.95770  0.95490  Biso   1.000  C
  C68      1.0000 0.77461  0.54230  0.45490  Biso   1.000  C
  C69      1.0000 0.72539  0.04230  0.45490  Biso   1.000  C
  C70      1.0000 0.77461  0.45770  0.95490  Biso   1.000  C
  C71      1.0000 0.27461  0.04230  0.04510  Biso   1.000  C
  C72      1.0000 0.22539  0.45770  0.54510  Biso   1.000  C
  H33      1.0000 0.29530  0.93340  0.58500  Biso   1.000  H
  H34      1.0000 0.20470  0.56660  0.08500  Biso   1.000  H
  H35      1.0000 0.70470  0.93340  0.91500  Biso   1.000  H
  H36      1.0000 0.79530  0.56660  0.41500  Biso   1.000  H
  H37      1.0000 0.70470  0.06660  0.41500  Biso   1.000  H
  H38      1.0000 0.79530  0.43340  0.91500  Biso   1.000  H
  H39      1.0000 0.29530  0.06660  0.08500  Biso   1.000  H
  H40      1.0000 0.20470  0.43340  0.58500  Biso   1.000  H
  C73      1.0000 0.16449  0.02495  0.48169  Biso   1.000  C
  C74      1.0000 0.33551  0.47505  0.98169  Biso   1.000  C
  C75      1.0000 0.83551  0.02495  0.01831  Biso   1.000  C
  C76      1.0000 0.66449  0.47505  0.51831  Biso   1.000  C
  C77      1.0000 0.83551  0.97505  0.51831  Biso   1.000  C
  C78      1.0000 0.66449  0.52495  0.01831  Biso   1.000  C
  C79      1.0000 0.16449  0.97505  0.98169  Biso   1.000  C
  C80      1.0000 0.33551  0.52495  0.48169  Biso   1.000  C
  C81      1.0000 0.07104  0.75100  0.46487  Biso   1.000  C
  C82      1.0000 0.42896  0.74900  0.96487  Biso   1.000  C
  C83      1.0000 0.92896  0.75100  0.03513  Biso   1.000  C
  C84      1.0000 0.57104  0.74900  0.53513  Biso   1.000  C
  C85      1.0000 0.92896  0.24900  0.53513  Biso   1.000  C
  C86      1.0000 0.57104  0.25100  0.03513  Biso   1.000  C
  C87      1.0000 0.07104  0.24900  0.96487  Biso   1.000  C
  C88      1.0000 0.42896  0.25100  0.46487  Biso   1.000  C
  H41      1.0000 0.03830  0.74370  0.50150  Biso   1.000  H
  H42      1.0000 0.46170  0.75630  0.00150  Biso   1.000  H
  H43      1.0000 0.96170  0.74370  0.99850  Biso   1.000  H
  H44      1.0000 0.53830  0.75630  0.49850  Biso   1.000  H
  H45      1.0000 0.96170  0.25630  0.49850  Biso   1.000  H
  H46      1.0000 0.53830  0.24370  0.99850  Biso   1.000  H
  H47      1.0000 0.03830  0.25630  0.00150  Biso   1.000  H
  H48      1.0000 0.46170  0.24370  0.50150  Biso   1.000  H
  C89      1.0000 0.20906  0.01985  0.42351  Biso   1.000  C
  C90      1.0000 0.29094  0.48015  0.92351  Biso   1.000  C
  C91      1.0000 0.79094  0.01985  0.07649  Biso   1.000  C
  C92      1.0000 0.70906  0.48015  0.57649  Biso   1.000  C
  C93      1.0000 0.79094  0.98015  0.57649  Biso   1.000  C
  C94      1.0000 0.70906  0.51985  0.07649  Biso   1.000  C
  C95      1.0000 0.20906  0.98015  0.92351  Biso   1.000  C
  C96      1.0000 0.29094  0.51985  0.42351  Biso   1.000  C
  C97      1.0000 0.34187  0.93390  0.19155  Biso   1.000  C
  C98      1.0000 0.15813  0.56610  0.69155  Biso   1.000  C
  C99      1.0000 0.65813  0.93390  0.30845  Biso   1.000  C
  C100     1.0000 0.84187  0.56610  0.80845  Biso   1.000  C
  C101     1.0000 0.65813  0.06610  0.80845  Biso   1.000  C
  C102     1.0000 0.84187  0.43390  0.30845  Biso   1.000  C
  C103     1.0000 0.34187  0.06610  0.69155  Biso   1.000  C
  C104     1.0000 0.15813  0.43390  0.19155  Biso   1.000  C
  C105     1.0000 0.40894  0.97190  0.37380  Biso   1.000  C
  C106     1.0000 0.09106  0.52810  0.87380  Biso   1.000  C
  C107     1.0000 0.59106  0.97190  0.12620  Biso   1.000  C
  C108     1.0000 0.90894  0.52810  0.62620  Biso   1.000  C
  C109     1.0000 0.59106  0.02810  0.62620  Biso   1.000  C
  C110     1.0000 0.90894  0.47190  0.12620  Biso   1.000  C
  C111     1.0000 0.40894  0.02810  0.87380  Biso   1.000  C
  C112     1.0000 0.09106  0.47190  0.37380  Biso   1.000  C
  H49      1.0000 0.43920  0.97840  0.33570  Biso   1.000  H
  H50      1.0000 0.06080  0.52160  0.83570  Biso   1.000  H
  H51      1.0000 0.56080  0.97840  0.16430  Biso   1.000  H
  H52      1.0000 0.93920  0.52160  0.66430  Biso   1.000  H
  H53      1.0000 0.56080  0.02160  0.66430  Biso   1.000  H
  H54      1.0000 0.93920  0.47840  0.16430  Biso   1.000  H
  H55      1.0000 0.43920  0.02160  0.83570  Biso   1.000  H
  H56      1.0000 0.06080  0.47840  0.33570  Biso   1.000  H
  C113     1.0000 0.29933  0.84613  0.22517  Biso   1.000  C
  C114     1.0000 0.20067  0.65387  0.72517  Biso   1.000  C
  C115     1.0000 0.70067  0.84613  0.27483  Biso   1.000  C
  C116     1.0000 0.79933  0.65387  0.77483  Biso   1.000  C
  C117     1.0000 0.70067  0.15387  0.77483  Biso   1.000  C
  C118     1.0000 0.79933  0.34613  0.27483  Biso   1.000  C
  C119     1.0000 0.29933  0.15387  0.72517  Biso   1.000  C
  C120     1.0000 0.20067  0.34613  0.22517  Biso   1.000  C
  C121     1.0000 0.05532  0.08340  0.41597  Biso   1.000  C
  C122     1.0000 0.44468  0.41660  0.91597  Biso   1.000  C
  C123     1.0000 0.94468  0.08340  0.08403  Biso   1.000  C
  C124     1.0000 0.55532  0.41660  0.58403  Biso   1.000  C
  C125     1.0000 0.94468  0.91660  0.58403  Biso   1.000  C
  C126     1.0000 0.55532  0.58340  0.08403  Biso   1.000  C
  C127     1.0000 0.05532  0.91660  0.91597  Biso   1.000  C
  C128     1.0000 0.44468  0.58340  0.41597  Biso   1.000  C
  H57      1.0000 0.00310  0.10580  0.41190  Biso   1.000  H
  H58      1.0000 0.49690  0.39420  0.91190  Biso   1.000  H
  H59      1.0000 0.99690  0.10580  0.08810  Biso   1.000  H
  H60      1.0000 0.50310  0.39420  0.58810  Biso   1.000  H
  H61      1.0000 0.99690  0.89420  0.58810  Biso   1.000  H
  H62      1.0000 0.50310  0.60580  0.08810  Biso   1.000  H
  H63      1.0000 0.00310  0.89420  0.91190  Biso   1.000  H
  H64      1.0000 0.49690  0.60580  0.41190  Biso   1.000  H
  C129     1.0000 0.19949  0.99280  0.54268  Biso   1.000  C
  C130     1.0000 0.30051  0.50720  0.04268  Biso   1.000  C
  C131     1.0000 0.80051  0.99280  0.95732  Biso   1.000  C
  C132     1.0000 0.69949  0.50720  0.45732  Biso   1.000  C
  C133     1.0000 0.80051  0.00720  0.45732  Biso   1.000  C
  C134     1.0000 0.69949  0.49280  0.95732  Biso   1.000  C
  C135     1.0000 0.19949  0.00720  0.04268  Biso   1.000  C
  C136     1.0000 0.30051  0.49280  0.54268  Biso   1.000  C
  H65      1.0000 0.17000  0.99620  0.58130  Biso   1.000  H
  H66      1.0000 0.33000  0.50380  0.08130  Biso   1.000  H
  H67      1.0000 0.83000  0.99620  0.91870  Biso   1.000  H
  H68      1.0000 0.67000  0.50380  0.41870  Biso   1.000  H
  H69      1.0000 0.83000  0.00380  0.41870  Biso   1.000  H
  H70      1.0000 0.67000  0.49620  0.91870  Biso   1.000  H
  H71      1.0000 0.17000  0.00380  0.08130  Biso   1.000  H
  H72      1.0000 0.33000  0.49620  0.58130  Biso   1.000  H
  C137     1.0000 0.08641  0.06020  0.47649  Biso   1.000  C
  C138     1.0000 0.41359  0.43980  0.97649  Biso   1.000  C
  C139     1.0000 0.91359  0.06020  0.02351  Biso   1.000  C
  C140     1.0000 0.58641  0.43980  0.52351  Biso   1.000  C
  C141     1.0000 0.91359  0.93980  0.52351  Biso   1.000  C
  C142     1.0000 0.58641  0.56020  0.02351  Biso   1.000  C
  C143     1.0000 0.08641  0.93980  0.97649  Biso   1.000  C
  C144     1.0000 0.41359  0.56020  0.47649  Biso   1.000  C
  H73      1.0000 0.05560  0.06780  0.51420  Biso   1.000  H
  H74      1.0000 0.44440  0.43220  0.01420  Biso   1.000  H
  H75      1.0000 0.94440  0.06780  0.98580  Biso   1.000  H
  H76      1.0000 0.55560  0.43220  0.48580  Biso   1.000  H
  H77      1.0000 0.94440  0.93220  0.48580  Biso   1.000  H
  H78      1.0000 0.55560  0.56780  0.98580  Biso   1.000  H
  H79      1.0000 0.05560  0.93220  0.01420  Biso   1.000  H
  H80      1.0000 0.44440  0.56780  0.51420  Biso   1.000  H
  C145     1.0000 0.40225  0.92710  0.48780  Biso   1.000  C
  C146     1.0000 0.09775  0.57290  0.98780  Biso   1.000  C
  C147     1.0000 0.59775  0.92710  0.01220  Biso   1.000  C
  C148     1.0000 0.90225  0.57290  0.51220  Biso   1.000  C
  C149     1.0000 0.59775  0.07290  0.51220  Biso   1.000  C
  C150     1.0000 0.90225  0.42710  0.01220  Biso   1.000  C
  C151     1.0000 0.40225  0.07290  0.98780  Biso   1.000  C
  C152     1.0000 0.09775  0.42710  0.48780  Biso   1.000  C
  H81      1.0000 0.42560  0.90240  0.52660  Biso   1.000  H
  H82      1.0000 0.07440  0.59760  0.02660  Biso   1.000  H
  H83      1.0000 0.57440  0.90240  0.97340  Biso   1.000  H
  H84      1.0000 0.92560  0.59760  0.47340  Biso   1.000  H
  H85      1.0000 0.57440  0.09760  0.47340  Biso   1.000  H
  H86      1.0000 0.92560  0.40240  0.97340  Biso   1.000  H
  H87      1.0000 0.42560  0.09760  0.02660  Biso   1.000  H
  H88      1.0000 0.07440  0.40240  0.52660  Biso   1.000  H
  C153     1.0000 0.29099  0.99071  0.42676  Biso   1.000  C
  C154     1.0000 0.20901  0.50929  0.92676  Biso   1.000  C
  C155     1.0000 0.70901  0.99071  0.07324  Biso   1.000  C
  C156     1.0000 0.79099  0.50929  0.57324  Biso   1.000  C
  C157     1.0000 0.70901  0.00929  0.57324  Biso   1.000  C
  C158     1.0000 0.79099  0.49071  0.07324  Biso   1.000  C
  C159     1.0000 0.29099  0.00929  0.92676  Biso   1.000  C
  C160     1.0000 0.20901  0.49071  0.42676  Biso   1.000  C
  C161     1.0000 0.44546  0.93390  0.43112  Biso   1.000  C
  C162     1.0000 0.05454  0.56610  0.93112  Biso   1.000  C
  C163     1.0000 0.55454  0.93390  0.06888  Biso   1.000  C
  C164     1.0000 0.94546  0.56610  0.56888  Biso   1.000  C
  C165     1.0000 0.55454  0.06610  0.56888  Biso   1.000  C
  C166     1.0000 0.94546  0.43390  0.06888  Biso   1.000  C
  C167     1.0000 0.44546  0.06610  0.93112  Biso   1.000  C
  C168     1.0000 0.05454  0.43390  0.43112  Biso   1.000  C
  H89      1.0000 0.49830  0.91370  0.43070  Biso   1.000  H
  H90      1.0000 0.00170  0.58630  0.93070  Biso   1.000  H
  H91      1.0000 0.50170  0.91370  0.06930  Biso   1.000  H
  H92      1.0000 0.99830  0.58630  0.56930  Biso   1.000  H
  H93      1.0000 0.50170  0.08630  0.56930  Biso   1.000  H
  H94      1.0000 0.99830  0.41370  0.06930  Biso   1.000  H
  H95      1.0000 0.49830  0.08630  0.93070  Biso   1.000  H
  H96      1.0000 0.00170  0.41370  0.43070  Biso   1.000  H
  C169     1.0000 0.92020  0.78760  0.33899  Biso   1.000  C
  C170     1.0000 0.57980  0.71240  0.83899  Biso   1.000  C
  C171     1.0000 0.07980  0.78760  0.16101  Biso   1.000  C
  C172     1.0000 0.42020  0.71240  0.66101  Biso   1.000  C
  C173     1.0000 0.07980  0.21240  0.66101  Biso   1.000  C
  C174     1.0000 0.42020  0.28760  0.16101  Biso   1.000  C
  C175     1.0000 0.92020  0.21240  0.83899  Biso   1.000  C
  C176     1.0000 0.57980  0.28760  0.33899  Biso   1.000  C
  H97      1.0000 0.93630  0.85450  0.31890  Biso   1.000  H
  H98      1.0000 0.56370  0.64550  0.81890  Biso   1.000  H
  H99      1.0000 0.06370  0.85450  0.18110  Biso   1.000  H
  H100     1.0000 0.43630  0.64550  0.68110  Biso   1.000  H
  H101     1.0000 0.06370  0.14550  0.68110  Biso   1.000  H
  H102     1.0000 0.43630  0.35450  0.18110  Biso   1.000  H
  H103     1.0000 0.93630  0.14550  0.81890  Biso   1.000  H
  H104     1.0000 0.56370  0.35450  0.31890  Biso   1.000  H
  H105     1.0000 0.86390  0.78770  0.34490  Biso   1.000  H
  H106     1.0000 0.63610  0.71230  0.84490  Biso   1.000  H
  H107     1.0000 0.13610  0.78770  0.15510  Biso   1.000  H
  H108     1.0000 0.36390  0.71230  0.65510  Biso   1.000  H
  H109     1.0000 0.13610  0.21230  0.65510  Biso   1.000  H
  H110     1.0000 0.36390  0.28770  0.15510  Biso   1.000  H
  H111     1.0000 0.86390  0.21230  0.84490  Biso   1.000  H
  H112     1.0000 0.63610  0.28770  0.34490  Biso   1.000  H
  H113     1.0000 0.93510  0.72820  0.31110  Biso   1.000  H
  H114     1.0000 0.56490  0.77180  0.81110  Biso   1.000  H
  H115     1.0000 0.06490  0.72820  0.18890  Biso   1.000  H
  H116     1.0000 0.43510  0.77180  0.68890  Biso   1.000  H
  H117     1.0000 0.06490  0.27180  0.68890  Biso   1.000  H
  H118     1.0000 0.43510  0.22820  0.18890  Biso   1.000  H
  H119     1.0000 0.93510  0.27180  0.81110  Biso   1.000  H
  H120     1.0000 0.56490  0.22820  0.31110  Biso   1.000  H
  N25      1.0000 0.25763  0.69502  0.27221  Biso   1.000  N
  N26      1.0000 0.24237  0.80498  0.77221  Biso   1.000  N
  N27      1.0000 0.74237  0.69502  0.22779  Biso   1.000  N
  N28      1.0000 0.75763  0.80498  0.72779  Biso   1.000  N
  N29      1.0000 0.74237  0.30498  0.72779  Biso   1.000  N
  N30      1.0000 0.75763  0.19502  0.22779  Biso   1.000  N
  N31      1.0000 0.25763  0.30498  0.77221  Biso   1.000  N
  N32      1.0000 0.24237  0.19502  0.27221  Biso   1.000  N
  O25      1.0000 0.40338  0.70988  0.14200  Biso   1.000  O
  O26      1.0000 0.09662  0.79012  0.64200  Biso   1.000  O
  O27      1.0000 0.59662  0.70988  0.35800  Biso   1.000  O
  O28      1.0000 0.90338  0.79012  0.85800  Biso   1.000  O
  O29      1.0000 0.59662  0.29012  0.85800  Biso   1.000  O
  O30      1.0000 0.90338  0.20988  0.35800  Biso   1.000  O
  O31      1.0000 0.40338  0.29012  0.64200  Biso   1.000  O
  O32      1.0000 0.09662  0.20988  0.14200  Biso   1.000  O
  H121     1.0000 0.40060  0.77590  0.14550  Biso   1.000  H
  H122     1.0000 0.09940  0.72410  0.64550  Biso   1.000  H
  H123     1.0000 0.59940  0.77590  0.35450  Biso   1.000  H
  H124     1.0000 0.90060  0.72410  0.85450  Biso   1.000  H
  H125     1.0000 0.59940  0.22410  0.85450  Biso   1.000  H
  H126     1.0000 0.90060  0.27590  0.35450  Biso   1.000  H
  H127     1.0000 0.40060  0.22410  0.64550  Biso   1.000  H
  H128     1.0000 0.09940  0.27590  0.14550  Biso   1.000  H
  C177     1.0000 0.30695  0.73589  0.22513  Biso   1.000  C
  C178     1.0000 0.19305  0.76411  0.72513  Biso   1.000  C
  C179     1.0000 0.69305  0.73589  0.27487  Biso   1.000  C
  C180     1.0000 0.80695  0.76411  0.77487  Biso   1.000  C
  C181     1.0000 0.69305  0.26411  0.77487  Biso   1.000  C
  C182     1.0000 0.80695  0.23589  0.27487  Biso   1.000  C
  C183     1.0000 0.30695  0.26411  0.72513  Biso   1.000  C
  C184     1.0000 0.19305  0.23589  0.22513  Biso   1.000  C
  C185     1.0000 0.35954  0.66440  0.18757  Biso   1.000  C
  C186     1.0000 0.14046  0.83560  0.68757  Biso   1.000  C
  C187     1.0000 0.64046  0.66440  0.31243  Biso   1.000  C
  C188     1.0000 0.85954  0.83560  0.81243  Biso   1.000  C
  C189     1.0000 0.64046  0.33560  0.81243  Biso   1.000  C
  C190     1.0000 0.85954  0.16440  0.31243  Biso   1.000  C
  C191     1.0000 0.35954  0.33560  0.68757  Biso   1.000  C
  C192     1.0000 0.14046  0.16440  0.18757  Biso   1.000  C
  O33      1.0000 0.36168  0.56727  0.19814  Biso   1.000  O
  O34      1.0000 0.13832  0.93273  0.69814  Biso   1.000  O
  O35      1.0000 0.63832  0.56727  0.30186  Biso   1.000  O
  O36      1.0000 0.86168  0.93273  0.80186  Biso   1.000  O
  O37      1.0000 0.63832  0.43273  0.80186  Biso   1.000  O
  O38      1.0000 0.86168  0.06727  0.30186  Biso   1.000  O
  O39      1.0000 0.36168  0.43273  0.69814  Biso   1.000  O
  O40      1.0000 0.13832  0.06727  0.19814  Biso   1.000  O
