data_image0
_cell_length_a       8.4824
_cell_length_b       14.4398
_cell_length_c       10.7195
_cell_angle_alpha    90
_cell_angle_beta     109.217
_cell_angle_gamma    90

_symmetry_space_group_name_H-M    "P 1"
_symmetry_int_tables_number       1

loop_
  _symmetry_equiv_pos_as_xyz
  'x, y, z'

loop_
  _atom_site_label
  _atom_site_occupancy
  _atom_site_fract_x
  _atom_site_fract_y
  _atom_site_fract_z
  _atom_site_thermal_displace_type
  _atom_site_B_iso_or_equiv
  _atom_site_type_symbol
  Cu1      1.0000 0.50000  0.00000  0.50000  Biso   1.000  Cu
  Cu2      1.0000 0.50000  0.50000  0.00000  Biso   1.000  Cu
  O1       1.0000 0.50580  0.10818  0.65820  Biso   1.000  O
  O2       1.0000 0.49420  0.60818  0.84180  Biso   1.000  O
  O3       1.0000 0.49420  0.89182  0.34180  Biso   1.000  O
  O4       1.0000 0.50580  0.39182  0.15820  Biso   1.000  O
  N1       1.0000 0.58780  0.09543  0.40150  Biso   1.000  N
  N2       1.0000 0.41220  0.59543  0.09850  Biso   1.000  N
  N3       1.0000 0.41220  0.90457  0.59850  Biso   1.000  N
  N4       1.0000 0.58780  0.40457  0.90150  Biso   1.000  N
  N5       1.0000 0.69070  0.15885  0.47420  Biso   1.000  N
  N6       1.0000 0.30930  0.65885  0.02580  Biso   1.000  N
  N7       1.0000 0.30930  0.84115  0.52580  Biso   1.000  N
  N8       1.0000 0.69070  0.34115  0.97420  Biso   1.000  N
  N9       1.0000 0.71030  0.21907  0.38993  Biso   1.000  N
  N10      1.0000 0.28970  0.71907  0.11007  Biso   1.000  N
  N11      1.0000 0.28970  0.78093  0.61007  Biso   1.000  N
  N12      1.0000 0.71030  0.28093  0.88993  Biso   1.000  N
  N13      1.0000 0.62660  0.19937  0.26430  Biso   1.000  N
  N14      1.0000 0.37340  0.69937  0.23570  Biso   1.000  N
  N15      1.0000 0.37340  0.80063  0.73570  Biso   1.000  N
  N16      1.0000 0.62660  0.30063  0.76430  Biso   1.000  N
  N17      1.0000 0.26200  0.45882  0.90310  Biso   1.000  N
  N18      1.0000 0.73800  0.95882  0.59690  Biso   1.000  N
  N19      1.0000 0.73800  0.54118  0.09690  Biso   1.000  N
  N20      1.0000 0.26200  0.04118  0.40310  Biso   1.000  N
  N21      1.0000 0.20040  0.45644  0.77230  Biso   1.000  N
  N22      1.0000 0.79960  0.95644  0.72770  Biso   1.000  N
  N23      1.0000 0.79960  0.54356  0.22770  Biso   1.000  N
  N24      1.0000 0.20040  0.04356  0.27230  Biso   1.000  N
  N25      1.0000 0.05020  0.42286  0.74570  Biso   1.000  N
  N26      1.0000 0.94980  0.92286  0.75430  Biso   1.000  N
  N27      1.0000 0.94980  0.57714  0.25430  Biso   1.000  N
  N28      1.0000 0.05020  0.07714  0.24570  Biso   1.000  N
  N29      1.0000 0.00710  0.40227  0.85090  Biso   1.000  N
  N30      1.0000 0.99290  0.90227  0.64910  Biso   1.000  N
  N31      1.0000 0.99290  0.59773  0.14910  Biso   1.000  N
  N32      1.0000 0.00710  0.09773  0.35090  Biso   1.000  N
  C1       1.0000 0.55130  0.12131  0.27540  Biso   1.000  C
  C2       1.0000 0.44870  0.62131  0.22460  Biso   1.000  C
  C3       1.0000 0.44870  0.87869  0.72460  Biso   1.000  C
  C4       1.0000 0.55130  0.37869  0.77540  Biso   1.000  C
  C5       1.0000 0.80900  0.30370  0.42860  Biso   1.000  C
  C6       1.0000 0.19100  0.80370  0.07140  Biso   1.000  C
  C7       1.0000 0.19100  0.69630  0.57140  Biso   1.000  C
  C8       1.0000 0.80900  0.19630  0.92860  Biso   1.000  C
  C9       1.0000 0.14310  0.42600  0.94790  Biso   1.000  C
  C10      1.0000 0.85690  0.92600  0.55210  Biso   1.000  C
  C11      1.0000 0.85690  0.57400  0.05210  Biso   1.000  C
  C12      1.0000 0.14310  0.07400  0.44790  Biso   1.000  C
  C13      1.0000 0.94050  0.41013  0.60880  Biso   1.000  C
  C14      1.0000 0.05950  0.91013  0.89120  Biso   1.000  C
  C15      1.0000 0.05950  0.58987  0.39120  Biso   1.000  C
  C16      1.0000 0.94050  0.08987  0.10880  Biso   1.000  C
  C17      1.0000 0.89660  0.30980  0.57580  Biso   1.000  C
  C18      1.0000 0.10340  0.80980  0.92420  Biso   1.000  C
  C19      1.0000 0.10340  0.69020  0.42420  Biso   1.000  C
  C20      1.0000 0.89660  0.19020  0.07580  Biso   1.000  C
  H1       1.0000 0.48400  0.09200  0.21100  Biso   1.000  H
  H2       1.0000 0.51600  0.59200  0.28900  Biso   1.000  H
  H3       1.0000 0.51600  0.90800  0.78900  Biso   1.000  H
  H4       1.0000 0.48400  0.40800  0.71100  Biso   1.000  H
  H5       1.0000 0.81800  0.29800  0.61700  Biso   1.000  H
  H6       1.0000 0.18200  0.79800  0.88300  Biso   1.000  H
  H7       1.0000 0.18200  0.70200  0.38300  Biso   1.000  H
  H8       1.0000 0.81800  0.20200  0.11700  Biso   1.000  H
  H9       1.0000 0.46400  0.10600  0.70400  Biso   1.000  H
  H10      1.0000 0.53600  0.60600  0.79600  Biso   1.000  H
  H11      1.0000 0.53600  0.89400  0.29600  Biso   1.000  H
  H12      1.0000 0.46400  0.39400  0.20400  Biso   1.000  H
  H13      1.0000 0.14700  0.41800  0.02600  Biso   1.000  H
  H14      1.0000 0.85300  0.91800  0.47400  Biso   1.000  H
  H15      1.0000 0.85300  0.58200  0.97400  Biso   1.000  H
  H16      1.0000 0.14700  0.08200  0.52600  Biso   1.000  H
  H17      1.0000 0.84600  0.44600  0.59700  Biso   1.000  H
  H18      1.0000 0.15400  0.94600  0.90300  Biso   1.000  H
  H19      1.0000 0.15400  0.55400  0.40300  Biso   1.000  H
  H20      1.0000 0.84600  0.05400  0.09700  Biso   1.000  H
  H21      1.0000 0.99400  0.43500  0.55400  Biso   1.000  H
  H22      1.0000 0.00600  0.93500  0.94600  Biso   1.000  H
  H23      1.0000 0.00600  0.56500  0.44600  Biso   1.000  H
  H24      1.0000 0.99400  0.06500  0.05400  Biso   1.000  H
  H25      1.0000 0.98900  0.27200  0.60300  Biso   1.000  H
  H26      1.0000 0.01100  0.77200  0.89700  Biso   1.000  H
  H27      1.0000 0.01100  0.72800  0.39700  Biso   1.000  H
  H28      1.0000 0.98900  0.22800  0.10300  Biso   1.000  H
  H29      1.0000 0.88800  0.30400  0.38400  Biso   1.000  H
  H30      1.0000 0.11200  0.80400  0.11600  Biso   1.000  H
  H31      1.0000 0.11200  0.69600  0.61600  Biso   1.000  H
  H32      1.0000 0.88800  0.19600  0.88400  Biso   1.000  H
  H33      1.0000 0.51400  0.16200  0.64800  Biso   1.000  H
  H34      1.0000 0.48600  0.66200  0.85200  Biso   1.000  H
  H35      1.0000 0.48600  0.83800  0.35200  Biso   1.000  H
  H36      1.0000 0.51400  0.33800  0.14800  Biso   1.000  H
  H37      1.0000 0.72000  0.34900  0.40000  Biso   1.000  H
  H38      1.0000 0.28000  0.84900  0.10000  Biso   1.000  H
  H39      1.0000 0.28000  0.65100  0.60000  Biso   1.000  H
  H40      1.0000 0.72000  0.15100  0.90000  Biso   1.000  H
  Cl1      1.0000 0.27731  0.34665  0.38313  Biso   1.000  Cl
  Cl2      1.0000 0.72269  0.84665  0.11687  Biso   1.000  Cl
  Cl3      1.0000 0.72269  0.65335  0.61687  Biso   1.000  Cl
  Cl4      1.0000 0.27731  0.15335  0.88313  Biso   1.000  Cl
  O5       1.0000 0.23900  0.40380  0.27800  Biso   1.000  O
  O6       1.0000 0.76100  0.90380  0.22200  Biso   1.000  O
  O7       1.0000 0.76100  0.59620  0.72200  Biso   1.000  O
  O8       1.0000 0.23900  0.09620  0.77800  Biso   1.000  O
  O9       1.0000 0.22660  0.37940  0.48600  Biso   1.000  O
  O10      1.0000 0.77340  0.87940  0.01400  Biso   1.000  O
  O11      1.0000 0.77340  0.62060  0.51400  Biso   1.000  O
  O12      1.0000 0.22660  0.12060  0.98600  Biso   1.000  O
  O13      1.0000 0.39770  0.41150  0.38650  Biso   1.000  O
  O14      1.0000 0.60230  0.91150  0.11350  Biso   1.000  O
  O15      1.0000 0.60230  0.58850  0.61350  Biso   1.000  O
  O16      1.0000 0.39770  0.08850  0.88650  Biso   1.000  O
  O17      1.0000 0.29660  0.25950  0.33990  Biso   1.000  O
  O18      1.0000 0.70340  0.75950  0.16010  Biso   1.000  O
  O19      1.0000 0.70340  0.74050  0.66010  Biso   1.000  O
  O20      1.0000 0.29660  0.24050  0.83990  Biso   1.000  O
  O21      1.0000 0.46020  0.33900  0.44220  Biso   1.000  O
  O22      1.0000 0.53980  0.83900  0.05780  Biso   1.000  O
  O23      1.0000 0.53980  0.66100  0.55780  Biso   1.000  O
  O24      1.0000 0.46020  0.16100  0.94220  Biso   1.000  O
  O25      1.0000 0.11160  0.37550  0.28790  Biso   1.000  O
  O26      1.0000 0.88840  0.87550  0.21210  Biso   1.000  O
  O27      1.0000 0.88840  0.62450  0.71210  Biso   1.000  O
  O28      1.0000 0.11160  0.12450  0.78790  Biso   1.000  O
  O29      1.0000 0.24960  0.33050  0.50350  Biso   1.000  O
  O30      1.0000 0.75040  0.83050  0.99650  Biso   1.000  O
  O31      1.0000 0.75040  0.66950  0.49650  Biso   1.000  O
  O32      1.0000 0.24960  0.16950  0.00350  Biso   1.000  O
