data_image0
_cell_length_a       13.226
_cell_length_b       13.786
_cell_length_c       20.222
_cell_angle_alpha    99.253
_cell_angle_beta     102.001
_cell_angle_gamma    114.596

_symmetry_space_group_name_H-M    "P 1"
_symmetry_int_tables_number       1

loop_
  _symmetry_equiv_pos_as_xyz
  'x, y, z'

loop_
  _atom_site_label
  _atom_site_occupancy
  _atom_site_fract_x
  _atom_site_fract_y
  _atom_site_fract_z
  _atom_site_thermal_displace_type
  _atom_site_B_iso_or_equiv
  _atom_site_type_symbol
  Cu1      1.0000 0.74948  0.19787  0.50119  Biso   1.000  Cu
  Cu2      1.0000 0.25052  0.80213  0.49881  Biso   1.000  Cu
  Cu3      1.0000 0.26541  0.25439  0.01769  Biso   1.000  Cu
  Cu4      1.0000 0.73459  0.74561  0.98231  Biso   1.000  Cu
  N1       1.0000 0.73870  0.02390  0.46990  Biso   1.000  N
  N2       1.0000 0.26130  0.97610  0.53010  Biso   1.000  N
  N3       1.0000 0.66300  0.95010  0.40780  Biso   1.000  N
  N4       1.0000 0.33700  0.04990  0.59220  Biso   1.000  N
  N5       1.0000 0.64250  0.85050  0.40970  Biso   1.000  N
  N6       1.0000 0.35750  0.14950  0.59030  Biso   1.000  N
  N7       1.0000 0.70650  0.85960  0.47400  Biso   1.000  N
  N8       1.0000 0.29350  0.14040  0.52600  Biso   1.000  N
  N9       1.0000 0.91260  0.71240  0.40930  Biso   1.000  N
  N10      1.0000 0.08740  0.28760  0.59070  Biso   1.000  N
  N11      1.0000 0.91860  0.65880  0.35060  Biso   1.000  N
  N12      1.0000 0.08140  0.34120  0.64940  Biso   1.000  N
  N13      1.0000 0.00960  0.76150  0.46120  Biso   1.000  N
  N14      1.0000 0.99040  0.23850  0.53880  Biso   1.000  N
  N15      1.0000 0.08490  0.73780  0.43660  Biso   1.000  N
  N16      1.0000 0.91510  0.26220  0.56340  Biso   1.000  N
  N17      1.0000 0.69720  0.16600  0.58698  Biso   1.000  N
  N18      1.0000 0.30280  0.83400  0.41302  Biso   1.000  N
  N19      1.0000 0.63740  0.16830  0.68040  Biso   1.000  N
  N20      1.0000 0.36260  0.83170  0.31960  Biso   1.000  N
  N21      1.0000 0.75690  0.13340  0.63110  Biso   1.000  N
  N22      1.0000 0.24310  0.86660  0.36890  Biso   1.000  N
  N23      1.0000 0.71970  0.13660  0.68550  Biso   1.000  N
  N24      1.0000 0.28030  0.86340  0.31450  Biso   1.000  N
  N25      1.0000 0.80730  0.23740  0.41890  Biso   1.000  N
  N26      1.0000 0.19270  0.76260  0.58110  Biso   1.000  N
  N27      1.0000 0.79270  0.31580  0.39500  Biso   1.000  N
  N28      1.0000 0.20730  0.68420  0.60500  Biso   1.000  N
  N29      1.0000 0.87580  0.25020  0.32790  Biso   1.000  N
  N30      1.0000 0.12420  0.74980  0.67210  Biso   1.000  N
  N31      1.0000 0.83430  0.32080  0.34130  Biso   1.000  N
  N32      1.0000 0.16570  0.67920  0.65870  Biso   1.000  N
  N33      1.0000 0.60810  0.36450  0.13396  Biso   1.000  N
  N34      1.0000 0.39190  0.63550  0.86604  Biso   1.000  N
  N35      1.0000 0.60780  0.31740  0.07000  Biso   1.000  N
  N36      1.0000 0.39220  0.68260  0.93000  Biso   1.000  N
  N37      1.0000 0.50180  0.27340  0.02880  Biso   1.000  N
  N38      1.0000 0.49820  0.72660  0.97120  Biso   1.000  N
  N39      1.0000 0.43260  0.28970  0.06560  Biso   1.000  N
  N40      1.0000 0.56740  0.71030  0.93440  Biso   1.000  N
  N41      1.0000 0.82320  0.86030  0.81670  Biso   1.000  N
  N42      1.0000 0.17680  0.13970  0.18330  Biso   1.000  N
  N43      1.0000 0.77210  0.85010  0.86490  Biso   1.000  N
  N44      1.0000 0.22790  0.14990  0.13510  Biso   1.000  N
  N45      1.0000 0.86480  0.78640  0.81342  Biso   1.000  N
  N46      1.0000 0.13520  0.21360  0.18658  Biso   1.000  N
  N47      1.0000 0.78120  0.76980  0.89371  Biso   1.000  N
  N48      1.0000 0.21880  0.23020  0.10629  Biso   1.000  N
  N49      1.0000 0.71090  0.51920  0.56060  Biso   1.000  N
  N50      1.0000 0.28910  0.48080  0.43940  Biso   1.000  N
  N51      1.0000 0.75270  0.37940  0.54110  Biso   1.000  N
  N52      1.0000 0.24730  0.62060  0.45890  Biso   1.000  N
  N53      1.0000 0.76840  0.51020  0.61940  Biso   1.000  N
  N54      1.0000 0.23160  0.48980  0.38060  Biso   1.000  N
  N55      1.0000 0.79540  0.42830  0.60950  Biso   1.000  N
  N56      1.0000 0.20460  0.57170  0.39050  Biso   1.000  N
  N57      1.0000 0.34860  0.61640  0.08650  Biso   1.000  N
  N58      1.0000 0.65140  0.38360  0.91350  Biso   1.000  N
  N59      1.0000 0.32160  0.44460  0.06290  Biso   1.000  N
  N60      1.0000 0.67840  0.55540  0.93710  Biso   1.000  N
  N61      1.0000 0.38100  0.58940  0.14350  Biso   1.000  N
  N62      1.0000 0.61900  0.41060  0.85650  Biso   1.000  N
  N63      1.0000 0.36620  0.48830  0.13210  Biso   1.000  N
  N64      1.0000 0.63380  0.51170  0.86790  Biso   1.000  N
  N65      1.0000 0.11210  0.88370  0.93180  Biso   1.000  N
  N66      1.0000 0.88790  0.11630  0.06820  Biso   1.000  N
  N67      1.0000 0.11070  0.97790  0.93750  Biso   1.000  N
  N68      1.0000 0.88930  0.02210  0.06250  Biso   1.000  N
  N69      1.0000 0.21500  0.06280  0.98050  Biso   1.000  N
  N70      1.0000 0.78500  0.93720  0.01950  Biso   1.000  N
  N71      1.0000 0.21720  0.90630  0.97200  Biso   1.000  N
  N72      1.0000 0.78280  0.09370  0.02800  Biso   1.000  N
  C1       1.0000 0.76380  0.96510  0.50950  Biso   1.000  C
  C2       1.0000 0.23620  0.03490  0.49050  Biso   1.000  C
  H1       1.0000 0.81520  0.99440  0.55630  Biso   1.000  H
  H2       1.0000 0.18480  0.00560  0.44370  Biso   1.000  H
  C3       1.0000 0.70160  0.76040  0.49520  Biso   1.000  C
  C4       1.0000 0.29840  0.23960  0.50480  Biso   1.000  C
  H3       1.0000 0.62950  0.69370  0.46460  Biso   1.000  H
  H4       1.0000 0.37050  0.30630  0.53540  Biso   1.000  H
  H5       1.0000 0.69950  0.76830  0.54430  Biso   1.000  H
  H6       1.0000 0.30050  0.23170  0.45570  Biso   1.000  H
  C5       1.0000 0.80780  0.74650  0.48910  Biso   1.000  C
  C6       1.0000 0.19220  0.25350  0.51090  Biso   1.000  C
  H7       1.0000 0.87970  0.81470  0.51820  Biso   1.000  H
  H8       1.0000 0.12030  0.18530  0.48180  Biso   1.000  H
  H9       1.0000 0.80730  0.68400  0.50750  Biso   1.000  H
  H10      1.0000 0.19270  0.31600  0.49250  Biso   1.000  H
  C7       1.0000 0.80930  0.72420  0.41370  Biso   1.000  C
  C8       1.0000 0.19070  0.27580  0.58630  Biso   1.000  C
  H11      1.0000 0.73820  0.65530  0.38450  Biso   1.000  H
  H12      1.0000 0.26180  0.34470  0.61550  Biso   1.000  H
  H13      1.0000 0.80920  0.78620  0.39490  Biso   1.000  H
  H14      1.0000 0.19080  0.21380  0.60510  Biso   1.000  H
  C9       1.0000 0.02720  0.67540  0.36940  Biso   1.000  C
  C10      1.0000 0.97280  0.32460  0.63060  Biso   1.000  C
  H15      1.0000 0.06080  0.64700  0.33930  Biso   1.000  H
  H16      1.0000 0.93920  0.35300  0.66070  Biso   1.000  H
  C11      1.0000 0.77110  0.11200  0.74910  Biso   1.000  C
  C12      1.0000 0.22890  0.88800  0.25090  Biso   1.000  C
  H17      1.0000 0.83370  0.09420  0.74150  Biso   1.000  H
  H18      1.0000 0.16630  0.90580  0.25850  Biso   1.000  H
  H19      1.0000 0.80720  0.17920  0.78960  Biso   1.000  H
  H20      1.0000 0.19280  0.82080  0.21040  Biso   1.000  H
  C13      1.0000 0.62470  0.18660  0.61770  Biso   1.000  C
  C14      1.0000 0.37530  0.81340  0.38230  Biso   1.000  C
  H21      1.0000 0.57150  0.21110  0.59710  Biso   1.000  H
  H22      1.0000 0.42850  0.78890  0.40290  Biso   1.000  H
  C15      1.0000 0.85780  0.19850  0.37770  Biso   1.000  C
  C16      1.0000 0.14220  0.80150  0.62230  Biso   1.000  C
  H23      1.0000 0.87790  0.14110  0.38350  Biso   1.000  H
  H24      1.0000 0.12210  0.85890  0.61650  Biso   1.000  H
  C17      1.0000 0.82820  0.39670  0.29940  Biso   1.000  C
  C18      1.0000 0.17180  0.60330  0.70060  Biso   1.000  C
  H25      1.0000 0.90270  0.43220  0.28850  Biso   1.000  H
  H26      1.0000 0.09730  0.56780  0.71150  Biso   1.000  H
  H27      1.0000 0.81780  0.45600  0.32710  Biso   1.000  H
  H28      1.0000 0.18220  0.54400  0.67290  Biso   1.000  H
  C19      1.0000 0.72810  0.33630  0.23130  Biso   1.000  C
  C20      1.0000 0.27190  0.66370  0.76870  Biso   1.000  C
  H29      1.0000 0.65480  0.29300  0.24140  Biso   1.000  H
  H30      1.0000 0.34520  0.70700  0.75860  Biso   1.000  H
  H31      1.0000 0.74350  0.28400  0.20040  Biso   1.000  H
  H32      1.0000 0.25650  0.71600  0.79960  Biso   1.000  H
  C21      1.0000 0.71520  0.42000  0.19430  Biso   1.000  C
  C22      1.0000 0.28480  0.58000  0.80570  Biso   1.000  C
  H33      1.0000 0.71210  0.47890  0.22770  Biso   1.000  H
  H34      1.0000 0.28790  0.52110  0.77230  Biso   1.000  H
  H35      1.0000 0.78380  0.45530  0.17780  Biso   1.000  H
  H36      1.0000 0.21620  0.54470  0.82220  Biso   1.000  H
  C23      1.0000 0.50100  0.34670  0.13090  Biso   1.000  C
  C24      1.0000 0.49900  0.65330  0.86910  Biso   1.000  C
  H37      1.0000 0.47710  0.37060  0.16880  Biso   1.000  H
  H38      1.0000 0.52290  0.62940  0.83120  Biso   1.000  H
  C25      1.0000 0.83770  0.73130  0.86060  Biso   1.000  C
  C26      1.0000 0.16230  0.26870  0.13940  Biso   1.000  C
  H39      1.0000 0.85620  0.67390  0.86890  Biso   1.000  H
  H40      1.0000 0.14380  0.32610  0.13110  Biso   1.000  H
  C27      1.0000 0.93220  0.77960  0.76520  Biso   1.000  C
  C28      1.0000 0.06780  0.22040  0.23480  Biso   1.000  C
  H41      1.0000 0.98660  0.75200  0.78500  Biso   1.000  H
  H42      1.0000 0.01340  0.24800  0.21500  Biso   1.000  H
  H43      1.0000 0.97970  0.85520  0.76170  Biso   1.000  H
  H44      1.0000 0.02030  0.14480  0.23830  Biso   1.000  H
  C29      1.0000 0.85600  0.70390  0.69150  Biso   1.000  C
  C30      1.0000 0.14400  0.29610  0.30850  Biso   1.000  C
  H45      1.0000 0.79410  0.72440  0.67420  Biso   1.000  H
  H46      1.0000 0.20590  0.27560  0.32580  Biso   1.000  H
  H47      1.0000 0.90440  0.71520  0.65930  Biso   1.000  H
  H48      1.0000 0.09560  0.28480  0.34070  Biso   1.000  H
  C31      1.0000 0.80000  0.58250  0.68990  Biso   1.000  C
  C32      1.0000 0.20000  0.41750  0.31010  Biso   1.000  C
  H49      1.0000 0.85510  0.56880  0.72370  Biso   1.000  H
  H50      1.0000 0.14490  0.43120  0.27630  Biso   1.000  H
  H51      1.0000 0.72910  0.56420  0.70480  Biso   1.000  H
  H52      1.0000 0.27090  0.43580  0.29520  Biso   1.000  H
  C33      1.0000 0.70290  0.43680  0.51320  Biso   1.000  C
  C34      1.0000 0.29710  0.56320  0.48680  Biso   1.000  C
  H53      1.0000 0.66570  0.41970  0.46430  Biso   1.000  H
  H54      1.0000 0.33430  0.58030  0.53570  Biso   1.000  H
  C35      1.0000 0.31160  0.52400  0.03630  Biso   1.000  C
  C36      1.0000 0.68840  0.47600  0.96370  Biso   1.000  C
  H55      1.0000 0.28170  0.51530  0.98760  Biso   1.000  H
  H56      1.0000 0.71830  0.48470  0.01240  Biso   1.000  H
  C37      1.0000 0.42160  0.66380  0.21570  Biso   1.000  C
  C38      1.0000 0.57840  0.33620  0.78430  Biso   1.000  C
  H57      1.0000 0.35580  0.67500  0.22420  Biso   1.000  H
  H58      1.0000 0.64420  0.32500  0.77580  Biso   1.000  H
  H59      1.0000 0.44190  0.62550  0.24960  Biso   1.000  H
  H60      1.0000 0.55810  0.37450  0.75040  Biso   1.000  H
  C39      1.0000 0.27870  0.01470  0.00110  Biso   1.000  C
  C40      1.0000 0.72130  0.98530  0.99890  Biso   1.000  C
  H61      1.0000 0.35650  0.05200  0.03200  Biso   1.000  H
  H62      1.0000 0.64350  0.94800  0.96800  Biso   1.000  H
  C41      1.0000 0.25440  0.81990  0.97420  Biso   1.000  C
  C42      1.0000 0.74560  0.18010  0.02580  Biso   1.000  C
  H63      1.0000 0.20950  0.75940  0.92980  Biso   1.000  H
  H64      1.0000 0.79050  0.24060  0.07020  Biso   1.000  H
  H65      1.0000 0.33800  0.85200  0.97690  Biso   1.000  H
  H66      1.0000 0.66200  0.14800  0.02310  Biso   1.000  H
  N73      1.0000 0.55850  0.88820  0.64965  Biso   1.000  N
  N74      1.0000 0.44150  0.11180  0.35035  Biso   1.000  N
  N75      1.0000 0.65740  0.73960  0.17050  Biso   1.000  N
  N76      1.0000 0.34260  0.26040  0.82950  Biso   1.000  N
  C43      1.0000 0.63610  0.90560  0.71930  Biso   1.000  C
  C44      1.0000 0.36390  0.09440  0.28070  Biso   1.000  C
  H67      1.0000 0.70140  0.89160  0.71270  Biso   1.000  H
  H68      1.0000 0.29860  0.10840  0.28730  Biso   1.000  H
  H69      1.0000 0.59180  0.85080  0.74200  Biso   1.000  H
  H70      1.0000 0.40820  0.14920  0.25800  Biso   1.000  H
  N77      1.0000 0.65520  0.64130  0.15280  Biso   1.000  N
  N78      1.0000 0.34480  0.35870  0.84720  Biso   1.000  N
  C45      1.0000 0.63960  0.77960  0.23770  Biso   1.000  C
  C46      1.0000 0.36040  0.22040  0.76230  Biso   1.000  C
  H71      1.0000 0.70030  0.85750  0.26030  Biso   1.000  H
  H72      1.0000 0.29970  0.14250  0.73970  Biso   1.000  H
  H73      1.0000 0.65120  0.73490  0.26940  Biso   1.000  H
  H74      1.0000 0.34880  0.26510  0.73060  Biso   1.000  H
  C47      1.0000 0.68480  0.01870  0.76690  Biso   1.000  C
  C48      1.0000 0.31520  0.98130  0.23310  Biso   1.000  C
  H75      1.0000 0.61880  0.03420  0.76930  Biso   1.000  H
  H76      1.0000 0.38120  0.96580  0.23070  Biso   1.000  H
  H77      1.0000 0.72180  0.01810  0.81460  Biso   1.000  H
  H78      1.0000 0.27820  0.98190  0.18540  Biso   1.000  H
  N79      1.0000 0.49920  0.84640  0.53830  Biso   1.000  N
  N80      1.0000 0.50080  0.15360  0.46170  Biso   1.000  N
  N81      1.0000 0.58680  0.86630  0.59070  Biso   1.000  N
  N82      1.0000 0.41320  0.13370  0.40930  Biso   1.000  N
  N83      1.0000 0.04650  0.74630  0.04290  Biso   1.000  N
  N84      1.0000 0.95350  0.25370  0.95710  Biso   1.000  N
  N85      1.0000 0.08280  0.83830  0.09340  Biso   1.000  N
  N86      1.0000 0.91720  0.16170  0.90660  Biso   1.000  N
  C49      1.0000 0.45350  0.88200  0.63130  Biso   1.000  C
  C50      1.0000 0.54650  0.11800  0.36870  Biso   1.000  C
  H79      1.0000 0.41320  0.89490  0.66280  Biso   1.000  H
  H80      1.0000 0.58680  0.10510  0.33720  Biso   1.000  H
  C51      1.0000 0.11970  0.69250  0.03250  Biso   1.000  C
  C52      1.0000 0.88030  0.30750  0.96750  Biso   1.000  C
  H81      1.0000 0.08050  0.63440  0.98690  Biso   1.000  H
  H82      1.0000 0.91950  0.36560  0.01310  Biso   1.000  H
  H83      1.0000 0.12730  0.65570  0.07010  Biso   1.000  H
  H84      1.0000 0.87270  0.34430  0.92990  Biso   1.000  H
  N87      1.0000 0.41410  0.85500  0.56195  Biso   1.000  N
  N88      1.0000 0.58590  0.14500  0.43805  Biso   1.000  N
  N89      1.0000 0.93810  0.70480  0.00420  Biso   1.000  N
  N90      1.0000 0.06190  0.29520  0.99580  Biso   1.000  N
  N91      1.0000 0.67840  0.63350  0.09360  Biso   1.000  N
  N92      1.0000 0.32160  0.36650  0.90640  Biso   1.000  N
  C53      1.0000 0.68210  0.79100  0.12200  Biso   1.000  C
  C54      1.0000 0.31790  0.20900  0.87800  Biso   1.000  C
  H85      1.0000 0.68900  0.86250  0.12220  Biso   1.000  H
  H86      1.0000 0.31100  0.13750  0.87780  Biso   1.000  H
  C55      1.0000 0.98850  0.85230  0.08330  Biso   1.000  C
  C56      1.0000 0.01150  0.14770  0.91670  Biso   1.000  C
  H87      1.0000 0.98410  0.91190  0.11120  Biso   1.000  H
  H88      1.0000 0.01590  0.08810  0.88880  Biso   1.000  H
  N93      1.0000 0.89970  0.77260  0.02905  Biso   1.000  N
  N94      1.0000 0.10030  0.22740  0.97095  Biso   1.000  N
  N95      1.0000 0.69570  0.72590  0.07300  Biso   1.000  N
  N96      1.0000 0.30430  0.27410  0.92700  Biso   1.000  N
  C57      1.0000 0.23880  0.77230  0.03340  Biso   1.000  C
  C58      1.0000 0.76120  0.22770  0.96660  Biso   1.000  C
  H89      1.0000 0.27140  0.83510  0.07630  Biso   1.000  H
  H90      1.0000 0.72860  0.16490  0.92370  Biso   1.000  H
  H91      1.0000 0.28800  0.73450  0.03900  Biso   1.000  H
  H92      1.0000 0.71200  0.26550  0.96100  Biso   1.000  H
  C59      1.0000 0.52330  0.77420  0.23080  Biso   1.000  C
  C60      1.0000 0.47670  0.22580  0.76920  Biso   1.000  C
  H93      1.0000 0.52880  0.82160  0.27510  Biso   1.000  H
  H94      1.0000 0.47120  0.17840  0.72490  Biso   1.000  H
  H95      1.0000 0.50670  0.80780  0.19280  Biso   1.000  H
  H96      1.0000 0.49330  0.19220  0.80720  Biso   1.000  H
  Cl1      1.0000 0.57410  0.03194  0.15589  Biso   1.000  Cl
  Cl2      1.0000 0.42590  0.96806  0.84411  Biso   1.000  Cl
  O1       1.0000 0.68430  0.05150  0.14500  Biso   1.000  O
  O2       1.0000 0.31570  0.94850  0.85500  Biso   1.000  O
  O3       1.0000 0.59680  0.06860  0.22900  Biso   1.000  O
  O4       1.0000 0.40320  0.93140  0.77100  Biso   1.000  O
  O5       1.0000 0.49730  0.91970  0.12790  Biso   1.000  O
  O6       1.0000 0.50270  0.08030  0.87210  Biso   1.000  O
  O7       1.0000 0.53150  0.09650  0.12220  Biso   1.000  O
  O8       1.0000 0.46850  0.90350  0.87780  Biso   1.000  O
  Cl3      1.0000 0.50444  0.42467  0.32966  Biso   1.000  Cl
  Cl4      1.0000 0.49556  0.57533  0.67034  Biso   1.000  Cl
  O9       1.0000 0.60540  0.43210  0.32790  Biso   1.000  O
  O10      1.0000 0.39460  0.56790  0.67210  Biso   1.000  O
  O11      1.0000 0.46620  0.35420  0.37860  Biso   1.000  O
  O12      1.0000 0.53380  0.64580  0.62140  Biso   1.000  O
  O13      1.0000 0.50500  0.51860  0.36550  Biso   1.000  O
  O14      1.0000 0.49500  0.48140  0.63450  Biso   1.000  O
  O15      1.0000 0.41060  0.36380  0.26690  Biso   1.000  O
  O16      1.0000 0.58940  0.63620  0.73310  Biso   1.000  O
  Cl5      1.0000 0.04384  0.52319  0.17073  Biso   1.000  Cl
  Cl6      1.0000 0.95616  0.47681  0.82927  Biso   1.000  Cl
  O17      1.0000 0.12290  0.50380  0.14090  Biso   1.000  O
  O18      1.0000 0.87710  0.49620  0.85910  Biso   1.000  O
  O19      1.0000 0.10890  0.61500  0.23150  Biso   1.000  O
  O20      1.0000 0.89110  0.38500  0.76850  Biso   1.000  O
  O21      1.0000 0.98010  0.42840  0.19150  Biso   1.000  O
  O22      1.0000 0.01990  0.57160  0.80850  Biso   1.000  O
  O23      1.0000 0.96640  0.54220  0.12020  Biso   1.000  O
  O24      1.0000 0.03360  0.45780  0.87980  Biso   1.000  O
  Cl7      1.0000 0.02192  0.02612  0.67294  Biso   1.000  Cl
  Cl8      1.0000 0.97808  0.97388  0.32706  Biso   1.000  Cl
  O25      1.0000 0.90880  0.93480  0.65330  Biso   1.000  O
  O26      1.0000 0.09120  0.06520  0.34670  Biso   1.000  O
  O27      1.0000 0.00850  0.11900  0.66700  Biso   1.000  O
  O28      1.0000 0.99150  0.88100  0.33300  Biso   1.000  O
  O29      1.0000 0.08720  0.01630  0.62440  Biso   1.000  O
  O30      1.0000 0.91280  0.98370  0.37560  Biso   1.000  O
  O31      1.0000 0.08450  0.03990  0.74240  Biso   1.000  O
  O32      1.0000 0.91550  0.96010  0.25760  Biso   1.000  O
  O33      1.0000 0.08510  0.98020  0.69400  Biso   1.000  O
  O34      1.0000 0.91490  0.01980  0.30600  Biso   1.000  O
  O35      1.0000 0.05100  0.11900  0.73400  Biso   1.000  O
  O36      1.0000 0.94900  0.88100  0.26600  Biso   1.000  O
  O37      1.0000 0.03200  0.08600  0.62580  Biso   1.000  O
  O38      1.0000 0.96800  0.91400  0.37420  Biso   1.000  O
