data_image0
_cell_length_a       11.8072
_cell_length_b       12.0211
_cell_length_c       13.1082
_cell_angle_alpha    91.948
_cell_angle_beta     109.904
_cell_angle_gamma    101.749

_symmetry_space_group_name_H-M    "P 1"
_symmetry_int_tables_number       1

loop_
  _symmetry_equiv_pos_as_xyz
  'x, y, z'

loop_
  _atom_site_label
  _atom_site_occupancy
  _atom_site_fract_x
  _atom_site_fract_y
  _atom_site_fract_z
  _atom_site_thermal_displace_type
  _atom_site_B_iso_or_equiv
  _atom_site_type_symbol
  Cu1      1.0000 0.00000  0.00000  0.00000  Biso   1.000  Cu
  C1       1.0000 0.86890  0.20730  0.09180  Biso   1.000  C
  C2       1.0000 0.13110  0.79270  0.90820  Biso   1.000  C
  C3       1.0000 0.80110  0.37750  0.09490  Biso   1.000  C
  C4       1.0000 0.19890  0.62250  0.90510  Biso   1.000  C
  C5       1.0000 0.84220  0.33980  0.21270  Biso   1.000  C
  C6       1.0000 0.15780  0.66020  0.78730  Biso   1.000  C
  C7       1.0000 0.63270  0.34710  0.15650  Biso   1.000  C
  C8       1.0000 0.36730  0.65290  0.84350  Biso   1.000  C
  C9       1.0000 0.94020  0.17290  0.28550  Biso   1.000  C
  C10      1.0000 0.05980  0.82710  0.71450  Biso   1.000  C
  H1       1.0000 0.99660  0.22800  0.34770  Biso   1.000  H
  H2       1.0000 0.00340  0.77200  0.65230  Biso   1.000  H
  H3       1.0000 0.99000  0.12960  0.26120  Biso   1.000  H
  H4       1.0000 0.01000  0.87040  0.73880  Biso   1.000  H
  C11      1.0000 0.72310  0.30370  0.34550  Biso   1.000  C
  C12      1.0000 0.27690  0.69630  0.65450  Biso   1.000  C
  H5       1.0000 0.79900  0.34860  0.40140  Biso   1.000  H
  H6       1.0000 0.20100  0.65140  0.59860  Biso   1.000  H
  H7       1.0000 0.65360  0.33230  0.35210  Biso   1.000  H
  H8       1.0000 0.34640  0.66770  0.64790  Biso   1.000  H
  C13      1.0000 0.83110  0.97840  0.29700  Biso   1.000  C
  C14      1.0000 0.16890  0.02160  0.70300  Biso   1.000  C
  C15      1.0000 0.80720  0.12470  0.40540  Biso   1.000  C
  C16      1.0000 0.19280  0.87530  0.59460  Biso   1.000  C
  C17      1.0000 0.73990  0.00510  0.42690  Biso   1.000  C
  C18      1.0000 0.26010  0.99490  0.57310  Biso   1.000  C
  C19      1.0000 0.59700  0.12190  0.36760  Biso   1.000  C
  C20      1.0000 0.40300  0.87810  0.63240  Biso   1.000  C
  C21      1.0000 0.72990  0.80110  0.34930  Biso   1.000  C
  C22      1.0000 0.27010  0.19890  0.65070  Biso   1.000  C
  H9       1.0000 0.73940  0.78160  0.42340  Biso   1.000  H
  H10      1.0000 0.26060  0.21840  0.57660  Biso   1.000  H
  H11      1.0000 0.78990  0.77070  0.32690  Biso   1.000  H
  H12      1.0000 0.21010  0.22930  0.67310  Biso   1.000  H
  C23      1.0000 0.58190  0.69620  0.17300  Biso   1.000  C
  C24      1.0000 0.41810  0.30380  0.82700  Biso   1.000  C
  C25      1.0000 0.49520  0.73440  0.30340  Biso   1.000  C
  C26      1.0000 0.50480  0.26560  0.69660  Biso   1.000  C
  C27      1.0000 0.39010  0.66360  0.19800  Biso   1.000  C
  C28      1.0000 0.60990  0.33640  0.80200  Biso   1.000  C
  C29      1.0000 0.48890  0.07230  0.59820  Biso   1.000  C
  C30      1.0000 0.51110  0.92770  0.40180  Biso   1.000  C
  H13      1.0000 0.45920  0.10990  0.53220  Biso   1.000  H
  H14      1.0000 0.54080  0.89010  0.46780  Biso   1.000  H
  H15      1.0000 0.55380  0.03610  0.59160  Biso   1.000  H
  H16      1.0000 0.44620  0.96390  0.40840  Biso   1.000  H
  C31      1.0000 0.65680  0.16120  0.76820  Biso   1.000  C
  C32      1.0000 0.34320  0.83880  0.23180  Biso   1.000  C
  C33      1.0000 0.81780  0.29460  0.91860  Biso   1.000  C
  C34      1.0000 0.18220  0.70540  0.08140  Biso   1.000  C
  H17      1.0000 0.85540  0.37330  0.91170  Biso   1.000  H
  H18      1.0000 0.14460  0.62670  0.08830  Biso   1.000  H
  H19      1.0000 0.86870  0.24530  0.90430  Biso   1.000  H
  H20      1.0000 0.13130  0.75470  0.09570  Biso   1.000  H
  C35      1.0000 0.59400  0.41990  0.97850  Biso   1.000  C
  C36      1.0000 0.40600  0.58010  0.02150  Biso   1.000  C
  H21      1.0000 0.52150  0.42550  0.99670  Biso   1.000  H
  H22      1.0000 0.47850  0.57450  0.00330  Biso   1.000  H
  H23      1.0000 0.64200  0.48940  0.96980  Biso   1.000  H
  H24      1.0000 0.35800  0.51060  0.03020  Biso   1.000  H
  C37      1.0000 0.88290  0.49740  0.10380  Biso   1.000  C
  C38      1.0000 0.11710  0.50260  0.89620  Biso   1.000  C
  H25      1.0000 0.95550  0.49310  0.08490  Biso   1.000  H
  H26      1.0000 0.04450  0.50690  0.91510  Biso   1.000  H
  H27      1.0000 0.83630  0.54600  0.05580  Biso   1.000  H
  H28      1.0000 0.16370  0.45400  0.94420  Biso   1.000  H
  C39      1.0000 0.92060  0.54250  0.22280  Biso   1.000  C
  C40      1.0000 0.07940  0.45750  0.77720  Biso   1.000  C
  H29      1.0000 0.85390  0.57040  0.23600  Biso   1.000  H
  H30      1.0000 0.14610  0.42960  0.76400  Biso   1.000  H
  H31      1.0000 0.99490  0.60480  0.24480  Biso   1.000  H
  H32      1.0000 0.00510  0.39520  0.75520  Biso   1.000  H
  C41      1.0000 0.94600  0.44020  0.28440  Biso   1.000  C
  C42      1.0000 0.05400  0.55980  0.71560  Biso   1.000  C
  H33      1.0000 0.94160  0.45070  0.35730  Biso   1.000  H
  H34      1.0000 0.05840  0.54930  0.64270  Biso   1.000  H
  H35      1.0000 0.02770  0.42770  0.29160  Biso   1.000  H
  H36      1.0000 0.97230  0.57230  0.70840  Biso   1.000  H
  C43      1.0000 0.90620  0.17870  0.51620  Biso   1.000  C
  C44      1.0000 0.09380  0.82130  0.48380  Biso   1.000  C
  H37      1.0000 0.98620  0.16140  0.52410  Biso   1.000  H
  H38      1.0000 0.01380  0.83860  0.47590  Biso   1.000  H
  H39      1.0000 0.91630  0.26180  0.52490  Biso   1.000  H
  H40      1.0000 0.08370  0.73820  0.47510  Biso   1.000  H
  C45      1.0000 0.85400  0.12230  0.59840  Biso   1.000  C
  C46      1.0000 0.14600  0.87770  0.40160  Biso   1.000  C
  H41      1.0000 0.78850  0.15690  0.60580  Biso   1.000  H
  H42      1.0000 0.21150  0.84310  0.39420  Biso   1.000  H
  H43      1.0000 0.91910  0.12900  0.67030  Biso   1.000  H
  H44      1.0000 0.08090  0.87100  0.32970  Biso   1.000  H
  C47      1.0000 0.80240  0.99730  0.54930  Biso   1.000  C
  C48      1.0000 0.19760  0.00270  0.45070  Biso   1.000  C
  H45      1.0000 0.74240  0.95830  0.58030  Biso   1.000  H
  H46      1.0000 0.25760  0.04170  0.41970  Biso   1.000  H
  H47      1.0000 0.86890  0.95630  0.56210  Biso   1.000  H
  H48      1.0000 0.13110  0.04370  0.43790  Biso   1.000  H
  C49      1.0000 0.49500  0.66110  0.39630  Biso   1.000  C
  C50      1.0000 0.50500  0.33890  0.60370  Biso   1.000  C
  H49      1.0000 0.43870  0.67860  0.43160  Biso   1.000  H
  H50      1.0000 0.56130  0.32140  0.56840  Biso   1.000  H
  H51      1.0000 0.57820  0.67230  0.45130  Biso   1.000  H
  H52      1.0000 0.42180  0.32770  0.54870  Biso   1.000  H
  C51      1.0000 0.44940  0.53910  0.33740  Biso   1.000  C
  C52      1.0000 0.55060  0.46090  0.66260  Biso   1.000  C
  H53      1.0000 0.42170  0.48450  0.38270  Biso   1.000  H
  H54      1.0000 0.57830  0.51550  0.61730  Biso   1.000  H
  H55      1.0000 0.51410  0.51490  0.31740  Biso   1.000  H
  H56      1.0000 0.48590  0.48510  0.68260  Biso   1.000  H
  C53      1.0000 0.34060  0.55030  0.23550  Biso   1.000  C
  C54      1.0000 0.65940  0.44970  0.76450  Biso   1.000  C
  H57      1.0000 0.31960  0.48630  0.17890  Biso   1.000  H
  H58      1.0000 0.68040  0.51370  0.82110  Biso   1.000  H
  H59      1.0000 0.26720  0.55320  0.25360  Biso   1.000  H
  H60      1.0000 0.73280  0.44680  0.74640  Biso   1.000  H
  N1       1.0000 0.82230  0.28840  0.02990  Biso   1.000  N
  N2       1.0000 0.17770  0.71160  0.97010  Biso   1.000  N
  N3       1.0000 0.88090  0.23490  0.19786  Biso   1.000  N
  N4       1.0000 0.11910  0.76510  0.80214  Biso   1.000  N
  N5       1.0000 0.67140  0.37410  0.07002  Biso   1.000  N
  N6       1.0000 0.32860  0.62590  0.92998  Biso   1.000  N
  N7       1.0000 0.72980  0.32230  0.23847  Biso   1.000  N
  N8       1.0000 0.27020  0.67770  0.76153  Biso   1.000  N
  N9       1.0000 0.85460  0.09430  0.32210  Biso   1.000  N
  N10      1.0000 0.14540  0.90570  0.67790  Biso   1.000  N
  N11      1.0000 0.75880  0.92470  0.35183  Biso   1.000  N
  N12      1.0000 0.24120  0.07530  0.64817  Biso   1.000  N
  N13      1.0000 0.70760  0.18530  0.36750  Biso   1.000  N
  N14      1.0000 0.29240  0.81470  0.63250  Biso   1.000  N
  N15      1.0000 0.61240  0.01610  0.39778  Biso   1.000  N
  N16      1.0000 0.38760  0.98390  0.60222  Biso   1.000  N
  N17      1.0000 0.60590  0.74540  0.27623  Biso   1.000  N
  N18      1.0000 0.39410  0.25460  0.72377  Biso   1.000  N
  N19      1.0000 0.45670  0.65390  0.12427  Biso   1.000  N
  N20      1.0000 0.54330  0.34610  0.87573  Biso   1.000  N
  N21      1.0000 0.54300  0.15860  0.69153  Biso   1.000  N
  N22      1.0000 0.45700  0.84140  0.30847  Biso   1.000  N
  N23      1.0000 0.69560  0.26170  0.83548  Biso   1.000  N
  N24      1.0000 0.30440  0.73830  0.16452  Biso   1.000  N
  O1       1.0000 0.89730  0.12460  0.05819  Biso   1.000  O
  O2       1.0000 0.10270  0.87540  0.94181  Biso   1.000  O
  O3       1.0000 0.87190  0.92937  0.23884  Biso   1.000  O
  O4       1.0000 0.12810  0.07063  0.76116  Biso   1.000  O
  O5       1.0000 0.65950  0.68840  0.13203  Biso   1.000  O
  O6       1.0000 0.34050  0.31160  0.86797  Biso   1.000  O
  O7       1.0000 0.53040  0.34730  0.15896  Biso   1.000  O
  O8       1.0000 0.46960  0.65270  0.84104  Biso   1.000  O
  O9       1.0000 0.50040  0.15452  0.34881  Biso   1.000  O
  O10      1.0000 0.49960  0.84548  0.65119  Biso   1.000  O
  O11      1.0000 0.71400  0.08652  0.77212  Biso   1.000  O
  O12      1.0000 0.28600  0.91348  0.22788  Biso   1.000  O
  O13      1.0000 0.86630  0.95240  0.85719  Biso   1.000  O
  O14      1.0000 0.13370  0.04760  0.14281  Biso   1.000  O
  H61      1.0000 0.82300  0.88200  0.82700  Biso   1.000  H
  H62      1.0000 0.17700  0.11800  0.17300  Biso   1.000  H
  H63      1.0000 0.81840  0.00100  0.83820  Biso   1.000  H
  H64      1.0000 0.18160  0.99900  0.16180  Biso   1.000  H
  O15      1.0000 0.06320  0.12629  0.92998  Biso   1.000  O
  O16      1.0000 0.93680  0.87371  0.07002  Biso   1.000  O
  H65      1.0000 0.12330  0.18390  0.96690  Biso   1.000  H
  H66      1.0000 0.87670  0.81610  0.03310  Biso   1.000  H
  H67      1.0000 0.09670  0.11520  0.88150  Biso   1.000  H
  H68      1.0000 0.90330  0.88480  0.11850  Biso   1.000  H
  C55      1.0000 0.55980  0.95500  0.95500  Biso   1.000  C
  C56      1.0000 0.44020  0.04500  0.04500  Biso   1.000  C
  H69      1.0000 0.56520  0.89870  0.90210  Biso   1.000  H
  H70      1.0000 0.43480  0.10130  0.09790  Biso   1.000  H
  H71      1.0000 0.62900  0.02070  0.96620  Biso   1.000  H
  H72      1.0000 0.37100  0.97930  0.03380  Biso   1.000  H
  C57      1.0000 0.55860  0.00330  0.10300  Biso   1.000  C
  C58      1.0000 0.44140  0.99670  0.89700  Biso   1.000  C
  H73      1.0000 0.62860  0.06810  0.11390  Biso   1.000  H
  H74      1.0000 0.37140  0.93190  0.88610  Biso   1.000  H
  H75      1.0000 0.55820  0.98750  0.17580  Biso   1.000  H
  H76      1.0000 0.44180  0.01250  0.82420  Biso   1.000  H
  O17      1.0000 0.58600  0.90520  0.05730  Biso   1.000  O
  O18      1.0000 0.41400  0.09480  0.94270  Biso   1.000  O
  N25      1.0000 0.20910  0.42730  0.47260  Biso   1.000  N
  N26      1.0000 0.79090  0.57270  0.52740  Biso   1.000  N
  O19      1.0000 0.21330  0.33770  0.42110  Biso   1.000  O
  O20      1.0000 0.78670  0.66230  0.57890  Biso   1.000  O
  O21      1.0000 0.24170  0.52270  0.44620  Biso   1.000  O
  O22      1.0000 0.75830  0.47730  0.55380  Biso   1.000  O
  O23      1.0000 0.16530  0.41650  0.54510  Biso   1.000  O
  O24      1.0000 0.83470  0.58350  0.45490  Biso   1.000  O
  O25      1.0000 0.74620  0.70420  0.95780  Biso   1.000  O
  O26      1.0000 0.25380  0.29580  0.04220  Biso   1.000  O
  H77      1.0000 0.69630  0.70220  0.00060  Biso   1.000  H
  H78      1.0000 0.30370  0.29780  0.99940  Biso   1.000  H
  H79      1.0000 0.70030  0.70440  0.87350  Biso   1.000  H
  H80      1.0000 0.29970  0.29560  0.12650  Biso   1.000  H
  O27      1.0000 0.29100  0.24620  0.25900  Biso   1.000  O
  O28      1.0000 0.70900  0.75380  0.74100  Biso   1.000  O
  H81      1.0000 0.26570  0.27580  0.31030  Biso   1.000  H
  H82      1.0000 0.73430  0.72420  0.68970  Biso   1.000  H
  H83      1.0000 0.35950  0.22850  0.29430  Biso   1.000  H
  H84      1.0000 0.64050  0.77150  0.70570  Biso   1.000  H
