data_image0
_cell_length_a       11.061
_cell_length_b       11.061
_cell_length_c       14.622
_cell_angle_alpha    90
_cell_angle_beta     90
_cell_angle_gamma    120

_symmetry_space_group_name_H-M    "P 1"
_symmetry_int_tables_number       1

loop_
  _symmetry_equiv_pos_as_xyz
  'x, y, z'

loop_
  _atom_site_label
  _atom_site_occupancy
  _atom_site_fract_x
  _atom_site_fract_y
  _atom_site_fract_z
  _atom_site_thermal_displace_type
  _atom_site_B_iso_or_equiv
  _atom_site_type_symbol
  Cu1      1.0000 0.00000  0.00000  0.50000  Biso   1.000  Cu
  Cu2      1.0000 0.00000  0.00000  0.00000  Biso   1.000  Cu
  N1       1.0000 0.04860  0.17680  0.58313  Biso   1.000  N
  N2       1.0000 0.82320  0.87180  0.58313  Biso   1.000  N
  N3       1.0000 0.12820  0.95140  0.58313  Biso   1.000  N
  N4       1.0000 0.87180  0.82320  0.91687  Biso   1.000  N
  N5       1.0000 0.95140  0.12820  0.91687  Biso   1.000  N
  N6       1.0000 0.17680  0.04860  0.91687  Biso   1.000  N
  N7       1.0000 0.95140  0.82320  0.41687  Biso   1.000  N
  N8       1.0000 0.17680  0.12820  0.41687  Biso   1.000  N
  N9       1.0000 0.87180  0.04860  0.41687  Biso   1.000  N
  N10      1.0000 0.12820  0.17680  0.08313  Biso   1.000  N
  N11      1.0000 0.04860  0.87180  0.08313  Biso   1.000  N
  N12      1.0000 0.82320  0.95140  0.08313  Biso   1.000  N
  N13      1.0000 0.16710  0.24240  0.63452  Biso   1.000  N
  N14      1.0000 0.75760  0.92470  0.63452  Biso   1.000  N
  N15      1.0000 0.07530  0.83290  0.63452  Biso   1.000  N
  N16      1.0000 0.92470  0.75760  0.86548  Biso   1.000  N
  N17      1.0000 0.83290  0.07530  0.86548  Biso   1.000  N
  N18      1.0000 0.24240  0.16710  0.86548  Biso   1.000  N
  N19      1.0000 0.83290  0.75760  0.36548  Biso   1.000  N
  N20      1.0000 0.24240  0.07530  0.36548  Biso   1.000  N
  N21      1.0000 0.92470  0.16710  0.36548  Biso   1.000  N
  N22      1.0000 0.07530  0.24240  0.13452  Biso   1.000  N
  N23      1.0000 0.16710  0.92470  0.13452  Biso   1.000  N
  N24      1.0000 0.75760  0.83290  0.13452  Biso   1.000  N
  C1       1.0000 0.98680  0.25090  0.59208  Biso   1.000  C
  C2       1.0000 0.74910  0.73590  0.59208  Biso   1.000  C
  C3       1.0000 0.26410  0.01320  0.59208  Biso   1.000  C
  C4       1.0000 0.73590  0.74910  0.90792  Biso   1.000  C
  C5       1.0000 0.01320  0.26410  0.90792  Biso   1.000  C
  C6       1.0000 0.25090  0.98680  0.90792  Biso   1.000  C
  C7       1.0000 0.01320  0.74910  0.40792  Biso   1.000  C
  C8       1.0000 0.25090  0.26410  0.40792  Biso   1.000  C
  C9       1.0000 0.73590  0.98680  0.40792  Biso   1.000  C
  C10      1.0000 0.26410  0.25090  0.09208  Biso   1.000  C
  C11      1.0000 0.98680  0.73590  0.09208  Biso   1.000  C
  C12      1.0000 0.74910  0.01320  0.09208  Biso   1.000  C
  N25      1.0000 0.17520  0.35140  0.67267  Biso   1.000  N
  N26      1.0000 0.64860  0.82380  0.67267  Biso   1.000  N
  N27      1.0000 0.17620  0.82480  0.67267  Biso   1.000  N
  N28      1.0000 0.82380  0.64860  0.82733  Biso   1.000  N
  N29      1.0000 0.82480  0.17620  0.82733  Biso   1.000  N
  N30      1.0000 0.35140  0.17520  0.82733  Biso   1.000  N
  N31      1.0000 0.82480  0.64860  0.32733  Biso   1.000  N
  N32      1.0000 0.35140  0.17620  0.32733  Biso   1.000  N
  N33      1.0000 0.82380  0.17520  0.32733  Biso   1.000  N
  N34      1.0000 0.17620  0.35140  0.17267  Biso   1.000  N
  N35      1.0000 0.17520  0.82380  0.17267  Biso   1.000  N
  N36      1.0000 0.64860  0.82480  0.17267  Biso   1.000  N
  N37      1.0000 0.06150  0.35730  0.64676  Biso   1.000  N
  N38      1.0000 0.64270  0.70420  0.64676  Biso   1.000  N
  N39      1.0000 0.29580  0.93850  0.64676  Biso   1.000  N
  N40      1.0000 0.70420  0.64270  0.85324  Biso   1.000  N
  N41      1.0000 0.93850  0.29580  0.85324  Biso   1.000  N
  N42      1.0000 0.35730  0.06150  0.85324  Biso   1.000  N
  N43      1.0000 0.93850  0.64270  0.35324  Biso   1.000  N
  N44      1.0000 0.35730  0.29580  0.35324  Biso   1.000  N
  N45      1.0000 0.70420  0.06150  0.35324  Biso   1.000  N
  N46      1.0000 0.29580  0.35730  0.14676  Biso   1.000  N
  N47      1.0000 0.06150  0.70420  0.14676  Biso   1.000  N
  N48      1.0000 0.64270  0.93850  0.14676  Biso   1.000  N
  H1       1.0000 0.90160  0.23110  0.56360  Biso   1.000  H
  H2       1.0000 0.76890  0.67050  0.56360  Biso   1.000  H
  H3       1.0000 0.32950  0.09840  0.56360  Biso   1.000  H
  H4       1.0000 0.67050  0.76890  0.93640  Biso   1.000  H
  H5       1.0000 0.09840  0.32950  0.93640  Biso   1.000  H
  H6       1.0000 0.23110  0.90160  0.93640  Biso   1.000  H
  H7       1.0000 0.09840  0.76890  0.43640  Biso   1.000  H
  H8       1.0000 0.23110  0.32950  0.43640  Biso   1.000  H
  H9       1.0000 0.67050  0.90160  0.43640  Biso   1.000  H
  H10      1.0000 0.32950  0.23110  0.06360  Biso   1.000  H
  H11      1.0000 0.90160  0.67050  0.06360  Biso   1.000  H
  H12      1.0000 0.76890  0.09840  0.06360  Biso   1.000  H
  C13      1.0000 0.04630  0.47930  0.66860  Biso   1.000  C
  C14      1.0000 0.52070  0.56700  0.66860  Biso   1.000  C
  C15      1.0000 0.43300  0.95370  0.66860  Biso   1.000  C
  C16      1.0000 0.56700  0.52070  0.83140  Biso   1.000  C
  C17      1.0000 0.95370  0.43300  0.83140  Biso   1.000  C
  C18      1.0000 0.47930  0.04630  0.83140  Biso   1.000  C
  C19      1.0000 0.95370  0.52070  0.33140  Biso   1.000  C
  C20      1.0000 0.47930  0.43300  0.33140  Biso   1.000  C
  C21      1.0000 0.56700  0.04630  0.33140  Biso   1.000  C
  C22      1.0000 0.43300  0.47930  0.16860  Biso   1.000  C
  C23      1.0000 0.04630  0.56700  0.16860  Biso   1.000  C
  C24      1.0000 0.52070  0.95370  0.16860  Biso   1.000  C
  C25      1.0000 0.93840  0.45600  0.73040  Biso   1.000  C
  C26      1.0000 0.54400  0.48240  0.73040  Biso   1.000  C
  C27      1.0000 0.51760  0.06160  0.73040  Biso   1.000  C
  C28      1.0000 0.48240  0.54400  0.76960  Biso   1.000  C
  C29      1.0000 0.06160  0.51760  0.76960  Biso   1.000  C
  C30      1.0000 0.45600  0.93840  0.76960  Biso   1.000  C
  C31      1.0000 0.06160  0.54400  0.26960  Biso   1.000  C
  C32      1.0000 0.45600  0.51760  0.26960  Biso   1.000  C
  C33      1.0000 0.48240  0.93840  0.26960  Biso   1.000  C
  C34      1.0000 0.51760  0.45600  0.23040  Biso   1.000  C
  C35      1.0000 0.93840  0.48240  0.23040  Biso   1.000  C
  C36      1.0000 0.54400  0.06160  0.23040  Biso   1.000  C
  H13      1.0000 0.13420  0.55240  0.69310  Biso   1.000  H
  H14      1.0000 0.44760  0.58180  0.69310  Biso   1.000  H
  H15      1.0000 0.41820  0.86580  0.69310  Biso   1.000  H
  H16      1.0000 0.58180  0.44760  0.80690  Biso   1.000  H
  H17      1.0000 0.86580  0.41820  0.80690  Biso   1.000  H
  H18      1.0000 0.55240  0.13420  0.80690  Biso   1.000  H
  H19      1.0000 0.86580  0.44760  0.30690  Biso   1.000  H
  H20      1.0000 0.55240  0.41820  0.30690  Biso   1.000  H
  H21      1.0000 0.58180  0.13420  0.30690  Biso   1.000  H
  H22      1.0000 0.41820  0.55240  0.19310  Biso   1.000  H
  H23      1.0000 0.13420  0.58180  0.19310  Biso   1.000  H
  H24      1.0000 0.44760  0.86580  0.19310  Biso   1.000  H
  H25      1.0000 0.02950  0.51380  0.61180  Biso   1.000  H
  H26      1.0000 0.48620  0.51570  0.61180  Biso   1.000  H
  H27      1.0000 0.48430  0.97050  0.61180  Biso   1.000  H
  H28      1.0000 0.51570  0.48620  0.88820  Biso   1.000  H
  H29      1.0000 0.97050  0.48430  0.88820  Biso   1.000  H
  H30      1.0000 0.51380  0.02950  0.88820  Biso   1.000  H
  H31      1.0000 0.97050  0.48620  0.38820  Biso   1.000  H
  H32      1.0000 0.51380  0.48430  0.38820  Biso   1.000  H
  H33      1.0000 0.51570  0.02950  0.38820  Biso   1.000  H
  H34      1.0000 0.48430  0.51380  0.11180  Biso   1.000  H
  H35      1.0000 0.02950  0.51570  0.11180  Biso   1.000  H
  H36      1.0000 0.48620  0.97050  0.11180  Biso   1.000  H
  H37      1.0000 0.85190  0.37340  0.70830  Biso   1.000  H
  H38      1.0000 0.62660  0.47850  0.70830  Biso   1.000  H
  H39      1.0000 0.52150  0.14810  0.70830  Biso   1.000  H
  H40      1.0000 0.47850  0.62660  0.79170  Biso   1.000  H
  H41      1.0000 0.14810  0.52150  0.79170  Biso   1.000  H
  H42      1.0000 0.37340  0.85190  0.79170  Biso   1.000  H
  H43      1.0000 0.14810  0.62660  0.29170  Biso   1.000  H
  H44      1.0000 0.37340  0.52150  0.29170  Biso   1.000  H
  H45      1.0000 0.47850  0.85190  0.29170  Biso   1.000  H
  H46      1.0000 0.52150  0.37340  0.20830  Biso   1.000  H
  H47      1.0000 0.85190  0.47850  0.20830  Biso   1.000  H
  H48      1.0000 0.62660  0.14810  0.20830  Biso   1.000  H
  H49      1.0000 0.92360  0.53690  0.72580  Biso   1.000  H
  H50      1.0000 0.46310  0.38670  0.72580  Biso   1.000  H
  H51      1.0000 0.61330  0.07640  0.72580  Biso   1.000  H
  H52      1.0000 0.38670  0.46310  0.77420  Biso   1.000  H
  H53      1.0000 0.07640  0.61330  0.77420  Biso   1.000  H
  H54      1.0000 0.53690  0.92360  0.77420  Biso   1.000  H
  H55      1.0000 0.07640  0.46310  0.27420  Biso   1.000  H
  H56      1.0000 0.53690  0.61330  0.27420  Biso   1.000  H
  H57      1.0000 0.38670  0.92360  0.27420  Biso   1.000  H
  H58      1.0000 0.61330  0.53690  0.22580  Biso   1.000  H
  H59      1.0000 0.92360  0.38670  0.22580  Biso   1.000  H
  H60      1.0000 0.46310  0.07640  0.22580  Biso   1.000  H
  Cl1      1.0000 0.33330  0.66670  0.45870  Biso   1.000  Cl
  Cl2      1.0000 0.66660  0.33330  0.04130  Biso   1.000  Cl
  Cl3      1.0000 0.66670  0.33330  0.54130  Biso   1.000  Cl
  Cl4      1.0000 0.33340  0.66670  0.95870  Biso   1.000  Cl
  O1       1.0000 0.33330  0.66670  0.36280  Biso   1.000  O
  O2       1.0000 0.66660  0.33330  0.13720  Biso   1.000  O
  O3       1.0000 0.66670  0.33330  0.63720  Biso   1.000  O
  O4       1.0000 0.33340  0.66670  0.86280  Biso   1.000  O
  O5       1.0000 0.26160  0.53520  0.50560  Biso   1.000  O
  O6       1.0000 0.46480  0.72640  0.50560  Biso   1.000  O
  O7       1.0000 0.27360  0.73840  0.50560  Biso   1.000  O
  O8       1.0000 0.72640  0.46480  0.99440  Biso   1.000  O
  O9       1.0000 0.73840  0.27360  0.99440  Biso   1.000  O
  O10      1.0000 0.53520  0.26160  0.99440  Biso   1.000  O
  O11      1.0000 0.73840  0.46480  0.49440  Biso   1.000  O
  O12      1.0000 0.53520  0.27360  0.49440  Biso   1.000  O
  O13      1.0000 0.72640  0.26160  0.49440  Biso   1.000  O
  O14      1.0000 0.27360  0.53520  0.00560  Biso   1.000  O
  O15      1.0000 0.26160  0.72640  0.00560  Biso   1.000  O
  O16      1.0000 0.46480  0.73840  0.00560  Biso   1.000  O
  H61      1.0000 0.10200  0.55000  0.62900  Biso   1.000  H
  H62      1.0000 0.45000  0.55200  0.62900  Biso   1.000  H
  H63      1.0000 0.44800  0.89800  0.62900  Biso   1.000  H
  H64      1.0000 0.55200  0.45000  0.87100  Biso   1.000  H
  H65      1.0000 0.89800  0.44800  0.87100  Biso   1.000  H
  H66      1.0000 0.55000  0.10200  0.87100  Biso   1.000  H
  H67      1.0000 0.89800  0.45000  0.37100  Biso   1.000  H
  H68      1.0000 0.55000  0.44800  0.37100  Biso   1.000  H
  H69      1.0000 0.55200  0.10200  0.37100  Biso   1.000  H
  H70      1.0000 0.44800  0.55000  0.12900  Biso   1.000  H
  H71      1.0000 0.10200  0.55200  0.12900  Biso   1.000  H
  H72      1.0000 0.45000  0.89800  0.12900  Biso   1.000  H
  H73      1.0000 0.95400  0.46100  0.64700  Biso   1.000  H
  H74      1.0000 0.53900  0.49300  0.64700  Biso   1.000  H
  H75      1.0000 0.50700  0.04600  0.64700  Biso   1.000  H
  H76      1.0000 0.49300  0.53900  0.85300  Biso   1.000  H
  H77      1.0000 0.04600  0.50700  0.85300  Biso   1.000  H
  H78      1.0000 0.46100  0.95400  0.85300  Biso   1.000  H
  H79      1.0000 0.04600  0.53900  0.35300  Biso   1.000  H
  H80      1.0000 0.46100  0.50700  0.35300  Biso   1.000  H
  H81      1.0000 0.49300  0.95400  0.35300  Biso   1.000  H
  H82      1.0000 0.50700  0.46100  0.14700  Biso   1.000  H
  H83      1.0000 0.95400  0.49300  0.14700  Biso   1.000  H
  H84      1.0000 0.53900  0.04600  0.14700  Biso   1.000  H
  Cl5      1.0000 0.33330  0.66670  0.48750  Biso   1.000  Cl
  Cl6      1.0000 0.66660  0.33330  0.01250  Biso   1.000  Cl
  Cl7      1.0000 0.66670  0.33330  0.51250  Biso   1.000  Cl
  Cl8      1.0000 0.33340  0.66670  0.98750  Biso   1.000  Cl
  O17      1.0000 0.22710  0.52900  0.46640  Biso   1.000  O
  O18      1.0000 0.47100  0.69810  0.46640  Biso   1.000  O
  O19      1.0000 0.30190  0.77290  0.46640  Biso   1.000  O
  O20      1.0000 0.69810  0.47100  0.03360  Biso   1.000  O
  O21      1.0000 0.77290  0.30190  0.03360  Biso   1.000  O
  O22      1.0000 0.52900  0.22710  0.03360  Biso   1.000  O
  O23      1.0000 0.77290  0.47100  0.53360  Biso   1.000  O
  O24      1.0000 0.52900  0.30190  0.53360  Biso   1.000  O
  O25      1.0000 0.69810  0.22710  0.53360  Biso   1.000  O
  O26      1.0000 0.30190  0.52900  0.96640  Biso   1.000  O
  O27      1.0000 0.22710  0.69810  0.96640  Biso   1.000  O
  O28      1.0000 0.47100  0.77290  0.96640  Biso   1.000  O
  O29      1.0000 0.33330  0.66670  0.58480  Biso   1.000  O
  O30      1.0000 0.66660  0.33330  0.91520  Biso   1.000  O
  O31      1.0000 0.66670  0.33330  0.41520  Biso   1.000  O
  O32      1.0000 0.33340  0.66670  0.08480  Biso   1.000  O
