data_image0
_cell_length_a       9.467
_cell_length_b       10.314
_cell_length_c       14.0761
_cell_angle_alpha    90.39
_cell_angle_beta     92.808
_cell_angle_gamma    98.412

_symmetry_space_group_name_H-M    "P 1"
_symmetry_int_tables_number       1

loop_
  _symmetry_equiv_pos_as_xyz
  'x, y, z'

loop_
  _atom_site_label
  _atom_site_occupancy
  _atom_site_fract_x
  _atom_site_fract_y
  _atom_site_fract_z
  _atom_site_thermal_displace_type
  _atom_site_B_iso_or_equiv
  _atom_site_type_symbol
  Cu1      1.0000 0.50000  0.50000  0.50000  Biso   1.000  Cu
  O1       1.0000 0.73326  0.48232  0.55320  Biso   1.000  O
  O2       1.0000 0.26674  0.51768  0.44680  Biso   1.000  O
  N1       1.0000 0.50480  0.35081  0.40660  Biso   1.000  N
  N2       1.0000 0.49520  0.64919  0.59340  Biso   1.000  N
  N3       1.0000 0.44240  0.36965  0.60171  Biso   1.000  N
  N4       1.0000 0.55760  0.63035  0.39829  Biso   1.000  N
  H1       1.0000 0.77100  0.43600  0.52160  Biso   1.000  H
  H2       1.0000 0.22900  0.56400  0.47840  Biso   1.000  H
  H3       1.0000 0.78400  0.55200  0.55530  Biso   1.000  H
  H4       1.0000 0.21600  0.44800  0.44470  Biso   1.000  H
  N5       1.0000 0.60213  0.36032  0.33790  Biso   1.000  N
  N6       1.0000 0.39787  0.63968  0.66210  Biso   1.000  N
  C1       1.0000 0.43920  0.22859  0.40302  Biso   1.000  C
  C2       1.0000 0.56080  0.77141  0.59698  Biso   1.000  C
  N7       1.0000 0.30462  0.33200  0.62356  Biso   1.000  N
  N8       1.0000 0.69538  0.66800  0.37644  Biso   1.000  N
  C3       1.0000 0.52160  0.31059  0.66238  Biso   1.000  C
  C4       1.0000 0.47840  0.68941  0.33762  Biso   1.000  C
  N9       1.0000 0.59607  0.24912  0.29431  Biso   1.000  N
  N10      1.0000 0.40393  0.75088  0.70569  Biso   1.000  N
  N11      1.0000 0.49403  0.16546  0.33480  Biso   1.000  N
  N12      1.0000 0.50597  0.83454  0.66520  Biso   1.000  N
  H5       1.0000 0.36540  0.19220  0.44250  Biso   1.000  H
  H6       1.0000 0.63460  0.80780  0.55750  Biso   1.000  H
  N13      1.0000 0.30028  0.25351  0.69456  Biso   1.000  N
  N14      1.0000 0.69972  0.74649  0.30544  Biso   1.000  N
  N15      1.0000 0.43568  0.23902  0.71949  Biso   1.000  N
  N16      1.0000 0.56432  0.76098  0.28051  Biso   1.000  N
  H7       1.0000 0.62300  0.31820  0.66470  Biso   1.000  H
  H8       1.0000 0.37700  0.68180  0.33530  Biso   1.000  H
  C5       1.0000 0.45570  0.02798  0.30223  Biso   1.000  C
  C6       1.0000 0.54430  0.97202  0.69777  Biso   1.000  C
  C7       1.0000 0.46640  0.15177  0.79758  Biso   1.000  C
  C8       1.0000 0.53360  0.84823  0.20242  Biso   1.000  C
  H9       1.0000 0.36230  0.01620  0.27120  Biso   1.000  H
  H10      1.0000 0.63770  0.98380  0.72880  Biso   1.000  H
  H11      1.0000 0.45340  0.97140  0.35600  Biso   1.000  H
  H12      1.0000 0.54660  0.02860  0.64400  Biso   1.000  H
  C9       1.0000 0.56280  0.99152  0.23398  Biso   1.000  C
  C10      1.0000 0.43720  0.00848  0.76602  Biso   1.000  C
  H13      1.0000 0.56290  0.17290  0.81900  Biso   1.000  H
  H14      1.0000 0.43710  0.82710  0.18100  Biso   1.000  H
  H15      1.0000 0.40930  0.16480  0.84880  Biso   1.000  H
  H16      1.0000 0.59070  0.83520  0.15120  Biso   1.000  H
  H17      1.0000 0.65380  0.00860  0.26310  Biso   1.000  H
  H18      1.0000 0.34620  0.99140  0.73690  Biso   1.000  H
  H19      1.0000 0.56110  0.04390  0.18070  Biso   1.000  H
  H20      1.0000 0.43890  0.95610  0.81930  Biso   1.000  H
  Cu2      1.0000 0.00000  0.00000  0.00000  Biso   1.000  Cu
  O3       1.0000 0.75263  0.91769  0.01531  Biso   1.000  O
  O4       1.0000 0.24737  0.08231  0.98469  Biso   1.000  O
  N17      1.0000 0.98572  0.14859  0.08893  Biso   1.000  N
  N18      1.0000 0.01428  0.85141  0.91107  Biso   1.000  N
  H21      1.0000 0.70800  0.86800  0.98000  Biso   1.000  H
  H22      1.0000 0.29200  0.13200  0.02000  Biso   1.000  H
  H23      1.0000 0.72000  0.98100  0.01500  Biso   1.000  H
  H24      1.0000 0.28000  0.01900  0.98500  Biso   1.000  H
  N19      1.0000 0.98282  0.67209  0.83097  Biso   1.000  N
  N20      1.0000 0.01718  0.32791  0.16903  Biso   1.000  N
  N21      1.0000 0.06773  0.76057  0.78098  Biso   1.000  N
  N22      1.0000 0.93227  0.23943  0.21902  Biso   1.000  N
  N23      1.0000 0.08663  0.86846  0.82976  Biso   1.000  N
  N24      1.0000 0.91337  0.13154  0.17024  Biso   1.000  N
  N25      1.0000 0.95645  0.11325  0.88847  Biso   1.000  N
  N26      1.0000 0.04355  0.88675  0.11153  Biso   1.000  N
  N27      1.0000 0.82040  0.11399  0.85475  Biso   1.000  N
  N28      1.0000 0.17960  0.88601  0.14525  Biso   1.000  N
  N29      1.0000 0.81876  0.19847  0.78761  Biso   1.000  N
  N30      1.0000 0.18124  0.80153  0.21239  Biso   1.000  N
  N31      1.0000 0.95410  0.25339  0.77732  Biso   1.000  N
  N32      1.0000 0.04590  0.74661  0.22268  Biso   1.000  N
  C11      1.0000 0.93030  0.54010  0.79269  Biso   1.000  C
  C12      1.0000 0.06970  0.45990  0.20731  Biso   1.000  C
  H25      1.0000 0.90040  0.48460  0.84270  Biso   1.000  H
  H26      1.0000 0.09960  0.51540  0.15730  Biso   1.000  H
  H27      1.0000 0.85100  0.54367  0.75060  Biso   1.000  H
  H28      1.0000 0.14900  0.45633  0.24940  Biso   1.000  H
  C13      1.0000 0.95110  0.72836  0.90995  Biso   1.000  C
  C14      1.0000 0.04890  0.27164  0.09005  Biso   1.000  C
  H29      1.0000 0.89310  0.68760  0.95770  Biso   1.000  H
  H30      1.0000 0.10690  0.31240  0.04230  Biso   1.000  H
  C15      1.0000 0.03750  0.19935  0.83902  Biso   1.000  C
  C16      1.0000 0.96250  0.80065  0.16098  Biso   1.000  C
  H31      1.0000 0.13860  0.21950  0.84620  Biso   1.000  H
  H32      1.0000 0.86140  0.78050  0.15380  Biso   1.000  H
  C17      1.0000 0.98830  0.34813  0.70132  Biso   1.000  C
  C18      1.0000 0.01170  0.65187  0.29868  Biso   1.000  C
  H33      1.0000 0.05970  0.31840  0.66220  Biso   1.000  H
  H34      1.0000 0.94030  0.68160  0.33780  Biso   1.000  H
  H35      1.0000 0.90260  0.35218  0.66090  Biso   1.000  H
  H36      1.0000 0.09740  0.64782  0.33910  Biso   1.000  H
  C19      1.0000 0.04480  0.48405  0.74098  Biso   1.000  C
  C20      1.0000 0.95520  0.51595  0.25902  Biso   1.000  C
  H37      1.0000 0.07590  0.54080  0.68990  Biso   1.000  H
  H38      1.0000 0.92410  0.45920  0.31010  Biso   1.000  H
  H39      1.0000 0.12570  0.47948  0.78410  Biso   1.000  H
  H40      1.0000 0.87430  0.52052  0.21590  Biso   1.000  H
  O5       1.0000 0.80115  0.46742  0.02797  Biso   1.000  O
  O6       1.0000 0.19885  0.53258  0.97203  Biso   1.000  O
  O7       1.0000 0.67610  0.60776  0.08449  Biso   1.000  O
  O8       1.0000 0.32390  0.39224  0.91551  Biso   1.000  O
  O9       1.0000 0.37535  0.29267  0.12982  Biso   1.000  O
  O10      1.0000 0.62465  0.70733  0.87018  Biso   1.000  O
  O11      1.0000 0.43140  0.50401  0.15258  Biso   1.000  O
  O12      1.0000 0.56860  0.49599  0.84742  Biso   1.000  O
  N33      1.0000 0.69010  0.49357  0.06390  Biso   1.000  N
  N34      1.0000 0.30990  0.50643  0.93610  Biso   1.000  N
  N35      1.0000 0.45870  0.39830  0.12277  Biso   1.000  N
  N36      1.0000 0.54130  0.60170  0.87723  Biso   1.000  N
  N37      1.0000 0.62380  0.16091  0.02362  Biso   1.000  N
  N38      1.0000 0.37620  0.83909  0.97638  Biso   1.000  N
  C21      1.0000 0.58590  0.38814  0.07886  Biso   1.000  C
  C22      1.0000 0.41410  0.61186  0.92114  Biso   1.000  C
  C23      1.0000 0.60840  0.26320  0.04828  Biso   1.000  C
  C24      1.0000 0.39160  0.73680  0.95172  Biso   1.000  C
  O13      1.0000 0.95258  0.35719  0.47265  Biso   1.000  O
  O14      1.0000 0.04742  0.64281  0.52735  Biso   1.000  O
  O15      1.0000 0.11414  0.26107  0.40833  Biso   1.000  O
  O16      1.0000 0.88586  0.73893  0.59167  Biso   1.000  O
  O17      1.0000 0.72326  0.19765  0.51868  Biso   1.000  O
  O18      1.0000 0.27674  0.80235  0.48132  Biso   1.000  O
  O19      1.0000 0.70886  0.99811  0.46413  Biso   1.000  O
  O20      1.0000 0.29114  0.00189  0.53587  Biso   1.000  O
  N39      1.0000 0.99200  0.25719  0.44008  Biso   1.000  N
  N40      1.0000 0.00800  0.74281  0.55992  Biso   1.000  N
  N41      1.0000 0.77361  0.11230  0.47471  Biso   1.000  N
  N42      1.0000 0.22639  0.88770  0.52529  Biso   1.000  N
  N43      1.0000 0.01170  0.94852  0.36009  Biso   1.000  N
  N44      1.0000 0.98830  0.05148  0.63991  Biso   1.000  N
  C25      1.0000 0.90540  0.13690  0.43384  Biso   1.000  C
  C26      1.0000 0.09460  0.86310  0.56616  Biso   1.000  C
  C27      1.0000 0.96200  0.03224  0.39255  Biso   1.000  C
  C28      1.0000 0.03800  0.96776  0.60745  Biso   1.000  C
