data_image0
_cell_length_a       12.067
_cell_length_b       15.262
_cell_length_c       20.31
_cell_angle_alpha    96.457
_cell_angle_beta     95.796
_cell_angle_gamma    90.465

_symmetry_space_group_name_H-M    "P 1"
_symmetry_int_tables_number       1

loop_
  _symmetry_equiv_pos_as_xyz
  'x, y, z'

loop_
  _atom_site_label
  _atom_site_occupancy
  _atom_site_fract_x
  _atom_site_fract_y
  _atom_site_fract_z
  _atom_site_thermal_displace_type
  _atom_site_B_iso_or_equiv
  _atom_site_type_symbol
  C1       1.0000 0.93760  0.25510  0.37080  Biso   1.000  C
  C2       1.0000 0.06240  0.74490  0.62920  Biso   1.000  C
  H1       1.0000 0.86930  0.22770  0.35550  Biso   1.000  H
  H2       1.0000 0.13070  0.77230  0.64450  Biso   1.000  H
  C3       1.0000 0.10700  0.29050  0.38530  Biso   1.000  C
  C4       1.0000 0.89300  0.70950  0.61470  Biso   1.000  C
  H3       1.0000 0.18270  0.29130  0.38000  Biso   1.000  H
  H4       1.0000 0.81730  0.70870  0.62000  Biso   1.000  H
  C5       1.0000 0.87500  0.36700  0.46060  Biso   1.000  C
  C6       1.0000 0.12500  0.63300  0.53940  Biso   1.000  C
  H5       1.0000 0.80090  0.35180  0.43910  Biso   1.000  H
  H6       1.0000 0.19910  0.64820  0.56090  Biso   1.000  H
  H7       1.0000 0.88560  0.43020  0.46140  Biso   1.000  H
  H8       1.0000 0.11440  0.56980  0.53860  Biso   1.000  H
  C7       1.0000 0.88100  0.34600  0.52970  Biso   1.000  C
  C8       1.0000 0.11900  0.65400  0.47030  Biso   1.000  C
  H9       1.0000 0.89080  0.28230  0.52730  Biso   1.000  H
  H10      1.0000 0.10920  0.71770  0.47270  Biso   1.000  H
  H11      1.0000 0.95000  0.37240  0.55190  Biso   1.000  H
  H12      1.0000 0.05000  0.62760  0.44810  Biso   1.000  H
  C9       1.0000 0.79700  0.36600  0.57500  Biso   1.000  C
  C10      1.0000 0.20300  0.63400  0.42500  Biso   1.000  C
  H13      1.0000 0.80680  0.33190  0.61310  Biso   1.000  H
  H14      1.0000 0.19320  0.66810  0.38690  Biso   1.000  H
  H15      1.0000 0.72220  0.35570  0.55320  Biso   1.000  H
  H16      1.0000 0.27780  0.64430  0.44680  Biso   1.000  H
  C11      1.0000 0.82100  0.46400  0.59700  Biso   1.000  C
  C12      1.0000 0.17900  0.53600  0.40300  Biso   1.000  C
  H17      1.0000 0.81820  0.49800  0.55910  Biso   1.000  H
  H18      1.0000 0.18180  0.50200  0.44090  Biso   1.000  H
  H19      1.0000 0.89200  0.47460  0.62360  Biso   1.000  H
  H20      1.0000 0.10800  0.52540  0.37640  Biso   1.000  H
  C13      1.0000 0.48600  0.22800  0.32790  Biso   1.000  C
  C14      1.0000 0.51400  0.77200  0.67210  Biso   1.000  C
  H21      1.0000 0.41600  0.22330  0.34220  Biso   1.000  H
  H22      1.0000 0.58400  0.77670  0.65780  Biso   1.000  H
  C15      1.0000 0.62200  0.26500  0.28060  Biso   1.000  C
  C16      1.0000 0.37800  0.73500  0.71940  Biso   1.000  C
  H23      1.0000 0.66560  0.29150  0.25270  Biso   1.000  H
  H24      1.0000 0.33440  0.70850  0.74730  Biso   1.000  H
  C17      1.0000 0.58000  0.12090  0.39820  Biso   1.000  C
  C18      1.0000 0.42000  0.87910  0.60180  Biso   1.000  C
  H25      1.0000 0.58070  0.06340  0.37240  Biso   1.000  H
  H26      1.0000 0.41930  0.93660  0.62760  Biso   1.000  H
  H27      1.0000 0.51480  0.12330  0.42250  Biso   1.000  H
  H28      1.0000 0.48520  0.87670  0.57750  Biso   1.000  H
  C19      1.0000 0.68500  0.13400  0.44670  Biso   1.000  C
  C20      1.0000 0.31500  0.86600  0.55330  Biso   1.000  C
  H29      1.0000 0.68360  0.19060  0.47380  Biso   1.000  H
  H30      1.0000 0.31640  0.80940  0.52620  Biso   1.000  H
  H31      1.0000 0.75030  0.13220  0.42290  Biso   1.000  H
  H32      1.0000 0.24970  0.86780  0.57710  Biso   1.000  H
  C21      1.0000 0.68500  0.05700  0.49150  Biso   1.000  C
  C22      1.0000 0.31500  0.94300  0.50850  Biso   1.000  C
  H33      1.0000 0.61660  0.05610  0.51290  Biso   1.000  H
  H34      1.0000 0.38340  0.94390  0.48710  Biso   1.000  H
  H35      1.0000 0.69170  0.00060  0.46500  Biso   1.000  H
  H36      1.0000 0.30830  0.99940  0.53500  Biso   1.000  H
  C23      1.0000 0.78400  0.07440  0.54280  Biso   1.000  C
  C24      1.0000 0.21600  0.92560  0.45720  Biso   1.000  C
  H37      1.0000 0.85180  0.07260  0.52110  Biso   1.000  H
  H38      1.0000 0.14820  0.92740  0.47890  Biso   1.000  H
  H39      1.0000 0.77870  0.13260  0.56700  Biso   1.000  H
  H40      1.0000 0.22130  0.86740  0.43300  Biso   1.000  H
  C25      1.0000 0.73300  0.93800  0.66410  Biso   1.000  C
  C26      1.0000 0.26700  0.06200  0.33590  Biso   1.000  C
  H41      1.0000 0.68700  0.91310  0.69170  Biso   1.000  H
  H42      1.0000 0.31300  0.08690  0.30830  Biso   1.000  H
  C27      1.0000 0.87400  0.96940  0.61750  Biso   1.000  C
  C28      1.0000 0.12600  0.03060  0.38250  Biso   1.000  C
  H43      1.0000 0.94600  0.97520  0.60580  Biso   1.000  H
  H44      1.0000 0.05400  0.02480  0.39420  Biso   1.000  H
  C29      1.0000 0.62100  0.11900  0.03900  Biso   1.000  C
  C30      1.0000 0.37900  0.88100  0.96100  Biso   1.000  C
  H45      1.0000 0.61470  0.05510  0.03430  Biso   1.000  H
  H46      1.0000 0.38530  0.94490  0.96570  Biso   1.000  H
  H47      1.0000 0.68590  0.13640  0.07020  Biso   1.000  H
  H48      1.0000 0.31410  0.86360  0.92980  Biso   1.000  H
  C31      1.0000 0.63600  0.14790  0.97570  Biso   1.000  C
  C32      1.0000 0.36400  0.85210  0.02430  Biso   1.000  C
  H49      1.0000 0.66270  0.20860  0.98280  Biso   1.000  H
  H50      1.0000 0.33730  0.79140  0.01720  Biso   1.000  H
  H51      1.0000 0.56420  0.14630  0.94930  Biso   1.000  H
  H52      1.0000 0.43580  0.85370  0.05070  Biso   1.000  H
  C33      1.0000 0.71400  0.09500  0.93820  Biso   1.000  C
  C34      1.0000 0.28600  0.90500  0.06180  Biso   1.000  C
  H53      1.0000 0.76070  0.06590  0.97040  Biso   1.000  H
  H54      1.0000 0.23930  0.93410  0.02960  Biso   1.000  H
  H55      1.0000 0.66950  0.04890  0.91040  Biso   1.000  H
  H56      1.0000 0.33050  0.95110  0.08960  Biso   1.000  H
  C35      1.0000 0.78500  0.13100  0.89710  Biso   1.000  C
  C36      1.0000 0.21500  0.86900  0.10290  Biso   1.000  C
  H57      1.0000 0.82900  0.17860  0.92260  Biso   1.000  H
  H58      1.0000 0.17100  0.82140  0.07740  Biso   1.000  H
  H59      1.0000 0.74090  0.15430  0.86080  Biso   1.000  H
  H60      1.0000 0.25910  0.84570  0.13920  Biso   1.000  H
  C37      1.0000 0.97900  0.96790  0.86250  Biso   1.000  C
  C38      1.0000 0.02100  0.03210  0.13750  Biso   1.000  C
  H61      1.0000 0.04130  0.93480  0.87370  Biso   1.000  H
  H62      1.0000 0.95870  0.06520  0.12630  Biso   1.000  H
  C39      1.0000 0.84700  0.01800  0.80800  Biso   1.000  C
  C40      1.0000 0.15300  0.98200  0.19200  Biso   1.000  C
  H63      1.0000 0.79320  0.02870  0.77390  Biso   1.000  H
  H64      1.0000 0.20680  0.97130  0.22610  Biso   1.000  H
  C41      1.0000 0.26800  0.57200  0.04300  Biso   1.000  C
  C42      1.0000 0.73200  0.42800  0.95700  Biso   1.000  C
  H65      1.0000 0.25990  0.62920  0.06750  Biso   1.000  H
  H66      1.0000 0.74010  0.37080  0.93250  Biso   1.000  H
  H67      1.0000 0.34500  0.56520  0.03300  Biso   1.000  H
  H68      1.0000 0.65500  0.43480  0.96700  Biso   1.000  H
  C43      1.0000 0.20500  0.56110  0.99320  Biso   1.000  C
  C44      1.0000 0.79500  0.43890  0.00680  Biso   1.000  C
  H69      1.0000 0.13140  0.54570  0.00480  Biso   1.000  H
  H70      1.0000 0.86860  0.45430  0.99520  Biso   1.000  H
  H71      1.0000 0.22910  0.51220  0.96370  Biso   1.000  H
  H72      1.0000 0.77090  0.48780  0.03630  Biso   1.000  H
  C45      1.0000 0.19600  0.64300  0.95690  Biso   1.000  C
  C46      1.0000 0.80400  0.35700  0.04310  Biso   1.000  C
  H73      1.0000 0.17450  0.69240  0.98670  Biso   1.000  H
  H74      1.0000 0.82550  0.30760  0.01330  Biso   1.000  H
  H75      1.0000 0.26840  0.65670  0.94330  Biso   1.000  H
  H76      1.0000 0.73160  0.34330  0.05670  Biso   1.000  H
  C47      1.0000 0.12000  0.63000  0.90210  Biso   1.000  C
  C48      1.0000 0.88000  0.37000  0.09790  Biso   1.000  C
  H77      1.0000 0.04740  0.62030  0.91710  Biso   1.000  H
  H78      1.0000 0.95260  0.37970  0.08290  Biso   1.000  H
  H79      1.0000 0.13840  0.57650  0.87540  Biso   1.000  H
  H80      1.0000 0.86160  0.42350  0.12460  Biso   1.000  H
  C49      1.0000 0.15600  0.80100  0.80100  Biso   1.000  C
  C50      1.0000 0.84400  0.19900  0.19900  Biso   1.000  C
  H81      1.0000 0.20080  0.83840  0.78130  Biso   1.000  H
  H82      1.0000 0.79920  0.16160  0.21870  Biso   1.000  H
  C51      1.0000 0.01800  0.73070  0.82550  Biso   1.000  C
  C52      1.0000 0.98200  0.26930  0.17450  Biso   1.000  C
  H83      1.0000 0.94640  0.70980  0.82770  Biso   1.000  H
  H84      1.0000 0.05360  0.29020  0.17230  Biso   1.000  H
  N1       1.0000 0.03610  0.23550  0.34880  Biso   1.000  N
  N2       1.0000 0.96390  0.76450  0.65120  Biso   1.000  N
  N3       1.0000 0.95690  0.32240  0.41950  Biso   1.000  N
  N4       1.0000 0.04310  0.67760  0.58050  Biso   1.000  N
  N5       1.0000 0.06300  0.34520  0.43040  Biso   1.000  N
  N6       1.0000 0.93700  0.65480  0.56960  Biso   1.000  N
  N7       1.0000 0.51020  0.27450  0.27830  Biso   1.000  N
  N8       1.0000 0.48980  0.72550  0.72170  Biso   1.000  N
  N9       1.0000 0.57460  0.19080  0.35280  Biso   1.000  N
  N10      1.0000 0.42540  0.80920  0.64720  Biso   1.000  N
  N11      1.0000 0.66550  0.21510  0.32590  Biso   1.000  N
  N12      1.0000 0.33450  0.78490  0.67410  Biso   1.000  N
  N13      1.0000 0.78590  0.00600  0.58990  Biso   1.000  N
  N14      1.0000 0.21410  0.99400  0.41010  Biso   1.000  N
  N15      1.0000 0.69560  0.99090  0.62050  Biso   1.000  N
  N16      1.0000 0.30440  0.00910  0.37950  Biso   1.000  N
  N17      1.0000 0.84460  0.92200  0.66530  Biso   1.000  N
  N18      1.0000 0.15540  0.07800  0.33470  Biso   1.000  N
  N19      1.0000 0.43680  0.23930  0.14470  Biso   1.000  N
  N20      1.0000 0.56320  0.76070  0.85530  Biso   1.000  N
  C53      1.0000 0.52590  0.23850  0.10410  Biso   1.000  C
  C54      1.0000 0.47410  0.76150  0.89590  Biso   1.000  C
  H85      1.0000 0.57630  0.28460  0.10310  Biso   1.000  H
  H86      1.0000 0.42370  0.71540  0.89690  Biso   1.000  H
  N21      1.0000 0.52450  0.15500  0.06530  Biso   1.000  N
  N22      1.0000 0.47550  0.84500  0.93470  Biso   1.000  N
  N23      1.0000 0.43460  0.10420  0.08200  Biso   1.000  N
  N24      1.0000 0.56540  0.89580  0.91800  Biso   1.000  N
  C55      1.0000 0.38030  0.15620  0.13110  Biso   1.000  C
  C56      1.0000 0.61970  0.84380  0.86890  Biso   1.000  C
  H87      1.0000 0.31860  0.13900  0.15080  Biso   1.000  H
  H88      1.0000 0.68140  0.86100  0.84920  Biso   1.000  H
  N25      1.0000 0.86200  0.06190  0.86900  Biso   1.000  N
  N26      1.0000 0.13800  0.93810  0.13100  Biso   1.000  N
  N27      1.0000 0.94400  0.03090  0.90530  Biso   1.000  N
  N28      1.0000 0.05600  0.96910  0.09470  Biso   1.000  N
  N29      1.0000 0.92320  0.95470  0.80450  Biso   1.000  N
  N30      1.0000 0.07680  0.04530  0.19550  Biso   1.000  N
  N31      1.0000 0.31000  0.38510  0.14840  Biso   1.000  N
  N32      1.0000 0.69000  0.61490  0.85160  Biso   1.000  N
  C57      1.0000 0.31500  0.47430  0.13510  Biso   1.000  C
  C58      1.0000 0.68500  0.52570  0.86490  Biso   1.000  C
  H89      1.0000 0.36750  0.51660  0.15510  Biso   1.000  H
  H90      1.0000 0.63250  0.48340  0.84490  Biso   1.000  H
  N33      1.0000 0.22600  0.48750  0.08590  Biso   1.000  N
  N34      1.0000 0.77400  0.51250  0.91410  Biso   1.000  N
  N35      1.0000 0.16620  0.40650  0.06880  Biso   1.000  N
  N36      1.0000 0.83380  0.59350  0.93120  Biso   1.000  N
  C59      1.0000 0.21800  0.34320  0.10750  Biso   1.000  C
  C60      1.0000 0.78200  0.65680  0.89250  Biso   1.000  C
  H91      1.0000 0.19500  0.28450  0.10620  Biso   1.000  H
  H92      1.0000 0.80500  0.71550  0.89380  Biso   1.000  H
  N37      1.0000 0.11000  0.70240  0.85830  Biso   1.000  N
  N38      1.0000 0.89000  0.29760  0.14170  Biso   1.000  N
  N39      1.0000 0.19560  0.74550  0.84660  Biso   1.000  N
  N40      1.0000 0.80440  0.25450  0.15340  Biso   1.000  N
  N41      1.0000 0.04580  0.79380  0.78900  Biso   1.000  N
  N42      1.0000 0.95420  0.20620  0.21100  Biso   1.000  N
  Cl1      1.0000 0.23290  0.23380  0.24240  Biso   1.000  Cl
  Cl2      1.0000 0.76710  0.76620  0.75760  Biso   1.000  Cl
  Cu1      1.0000 0.39910  0.32885  0.21520  Biso   1.000  Cu
  Cu2      1.0000 0.60090  0.67115  0.78480  Biso   1.000  Cu
  Cu3      1.0000 0.06330  0.14445  0.27147  Biso   1.000  Cu
  Cu4      1.0000 0.93670  0.85555  0.72853  Biso   1.000  Cu
  N43      1.0000 0.60600  0.48750  0.61610  Biso   1.000  N
  N44      1.0000 0.39400  0.51250  0.38390  Biso   1.000  N
  C61      1.0000 0.55800  0.54100  0.66100  Biso   1.000  C
  C62      1.0000 0.44200  0.45900  0.33900  Biso   1.000  C
  H93      1.0000 0.48260  0.55240  0.65690  Biso   1.000  H
  H94      1.0000 0.51740  0.44760  0.34310  Biso   1.000  H
  N45      1.0000 0.71100  0.48700  0.64360  Biso   1.000  N
  N46      1.0000 0.28900  0.51300  0.35640  Biso   1.000  N
  C63      1.0000 0.72900  0.54000  0.70030  Biso   1.000  C
  C64      1.0000 0.27100  0.46000  0.29970  Biso   1.000  C
  H95      1.0000 0.79620  0.54990  0.72680  Biso   1.000  H
  H96      1.0000 0.20380  0.45010  0.27320  Biso   1.000  H
  N47      1.0000 0.62810  0.57690  0.71190  Biso   1.000  N
  N48      1.0000 0.37190  0.42310  0.28810  Biso   1.000  N
  O1       1.0000 0.82900  0.80370  0.29630  Biso   1.000  O
  O2       1.0000 0.17100  0.19630  0.70370  Biso   1.000  O
  O3       1.0000 0.97170  0.90020  0.27770  Biso   1.000  O
  O4       1.0000 0.02830  0.09980  0.72230  Biso   1.000  O
  O5       1.0000 0.82300  0.69950  0.41970  Biso   1.000  O
  O6       1.0000 0.17700  0.30050  0.58030  Biso   1.000  O
  O7       1.0000 0.75200  0.64430  0.26910  Biso   1.000  O
  O8       1.0000 0.24800  0.35570  0.73090  Biso   1.000  O
  O9       1.0000 0.01700  0.66050  0.28810  Biso   1.000  O
  O10      1.0000 0.98300  0.33950  0.71190  Biso   1.000  O
  O11      1.0000 0.93630  0.59740  0.16820  Biso   1.000  O
  O12      1.0000 0.06370  0.40260  0.83180  Biso   1.000  O
  O13      1.0000 0.71500  0.84190  0.22680  Biso   1.000  O
  O14      1.0000 0.28500  0.15810  0.77320  Biso   1.000  O
  O15      1.0000 0.53930  0.88690  0.33020  Biso   1.000  O
  O16      1.0000 0.46070  0.11310  0.66980  Biso   1.000  O
  O17      1.0000 0.69210  0.83060  0.41850  Biso   1.000  O
  O18      1.0000 0.30790  0.16940  0.58150  Biso   1.000  O
  O19      1.0000 0.60910  0.67130  0.39070  Biso   1.000  O
  O20      1.0000 0.39090  0.32870  0.60930  Biso   1.000  O
  O21      1.0000 0.45800  0.72350  0.30710  Biso   1.000  O
  O22      1.0000 0.54200  0.27650  0.69290  Biso   1.000  O
  O23      1.0000 0.45500  0.82430  0.20950  Biso   1.000  O
  O24      1.0000 0.54500  0.17570  0.79050  Biso   1.000  O
  O25      1.0000 0.64130  0.78590  0.07900  Biso   1.000  O
  O26      1.0000 0.35870  0.21410  0.92100  Biso   1.000  O
  O27      1.0000 0.77550  0.65320  0.08090  Biso   1.000  O
  O28      1.0000 0.22450  0.34680  0.91910  Biso   1.000  O
  O29      1.0000 0.63060  0.55980  0.12440  Biso   1.000  O
  O30      1.0000 0.36940  0.44020  0.87560  Biso   1.000  O
  O31      1.0000 0.57870  0.41900  0.19530  Biso   1.000  O
  O32      1.0000 0.42130  0.58100  0.80470  Biso   1.000  O
  O33      1.0000 0.64100  0.68480  0.20100  Biso   1.000  O
  O34      1.0000 0.35900  0.31520  0.79900  Biso   1.000  O
  O35      1.0000 0.57100  0.62980  0.00470  Biso   1.000  O
  O36      1.0000 0.42900  0.37020  0.99530  Biso   1.000  O
  O37      1.0000 0.30550  0.68110  0.19560  Biso   1.000  O
  O38      1.0000 0.69450  0.31890  0.80440  Biso   1.000  O
  O39      1.0000 0.47000  0.80390  0.43530  Biso   1.000  O
  O40      1.0000 0.53000  0.19610  0.56470  Biso   1.000  O
  O41      1.0000 0.46010  0.00760  0.24340  Biso   1.000  O
  O42      1.0000 0.53990  0.99240  0.75660  Biso   1.000  O
  O43      1.0000 0.85670  0.81330  0.10690  Biso   1.000  O
  O44      1.0000 0.14330  0.18670  0.89310  Biso   1.000  O
  O45      1.0000 0.74100  0.94670  0.05990  Biso   1.000  O
  O46      1.0000 0.25900  0.05330  0.94010  Biso   1.000  O
  O47      1.0000 0.01300  0.76300  0.19100  Biso   1.000  O
  O48      1.0000 0.98700  0.23700  0.80900  Biso   1.000  O
  O49      1.0000 0.99650  0.68400  0.06170  Biso   1.000  O
  O50      1.0000 0.00350  0.31600  0.93830  Biso   1.000  O
  O51      1.0000 0.00800  0.47940  0.25340  Biso   1.000  O
  O52      1.0000 0.99200  0.52060  0.74660  Biso   1.000  O
  O53      1.0000 0.73200  0.53700  0.43790  Biso   1.000  O
  O54      1.0000 0.26800  0.46300  0.56210  Biso   1.000  O
  O55      1.0000 0.90400  0.85970  0.49030  Biso   1.000  O
  O56      1.0000 0.09600  0.14030  0.50970  Biso   1.000  O
  O57      1.0000 0.16160  0.80560  0.30250  Biso   1.000  O
  O58      1.0000 0.83840  0.19440  0.69750  Biso   1.000  O
  O59      1.0000 0.88840  0.06730  0.30420  Biso   1.000  O
  O60      1.0000 0.11160  0.93270  0.69580  Biso   1.000  O
  P1       1.0000 0.73250  0.74320  0.24890  Biso   1.000  P
  P2       1.0000 0.26750  0.25680  0.75110  Biso   1.000  P
  W1       1.0000 0.83737  0.96245  0.28714  Biso   1.000  W
  W2       1.0000 0.16263  0.03755  0.71286  Biso   1.000  W
  W3       1.0000 0.02706  0.78522  0.28437  Biso   1.000  W
  W4       1.0000 0.97294  0.21478  0.71563  Biso   1.000  W
  W5       1.0000 0.84831  0.82072  0.41398  Biso   1.000  W
  W6       1.0000 0.15169  0.17928  0.58602  Biso   1.000  W
  W7       1.0000 0.73475  0.60303  0.37743  Biso   1.000  W
  W8       1.0000 0.26525  0.39697  0.62257  Biso   1.000  W
  W9       1.0000 0.92200  0.56435  0.25298  Biso   1.000  W
  W10      1.0000 0.07800  0.43565  0.74702  Biso   1.000  W
  W11      1.0000 0.91493  0.69957  0.12245  Biso   1.000  W
  W12      1.0000 0.08507  0.30043  0.87755  Biso   1.000  W
  W13      1.0000 0.73412  0.88386  0.12088  Biso   1.000  W
  W14      1.0000 0.26588  0.11614  0.87912  Biso   1.000  W
  W15      1.0000 0.54671  0.92246  0.24404  Biso   1.000  W
  W16      1.0000 0.45329  0.07754  0.75596  Biso   1.000  W
  W17      1.0000 0.55429  0.78633  0.37618  Biso   1.000  W
  W18      1.0000 0.44571  0.21367  0.62382  Biso   1.000  W
  W19      1.0000 0.44238  0.70157  0.21324  Biso   1.000  W
  W20      1.0000 0.55762  0.29843  0.78676  Biso   1.000  W
  W21      1.0000 0.62078  0.66579  0.08368  Biso   1.000  W
  W22      1.0000 0.37922  0.33421  0.91632  Biso   1.000  W
  W23      1.0000 0.63132  0.52391  0.21051  Biso   1.000  W
  W24      1.0000 0.36868  0.47609  0.78949  Biso   1.000  W
  O61      1.0000 0.95200  0.78800  0.36170  Biso   1.000  O
  O62      1.0000 0.04800  0.21200  0.63830  Biso   1.000  O
  O63      1.0000 0.81800  0.92000  0.36240  Biso   1.000  O
  O64      1.0000 0.18200  0.08000  0.63760  Biso   1.000  O
  O65      1.0000 0.82300  0.93200  0.19720  Biso   1.000  O
  O66      1.0000 0.17700  0.06800  0.80280  Biso   1.000  O
  O67      1.0000 0.60800  0.90200  0.17540  Biso   1.000  O
  O68      1.0000 0.39200  0.09800  0.82460  Biso   1.000  O
  O69      1.0000 0.68700  0.96100  0.29130  Biso   1.000  O
  O70      1.0000 0.31300  0.03900  0.70870  Biso   1.000  O
  O71      1.0000 0.47600  0.68400  0.10880  Biso   1.000  O
  O72      1.0000 0.52400  0.31600  0.89120  Biso   1.000  O
  O73      1.0000 0.79100  0.48700  0.21780  Biso   1.000  O
  O74      1.0000 0.20900  0.51300  0.78220  Biso   1.000  O
  O75      1.0000 0.65900  0.51500  0.31290  Biso   1.000  O
  O76      1.0000 0.34100  0.48500  0.68710  Biso   1.000  O
  O77      1.0000 0.48000  0.58000  0.20770  Biso   1.000  O
  O78      1.0000 0.52000  0.42000  0.79230  Biso   1.000  O
  O79      1.0000 0.87600  0.54900  0.34210  Biso   1.000  O
  O80      1.0000 0.12400  0.45100  0.65790  Biso   1.000  O
  O81      1.0000 0.61800  0.76930  0.26940  Biso   1.000  O
  O82      1.0000 0.38200  0.23070  0.73060  Biso   1.000  O
  O83      1.0000 0.84900  0.71260  0.23140  Biso   1.000  O
  O84      1.0000 0.15100  0.28740  0.76860  Biso   1.000  O
  O85      1.0000 0.36200  0.28600  0.44690  Biso   1.000  O
  O86      1.0000 0.63800  0.71400  0.55310  Biso   1.000  O
  O87      1.0000 0.53100  0.39200  0.48570  Biso   1.000  O
  O88      1.0000 0.46900  0.60800  0.51430  Biso   1.000  O
  O89      1.0000 0.04600  0.16800  0.03270  Biso   1.000  O
  O90      1.0000 0.95400  0.83200  0.96730  Biso   1.000  O
  H97      1.0000 0.95600  0.35270  0.55210  Biso   1.000  H
  H98      1.0000 0.04400  0.64730  0.44790  Biso   1.000  H
  H99      1.0000 0.85260  0.28660  0.53240  Biso   1.000  H
  H100     1.0000 0.14740  0.71340  0.46760  Biso   1.000  H
  C65      1.0000 0.79900  0.42100  0.55800  Biso   1.000  C
  C66      1.0000 0.20100  0.57900  0.44200  Biso   1.000  C
  H101     1.0000 0.83800  0.47780  0.56570  Biso   1.000  H
  H102     1.0000 0.16200  0.52220  0.43430  Biso   1.000  H
  H103     1.0000 0.73520  0.42590  0.52550  Biso   1.000  H
  H104     1.0000 0.26480  0.57410  0.47450  Biso   1.000  H
  C67      1.0000 0.76000  0.39900  0.62100  Biso   1.000  C
  C68      1.0000 0.24000  0.60100  0.37900  Biso   1.000  C
  H105     1.0000 0.82100  0.38370  0.65240  Biso   1.000  H
  H106     1.0000 0.17900  0.61630  0.34760  Biso   1.000  H
  H107     1.0000 0.70420  0.35180  0.61380  Biso   1.000  H
  H108     1.0000 0.29580  0.64820  0.38620  Biso   1.000  H
  C69      1.0000 0.54700  0.10400  0.00100  Biso   1.000  C
  C70      1.0000 0.45300  0.89600  0.99900  Biso   1.000  C
  H109     1.0000 0.56740  0.04410  0.00890  Biso   1.000  H
  H110     1.0000 0.43260  0.95590  0.99110  Biso   1.000  H
  H111     1.0000 0.48020  0.10070  0.97000  Biso   1.000  H
  H112     1.0000 0.51980  0.89930  0.03000  Biso   1.000  H
  H113     1.0000 0.67930  0.18160  0.01300  Biso   1.000  H
  H114     1.0000 0.32070  0.81840  0.98700  Biso   1.000  H
  H115     1.0000 0.60270  0.18990  0.94750  Biso   1.000  H
  H116     1.0000 0.39730  0.81010  0.05250  Biso   1.000  H
  C71      1.0000 0.17100  0.55000  0.05100  Biso   1.000  C
  C72      1.0000 0.82900  0.45000  0.94900  Biso   1.000  C
  H117     1.0000 0.09240  0.53360  0.04370  Biso   1.000  H
  H118     1.0000 0.90760  0.46640  0.95630  Biso   1.000  H
  H119     1.0000 0.17750  0.60630  0.07840  Biso   1.000  H
  H120     1.0000 0.82250  0.39370  0.92160  Biso   1.000  H
  H121     1.0000 0.16800  0.51430  0.96210  Biso   1.000  H
  H122     1.0000 0.83200  0.48570  0.03790  Biso   1.000  H
  H123     1.0000 0.28310  0.54710  0.99750  Biso   1.000  H
  H124     1.0000 0.71690  0.45290  0.00250  Biso   1.000  H
  O91      1.0000 0.00400  0.80300  0.38100  Biso   1.000  O
  O92      1.0000 0.99600  0.19700  0.61900  Biso   1.000  O
  O93      1.0000 0.86900  0.93800  0.38420  Biso   1.000  O
  O94      1.0000 0.13100  0.06200  0.61580  Biso   1.000  O
  O95      1.0000 0.81600  0.97400  0.18570  Biso   1.000  O
  O96      1.0000 0.18400  0.02600  0.81430  Biso   1.000  O
  O97      1.0000 0.60400  0.94300  0.15000  Biso   1.000  O
  O98      1.0000 0.39600  0.05700  0.85000  Biso   1.000  O
  O99      1.0000 0.67300  0.00400  0.27580  Biso   1.000  O
  O100     1.0000 0.32700  0.99600  0.72420  Biso   1.000  O
  O101     1.0000 0.51100  0.70000  0.14290  Biso   1.000  O
  O102     1.0000 0.48900  0.30000  0.85710  Biso   1.000  O
  O103     1.0000 0.77500  0.53100  0.20720  Biso   1.000  O
  O104     1.0000 0.22500  0.46900  0.79280  Biso   1.000  O
  O105     1.0000 0.64100  0.55900  0.29580  Biso   1.000  O
  O106     1.0000 0.35900  0.44100  0.70420  Biso   1.000  O
  O107     1.0000 0.52300  0.59400  0.23910  Biso   1.000  O
  O108     1.0000 0.47700  0.40600  0.76090  Biso   1.000  O
  O109     1.0000 0.84000  0.59000  0.33490  Biso   1.000  O
  O110     1.0000 0.16000  0.41000  0.66510  Biso   1.000  O
  O111     1.0000 0.74500  0.74540  0.17780  Biso   1.000  O
  O112     1.0000 0.25500  0.25460  0.82220  Biso   1.000  O
  O113     1.0000 0.71700  0.74420  0.31680  Biso   1.000  O
  O114     1.0000 0.28300  0.25580  0.68320  Biso   1.000  O
