data_image0
_cell_length_a       10.9271
_cell_length_b       12.4545
_cell_length_c       14.9789
_cell_angle_alpha    91.061
_cell_angle_beta     104.154
_cell_angle_gamma    94.432

_symmetry_space_group_name_H-M    "P 1"
_symmetry_int_tables_number       1

loop_
  _symmetry_equiv_pos_as_xyz
  'x, y, z'

loop_
  _atom_site_label
  _atom_site_occupancy
  _atom_site_fract_x
  _atom_site_fract_y
  _atom_site_fract_z
  _atom_site_thermal_displace_type
  _atom_site_B_iso_or_equiv
  _atom_site_type_symbol
  Cu1      1.0000 0.50000  0.00000  0.00000  Biso   1.000  Cu
  Cu2      1.0000 0.86214  0.82587  0.53932  Biso   1.000  Cu
  Cu3      1.0000 0.13786  0.17413  0.46068  Biso   1.000  Cu
  O1       1.0000 0.56610  0.23430  0.73138  Biso   1.000  O
  O2       1.0000 0.43390  0.76570  0.26862  Biso   1.000  O
  O3       1.0000 0.75490  0.70630  0.36230  Biso   1.000  O
  O4       1.0000 0.24510  0.29370  0.63770  Biso   1.000  O
  O5       1.0000 0.73400  0.98170  0.96440  Biso   1.000  O
  O6       1.0000 0.26600  0.01830  0.03560  Biso   1.000  O
  H1       1.0000 0.77000  0.92620  0.98530  Biso   1.000  H
  H2       1.0000 0.23000  0.07380  0.01470  Biso   1.000  H
  H3       1.0000 0.73660  0.02630  0.00860  Biso   1.000  H
  H4       1.0000 0.26340  0.97370  0.99140  Biso   1.000  H
  O7       1.0000 0.92680  0.43089  0.65976  Biso   1.000  O
  O8       1.0000 0.07320  0.56911  0.34024  Biso   1.000  O
  O9       1.0000 0.70140  0.21508  0.56705  Biso   1.000  O
  O10      1.0000 0.29860  0.78492  0.43295  Biso   1.000  O
  O11      1.0000 0.80510  0.43030  0.84413  Biso   1.000  O
  O12      1.0000 0.19490  0.56970  0.15587  Biso   1.000  O
  O13      1.0000 0.55950  0.07910  0.11810  Biso   1.000  O
  O14      1.0000 0.44050  0.92090  0.88190  Biso   1.000  O
  O15      1.0000 0.75620  0.12220  0.10710  Biso   1.000  O
  O16      1.0000 0.24380  0.87780  0.89290  Biso   1.000  O
  O17      1.0000 0.90350  0.83928  0.41901  Biso   1.000  O
  O18      1.0000 0.09650  0.16072  0.58099  Biso   1.000  O
  O19      1.0000 0.82790  0.82140  0.66319  Biso   1.000  O
  O20      1.0000 0.17210  0.17860  0.33681  Biso   1.000  O
  O21      1.0000 0.64250  0.72520  0.61710  Biso   1.000  O
  O22      1.0000 0.35750  0.27480  0.38290  Biso   1.000  O
  O23      1.0000 0.03610  0.94322  0.60396  Biso   1.000  O
  O24      1.0000 0.96390  0.05678  0.39604  Biso   1.000  O
  H5       1.0000 0.03060  0.00660  0.58410  Biso   1.000  H
  H6       1.0000 0.96940  0.99340  0.41590  Biso   1.000  H
  H7       1.0000 0.04270  0.93960  0.66150  Biso   1.000  H
  H8       1.0000 0.95730  0.06040  0.33850  Biso   1.000  H
  N1       1.0000 0.49070  0.13940  0.93660  Biso   1.000  N
  N2       1.0000 0.50930  0.86060  0.06340  Biso   1.000  N
  N3       1.0000 0.96240  0.69800  0.56820  Biso   1.000  N
  N4       1.0000 0.03760  0.30200  0.43180  Biso   1.000  N
  N5       1.0000 0.73680  0.93750  0.50220  Biso   1.000  N
  N6       1.0000 0.26320  0.06250  0.49780  Biso   1.000  N
  N7       1.0000 0.84240  0.57910  0.05610  Biso   1.000  N
  N8       1.0000 0.15760  0.42090  0.94390  Biso   1.000  N
  C1       1.0000 0.53100  0.14750  0.85930  Biso   1.000  C
  C2       1.0000 0.46900  0.85250  0.14070  Biso   1.000  C
  H9       1.0000 0.56220  0.08780  0.83710  Biso   1.000  H
  H10      1.0000 0.43780  0.91220  0.16290  Biso   1.000  H
  C3       1.0000 0.52780  0.24240  0.81080  Biso   1.000  C
  C4       1.0000 0.47220  0.75760  0.18920  Biso   1.000  C
  C5       1.0000 0.48570  0.33170  0.84470  Biso   1.000  C
  C6       1.0000 0.51430  0.66830  0.15530  Biso   1.000  C
  H11      1.0000 0.48310  0.39600  0.81390  Biso   1.000  H
  H12      1.0000 0.51690  0.60400  0.18610  Biso   1.000  H
  C7       1.0000 0.44700  0.32380  0.92600  Biso   1.000  C
  C8       1.0000 0.55300  0.67620  0.07400  Biso   1.000  C
  H13      1.0000 0.41690  0.38290  0.95020  Biso   1.000  H
  H14      1.0000 0.58310  0.61710  0.04980  Biso   1.000  H
  C9       1.0000 0.45340  0.22710  0.97140  Biso   1.000  C
  C10      1.0000 0.54660  0.77290  0.02860  Biso   1.000  C
  H15      1.0000 0.43100  0.22340  0.02740  Biso   1.000  H
  H16      1.0000 0.56900  0.77660  0.97260  Biso   1.000  H
  C11      1.0000 0.61320  0.32970  0.69380  Biso   1.000  C
  C12      1.0000 0.38680  0.67030  0.30620  Biso   1.000  C
  H17      1.0000 0.59690  0.39310  0.72620  Biso   1.000  H
  H18      1.0000 0.40310  0.60690  0.27380  Biso   1.000  H
  H19      1.0000 0.57000  0.33300  0.62930  Biso   1.000  H
  H20      1.0000 0.43000  0.66700  0.37070  Biso   1.000  H
  C13      1.0000 0.91090  0.61020  0.60110  Biso   1.000  C
  C14      1.0000 0.08910  0.38980  0.39890  Biso   1.000  C
  H21      1.0000 0.82780  0.60940  0.60640  Biso   1.000  H
  H22      1.0000 0.17220  0.39060  0.39360  Biso   1.000  H
  C15      1.0000 0.97800  0.52110  0.62740  Biso   1.000  C
  C16      1.0000 0.02200  0.47890  0.37260  Biso   1.000  C
  C17      1.0000 0.09990  0.52270  0.61930  Biso   1.000  C
  C18      1.0000 0.90010  0.47730  0.38070  Biso   1.000  C
  H23      1.0000 0.14690  0.46400  0.63670  Biso   1.000  H
  H24      1.0000 0.85310  0.53600  0.36330  Biso   1.000  H
  C19      1.0000 0.15250  0.61200  0.58530  Biso   1.000  C
  C20      1.0000 0.84750  0.38800  0.41470  Biso   1.000  C
  H25      1.0000 0.23520  0.61400  0.57910  Biso   1.000  H
  H26      1.0000 0.76480  0.38600  0.42090  Biso   1.000  H
  C21      1.0000 0.08240  0.69770  0.56060  Biso   1.000  C
  C22      1.0000 0.91760  0.30230  0.43940  Biso   1.000  C
  H27      1.0000 0.11890  0.75780  0.53780  Biso   1.000  H
  H28      1.0000 0.88110  0.24220  0.46220  Biso   1.000  H
  C23      1.0000 0.79360  0.42840  0.65670  Biso   1.000  C
  C24      1.0000 0.20640  0.57160  0.34330  Biso   1.000  C
  H29      1.0000 0.74430  0.42700  0.59330  Biso   1.000  H
  H30      1.0000 0.25570  0.57300  0.40670  Biso   1.000  H
  H31      1.0000 0.77660  0.49230  0.68820  Biso   1.000  H
  H32      1.0000 0.22340  0.50770  0.31180  Biso   1.000  H
  C25      1.0000 0.75770  0.03210  0.55020  Biso   1.000  C
  C26      1.0000 0.24230  0.96790  0.44980  Biso   1.000  C
  H33      1.0000 0.82290  0.04070  0.60360  Biso   1.000  H
  H34      1.0000 0.17710  0.95930  0.39640  Biso   1.000  H
  C27      1.0000 0.68430  0.11730  0.52210  Biso   1.000  C
  C28      1.0000 0.31570  0.88270  0.47790  Biso   1.000  C
  C29      1.0000 0.58650  0.10440  0.44240  Biso   1.000  C
  C30      1.0000 0.41350  0.89560  0.55760  Biso   1.000  C
  H35      1.0000 0.53710  0.16070  0.42170  Biso   1.000  H
  H36      1.0000 0.46290  0.83930  0.57830  Biso   1.000  H
  C31      1.0000 0.56430  0.00560  0.39460  Biso   1.000  C
  C32      1.0000 0.43570  0.99440  0.60540  Biso   1.000  C
  H37      1.0000 0.49880  0.99400  0.34160  Biso   1.000  H
  H38      1.0000 0.50120  0.00600  0.65840  Biso   1.000  H
  C33      1.0000 0.64200  0.92430  0.42730  Biso   1.000  C
  C34      1.0000 0.35800  0.07570  0.57270  Biso   1.000  C
  H39      1.0000 0.62670  0.85790  0.39540  Biso   1.000  H
  H40      1.0000 0.37330  0.14210  0.60460  Biso   1.000  H
  C35      1.0000 0.78340  0.22470  0.65810  Biso   1.000  C
  C36      1.0000 0.21660  0.77530  0.34190  Biso   1.000  C
  H41      1.0000 0.87130  0.22820  0.65510  Biso   1.000  H
  H42      1.0000 0.12870  0.77180  0.34490  Biso   1.000  H
  H43      1.0000 0.76700  0.16290  0.69310  Biso   1.000  H
  H44      1.0000 0.23300  0.83710  0.30690  Biso   1.000  H
  C37      1.0000 0.82410  0.54850  0.96830  Biso   1.000  C
  C38      1.0000 0.17590  0.45150  0.03170  Biso   1.000  C
  H45      1.0000 0.80680  0.60070  0.92440  Biso   1.000  H
  H46      1.0000 0.19320  0.39930  0.07560  Biso   1.000  H
  C39      1.0000 0.82920  0.44420  0.93810  Biso   1.000  C
  C40      1.0000 0.17080  0.55580  0.06190  Biso   1.000  C
  C41      1.0000 0.85140  0.36540  0.00070  Biso   1.000  C
  C42      1.0000 0.14860  0.63460  0.99930  Biso   1.000  C
  H47      1.0000 0.85330  0.29390  0.98250  Biso   1.000  H
  H48      1.0000 0.14670  0.70610  0.01750  Biso   1.000  H
  C43      1.0000 0.87110  0.39700  0.09300  Biso   1.000  C
  C44      1.0000 0.12890  0.60300  0.90700  Biso   1.000  C
  H49      1.0000 0.88900  0.34640  0.13830  Biso   1.000  H
  H50      1.0000 0.11100  0.65360  0.86170  Biso   1.000  H
  C45      1.0000 0.86390  0.50270  0.11740  Biso   1.000  C
  C46      1.0000 0.13610  0.49730  0.88260  Biso   1.000  C
  H51      1.0000 0.87460  0.52170  0.17940  Biso   1.000  H
  H52      1.0000 0.12540  0.47830  0.82060  Biso   1.000  H
  C47      1.0000 0.82530  0.32960  0.80510  Biso   1.000  C
  C48      1.0000 0.17470  0.67040  0.19490  Biso   1.000  C
  H53      1.0000 0.79170  0.27020  0.83540  Biso   1.000  H
  H54      1.0000 0.20830  0.72980  0.16460  Biso   1.000  H
  H55      1.0000 0.91510  0.32350  0.81210  Biso   1.000  H
  H56      1.0000 0.08490  0.67650  0.18790  Biso   1.000  H
  C49      1.0000 0.75680  0.32770  0.70380  Biso   1.000  C
  C50      1.0000 0.24320  0.67230  0.29620  Biso   1.000  C
  C51      1.0000 0.69350  0.19260  0.23520  Biso   1.000  C
  C52      1.0000 0.30650  0.80740  0.76480  Biso   1.000  C
  H57      1.0000 0.76740  0.24170  0.24090  Biso   1.000  H
  H58      1.0000 0.23260  0.75830  0.75910  Biso   1.000  H
  H59      1.0000 0.70660  0.14600  0.28640  Biso   1.000  H
  H60      1.0000 0.29340  0.85400  0.71360  Biso   1.000  H
  H61      1.0000 0.62170  0.23260  0.23480  Biso   1.000  H
  H62      1.0000 0.37830  0.76740  0.76520  Biso   1.000  H
  C53      1.0000 0.66960  0.12620  0.14680  Biso   1.000  C
  C54      1.0000 0.33040  0.87380  0.85320  Biso   1.000  C
  C55      1.0000 0.85190  0.79920  0.25740  Biso   1.000  C
  C56      1.0000 0.14810  0.20080  0.74260  Biso   1.000  C
  H63      1.0000 0.81670  0.73770  0.21720  Biso   1.000  H
  H64      1.0000 0.18330  0.26230  0.78280  Biso   1.000  H
  H65      1.0000 0.94050  0.81190  0.26000  Biso   1.000  H
  H66      1.0000 0.05950  0.18810  0.74000  Biso   1.000  H
  H67      1.0000 0.80930  0.86130  0.23430  Biso   1.000  H
  H68      1.0000 0.19070  0.13870  0.76570  Biso   1.000  H
  C57      1.0000 0.83500  0.77820  0.35290  Biso   1.000  C
  C58      1.0000 0.16500  0.22180  0.64710  Biso   1.000  C
  C59      1.0000 0.70500  0.79590  0.77220  Biso   1.000  C
  C60      1.0000 0.29500  0.20410  0.22780  Biso   1.000  C
  H69      1.0000 0.65880  0.73340  0.78810  Biso   1.000  H
  H70      1.0000 0.34120  0.26660  0.21190  Biso   1.000  H
  H71      1.0000 0.65820  0.85770  0.77360  Biso   1.000  H
  H72      1.0000 0.34180  0.14230  0.22640  Biso   1.000  H
  H73      1.0000 0.78590  0.80740  0.81570  Biso   1.000  H
  H74      1.0000 0.21410  0.19260  0.18430  Biso   1.000  H
  C61      1.0000 0.72420  0.77860  0.67680  Biso   1.000  C
  C62      1.0000 0.27580  0.22140  0.32320  Biso   1.000  C
  O25      1.0000 0.02210  0.93360  0.78730  Biso   1.000  O
  O26      1.0000 0.97790  0.06640  0.21270  Biso   1.000  O
  H75      1.0000 0.97020  0.87950  0.76600  Biso   1.000  H
  H76      1.0000 0.02980  0.12050  0.23400  Biso   1.000  H
  H77      1.0000 0.08880  0.91230  0.82210  Biso   1.000  H
  H78      1.0000 0.91120  0.08770  0.17790  Biso   1.000  H
  O27      1.0000 0.89430  0.08630  0.86470  Biso   1.000  O
  O28      1.0000 0.10570  0.91370  0.13530  Biso   1.000  O
  H79      1.0000 0.82760  0.05470  0.87500  Biso   1.000  H
  H80      1.0000 0.17240  0.94530  0.12500  Biso   1.000  H
  H81      1.0000 0.93630  0.04020  0.84550  Biso   1.000  H
  H82      1.0000 0.06370  0.95980  0.15450  Biso   1.000  H
  O29      1.0000 0.62960  0.57970  0.46330  Biso   1.000  O
  O30      1.0000 0.37040  0.42030  0.53670  Biso   1.000  O
  H83      1.0000 0.62910  0.61010  0.51450  Biso   1.000  H
  H84      1.0000 0.37090  0.38990  0.48550  Biso   1.000  H
  H85      1.0000 0.68350  0.61410  0.43990  Biso   1.000  H
  H86      1.0000 0.31650  0.38590  0.56010  Biso   1.000  H
  O31      1.0000 0.12050  0.19080  0.97600  Biso   1.000  O
  O32      1.0000 0.87950  0.80920  0.02400  Biso   1.000  O
  H87      1.0000 0.11610  0.19610  0.03180  Biso   1.000  H
  H88      1.0000 0.88390  0.80390  0.96820  Biso   1.000  H
  H89      1.0000 0.05040  0.16240  0.94300  Biso   1.000  H
  H90      1.0000 0.94960  0.83760  0.05700  Biso   1.000  H
  O33      1.0000 0.47810  0.57360  0.67870  Biso   1.000  O
  O34      1.0000 0.52190  0.42640  0.32130  Biso   1.000  O
  H91      1.0000 0.52620  0.62630  0.66830  Biso   1.000  H
  H92      1.0000 0.47380  0.37370  0.33170  Biso   1.000  H
  H93      1.0000 0.45810  0.53010  0.63210  Biso   1.000  H
  H94      1.0000 0.54190  0.46990  0.36790  Biso   1.000  H
