data_image0
_cell_length_a       9.522
_cell_length_b       10.509
_cell_length_c       13.222
_cell_angle_alpha    90
_cell_angle_beta     90
_cell_angle_gamma    90

_symmetry_space_group_name_H-M    "P 1"
_symmetry_int_tables_number       1

loop_
  _symmetry_equiv_pos_as_xyz
  'x, y, z'

loop_
  _atom_site_label
  _atom_site_occupancy
  _atom_site_fract_x
  _atom_site_fract_y
  _atom_site_fract_z
  _atom_site_thermal_displace_type
  _atom_site_B_iso_or_equiv
  _atom_site_type_symbol
  Cu1      1.0000 0.02430  0.25680  0.00730  Biso   1.000  Cu
  Cu2      1.0000 0.47570  0.74320  0.50730  Biso   1.000  Cu
  Cu3      1.0000 0.52430  0.24320  0.99270  Biso   1.000  Cu
  Cu4      1.0000 0.97570  0.75680  0.49270  Biso   1.000  Cu
  Cu5      1.0000 0.97570  0.74320  0.99270  Biso   1.000  Cu
  Cu6      1.0000 0.52430  0.25680  0.49270  Biso   1.000  Cu
  Cu7      1.0000 0.47570  0.75680  0.00730  Biso   1.000  Cu
  Cu8      1.0000 0.02430  0.24320  0.50730  Biso   1.000  Cu
  Cl1      1.0000 0.26320  0.25580  0.09570  Biso   1.000  Cl
  Cl2      1.0000 0.23680  0.74420  0.59570  Biso   1.000  Cl
  Cl3      1.0000 0.76320  0.24420  0.90430  Biso   1.000  Cl
  Cl4      1.0000 0.73680  0.75580  0.40430  Biso   1.000  Cl
  Cl5      1.0000 0.73680  0.74420  0.90430  Biso   1.000  Cl
  Cl6      1.0000 0.76320  0.25580  0.40430  Biso   1.000  Cl
  Cl7      1.0000 0.23680  0.75580  0.09570  Biso   1.000  Cl
  Cl8      1.0000 0.26320  0.24420  0.59570  Biso   1.000  Cl
  C1       1.0000 0.03870  0.50080  0.94740  Biso   1.000  C
  C2       1.0000 0.46130  0.49920  0.44740  Biso   1.000  C
  C3       1.0000 0.53870  0.99920  0.05260  Biso   1.000  C
  C4       1.0000 0.96130  0.00080  0.55260  Biso   1.000  C
  C5       1.0000 0.96130  0.49920  0.05260  Biso   1.000  C
  C6       1.0000 0.53870  0.50080  0.55260  Biso   1.000  C
  C7       1.0000 0.46130  0.00080  0.94740  Biso   1.000  C
  C8       1.0000 0.03870  0.99920  0.44740  Biso   1.000  C
  O1       1.0000 0.05480  0.60690  0.90670  Biso   1.000  O
  O2       1.0000 0.44520  0.39310  0.40670  Biso   1.000  O
  O3       1.0000 0.55480  0.89310  0.09330  Biso   1.000  O
  O4       1.0000 0.94520  0.10690  0.59330  Biso   1.000  O
  O5       1.0000 0.94520  0.39310  0.09330  Biso   1.000  O
  O6       1.0000 0.55480  0.60690  0.59330  Biso   1.000  O
  O7       1.0000 0.44520  0.10690  0.90670  Biso   1.000  O
  O8       1.0000 0.05480  0.89310  0.40670  Biso   1.000  O
  O9       1.0000 0.92440  0.60470  0.08660  Biso   1.000  O
  O10      1.0000 0.57560  0.39530  0.58660  Biso   1.000  O
  O11      1.0000 0.42440  0.89530  0.91340  Biso   1.000  O
  O12      1.0000 0.07560  0.10470  0.41340  Biso   1.000  O
  O13      1.0000 0.07560  0.39530  0.91340  Biso   1.000  O
  O14      1.0000 0.42440  0.60470  0.41340  Biso   1.000  O
  O15      1.0000 0.57560  0.10470  0.08660  Biso   1.000  O
  O16      1.0000 0.92440  0.89530  0.58660  Biso   1.000  O
  N1       1.0000 0.04630  0.88740  0.90530  Biso   1.000  N
  N2       1.0000 0.45370  0.11260  0.40530  Biso   1.000  N
  N3       1.0000 0.54630  0.61260  0.09470  Biso   1.000  N
  N4       1.0000 0.95370  0.38740  0.59470  Biso   1.000  N
  N5       1.0000 0.95370  0.11260  0.09470  Biso   1.000  N
  N6       1.0000 0.54630  0.88740  0.59470  Biso   1.000  N
  N7       1.0000 0.45370  0.38740  0.90530  Biso   1.000  N
  N8       1.0000 0.04630  0.61260  0.40530  Biso   1.000  N
  C9       1.0000 0.03420  0.99970  0.94930  Biso   1.000  C
  C10      1.0000 0.46580  0.00030  0.44930  Biso   1.000  C
  C11      1.0000 0.53420  0.50030  0.05070  Biso   1.000  C
  C12      1.0000 0.96580  0.49970  0.55070  Biso   1.000  C
  C13      1.0000 0.96580  0.00030  0.05070  Biso   1.000  C
  C14      1.0000 0.53420  0.99970  0.55070  Biso   1.000  C
  C15      1.0000 0.46580  0.49970  0.94930  Biso   1.000  C
  C16      1.0000 0.03420  0.50030  0.44930  Biso   1.000  C
  N9       1.0000 0.92780  0.88850  0.08760  Biso   1.000  N
  N10      1.0000 0.57220  0.11150  0.58760  Biso   1.000  N
  N11      1.0000 0.42780  0.61150  0.91240  Biso   1.000  N
  N12      1.0000 0.07220  0.38850  0.41240  Biso   1.000  N
  N13      1.0000 0.07220  0.11150  0.91240  Biso   1.000  N
  N14      1.0000 0.42780  0.88850  0.41240  Biso   1.000  N
  N15      1.0000 0.57220  0.38850  0.08760  Biso   1.000  N
  N16      1.0000 0.92780  0.61150  0.58760  Biso   1.000  N
  C17      1.0000 0.86970  0.88950  0.17920  Biso   1.000  C
  C18      1.0000 0.63030  0.11050  0.67920  Biso   1.000  C
  C19      1.0000 0.36970  0.61050  0.82080  Biso   1.000  C
  C20      1.0000 0.13030  0.38950  0.32080  Biso   1.000  C
  C21      1.0000 0.13030  0.11050  0.82080  Biso   1.000  C
  C22      1.0000 0.36970  0.88950  0.32080  Biso   1.000  C
  C23      1.0000 0.63030  0.38950  0.17920  Biso   1.000  C
  C24      1.0000 0.86970  0.61050  0.67920  Biso   1.000  C
  C25      1.0000 0.84980  0.00180  0.23200  Biso   1.000  C
  C26      1.0000 0.65020  0.99820  0.73200  Biso   1.000  C
  C27      1.0000 0.34980  0.49820  0.76800  Biso   1.000  C
  C28      1.0000 0.15020  0.50180  0.26800  Biso   1.000  C
  C29      1.0000 0.15020  0.99820  0.76800  Biso   1.000  C
  C30      1.0000 0.34980  0.00180  0.26800  Biso   1.000  C
  C31      1.0000 0.65020  0.50180  0.23200  Biso   1.000  C
  C32      1.0000 0.84980  0.49820  0.73200  Biso   1.000  C
  C33      1.0000 0.89560  0.11340  0.18700  Biso   1.000  C
  C34      1.0000 0.60440  0.88660  0.68700  Biso   1.000  C
  C35      1.0000 0.39560  0.38660  0.81300  Biso   1.000  C
  C36      1.0000 0.10440  0.61340  0.31300  Biso   1.000  C
  C37      1.0000 0.10440  0.88660  0.81300  Biso   1.000  C
  C38      1.0000 0.39560  0.11340  0.31300  Biso   1.000  C
  C39      1.0000 0.60440  0.61340  0.18700  Biso   1.000  C
  C40      1.0000 0.89560  0.38660  0.68700  Biso   1.000  C
  H1       1.0000 0.83800  0.81300  0.20900  Biso   1.000  H
  H2       1.0000 0.66200  0.18700  0.70900  Biso   1.000  H
  H3       1.0000 0.33800  0.68700  0.79100  Biso   1.000  H
  H4       1.0000 0.16200  0.31300  0.29100  Biso   1.000  H
  H5       1.0000 0.16200  0.18700  0.79100  Biso   1.000  H
  H6       1.0000 0.33800  0.81300  0.29100  Biso   1.000  H
  H7       1.0000 0.66200  0.31300  0.20900  Biso   1.000  H
  H8       1.0000 0.83800  0.68700  0.70900  Biso   1.000  H
  H9       1.0000 0.80000  0.00300  0.29200  Biso   1.000  H
  H10      1.0000 0.70000  0.99700  0.79200  Biso   1.000  H
  H11      1.0000 0.30000  0.49700  0.70800  Biso   1.000  H
  H12      1.0000 0.20000  0.50300  0.20800  Biso   1.000  H
  H13      1.0000 0.20000  0.99700  0.70800  Biso   1.000  H
  H14      1.0000 0.30000  0.00300  0.20800  Biso   1.000  H
  H15      1.0000 0.70000  0.50300  0.29200  Biso   1.000  H
  H16      1.0000 0.80000  0.49700  0.79200  Biso   1.000  H
  H17      1.0000 0.88300  0.18900  0.21900  Biso   1.000  H
  H18      1.0000 0.61700  0.81100  0.71900  Biso   1.000  H
  H19      1.0000 0.38300  0.31100  0.78100  Biso   1.000  H
  H20      1.0000 0.11700  0.68900  0.28100  Biso   1.000  H
  H21      1.0000 0.11700  0.81100  0.78100  Biso   1.000  H
  H22      1.0000 0.38300  0.18900  0.28100  Biso   1.000  H
  H23      1.0000 0.61700  0.68900  0.21900  Biso   1.000  H
  H24      1.0000 0.88300  0.31100  0.71900  Biso   1.000  H
