data_image0
_cell_length_a       11.5933
_cell_length_b       15.1165
_cell_length_c       15.1878
_cell_angle_alpha    84.212
_cell_angle_beta     74.454
_cell_angle_gamma    86.757

_symmetry_space_group_name_H-M    "P 1"
_symmetry_int_tables_number       1

loop_
  _symmetry_equiv_pos_as_xyz
  'x, y, z'

loop_
  _atom_site_label
  _atom_site_occupancy
  _atom_site_fract_x
  _atom_site_fract_y
  _atom_site_fract_z
  _atom_site_thermal_displace_type
  _atom_site_B_iso_or_equiv
  _atom_site_type_symbol
  Cu1      1.0000 0.09061  0.12289  0.51399  Biso   1.000  Cu
  Cu2      1.0000 0.90939  0.87711  0.48601  Biso   1.000  Cu
  Cu3      1.0000 0.67824  0.45356  0.90745  Biso   1.000  Cu
  Cu4      1.0000 0.32176  0.54644  0.09255  Biso   1.000  Cu
  O1       1.0000 0.72199  0.32768  0.92077  Biso   1.000  O
  O2       1.0000 0.27801  0.67232  0.07923  Biso   1.000  O
  O3       1.0000 0.09893  0.03433  0.61541  Biso   1.000  O
  O4       1.0000 0.90107  0.96567  0.38459  Biso   1.000  O
  O5       1.0000 0.67305  0.28339  0.50377  Biso   1.000  O
  O6       1.0000 0.32695  0.71661  0.49623  Biso   1.000  O
  O7       1.0000 0.10485  0.23588  0.43310  Biso   1.000  O
  O8       1.0000 0.89515  0.76412  0.56690  Biso   1.000  O
  O9       1.0000 0.67952  0.57903  0.86310  Biso   1.000  O
  O10      1.0000 0.32048  0.42097  0.13690  Biso   1.000  O
  O11      1.0000 0.91540  0.35192  0.85559  Biso   1.000  O
  O12      1.0000 0.08460  0.64808  0.14441  Biso   1.000  O
  N1       1.0000 0.91930  0.16089  0.57353  Biso   1.000  N
  N2       1.0000 0.08070  0.83911  0.42647  Biso   1.000  N
  O13      1.0000 0.14200  0.28271  0.55573  Biso   1.000  O
  O14      1.0000 0.85800  0.71729  0.44427  Biso   1.000  O
  O15      1.0000 0.55204  0.19729  0.37715  Biso   1.000  O
  O16      1.0000 0.44796  0.80271  0.62285  Biso   1.000  O
  O17      1.0000 0.48666  0.47416  0.38395  Biso   1.000  O
  O18      1.0000 0.51334  0.52584  0.61605  Biso   1.000  O
  O19      1.0000 0.76700  0.40871  0.23559  Biso   1.000  O
  O20      1.0000 0.23300  0.59129  0.76441  Biso   1.000  O
  N3       1.0000 0.26410  0.09093  0.45822  Biso   1.000  N
  N4       1.0000 0.73590  0.90907  0.54178  Biso   1.000  N
  N5       1.0000 0.76170  0.48250  0.00069  Biso   1.000  N
  N6       1.0000 0.23830  0.51750  0.99931  Biso   1.000  N
  O21      1.0000 0.96430  0.94324  0.59741  Biso   1.000  O
  O22      1.0000 0.03570  0.05676  0.40259  Biso   1.000  O
  O23      1.0000 0.49450  0.59512  0.95241  Biso   1.000  O
  O24      1.0000 0.50550  0.40488  0.04759  Biso   1.000  O
  C1       1.0000 0.29940  0.00761  0.43960  Biso   1.000  C
  C2       1.0000 0.70060  0.99239  0.56040  Biso   1.000  C
  H1       1.0000 0.24240  0.96390  0.45160  Biso   1.000  H
  H2       1.0000 0.75760  0.03610  0.54840  Biso   1.000  H
  N7       1.0000 0.42300  0.57248  0.17553  Biso   1.000  N
  N8       1.0000 0.57700  0.42752  0.82447  Biso   1.000  N
  C3       1.0000 0.79100  0.45369  0.14993  Biso   1.000  C
  C4       1.0000 0.20900  0.54631  0.85007  Biso   1.000  C
  C5       1.0000 0.42140  0.52050  0.25344  Biso   1.000  C
  C6       1.0000 0.57860  0.47950  0.74656  Biso   1.000  C
  H3       1.0000 0.36480  0.47660  0.27320  Biso   1.000  H
  H4       1.0000 0.63520  0.52340  0.72680  Biso   1.000  H
  C7       1.0000 0.58880  0.72374  0.86542  Biso   1.000  C
  C8       1.0000 0.41120  0.27626  0.13458  Biso   1.000  C
  C9       1.0000 0.62400  0.34350  0.36752  Biso   1.000  C
  C10      1.0000 0.37600  0.65650  0.63248  Biso   1.000  C
  C11      1.0000 0.83150  0.30209  0.89194  Biso   1.000  C
  C12      1.0000 0.16850  0.69791  0.10806  Biso   1.000  C
  C13      1.0000 0.86840  0.52225  0.13400  Biso   1.000  C
  C14      1.0000 0.13160  0.47775  0.86600  Biso   1.000  C
  H5       1.0000 0.90450  0.53560  0.17860  Biso   1.000  H
  H6       1.0000 0.09550  0.46440  0.82140  Biso   1.000  H
  C15      1.0000 0.06650  0.90023  0.71228  Biso   1.000  C
  C16      1.0000 0.93350  0.09977  0.28772  Biso   1.000  C
  C17      1.0000 0.12430  0.29757  0.47870  Biso   1.000  C
  C18      1.0000 0.87570  0.70243  0.52130  Biso   1.000  C
  C19      1.0000 0.12610  0.39117  0.43360  Biso   1.000  C
  C20      1.0000 0.87390  0.60883  0.56640  Biso   1.000  C
  C21      1.0000 0.85590  0.20575  0.51988  Biso   1.000  C
  C22      1.0000 0.14410  0.79425  0.48012  Biso   1.000  C
  H7       1.0000 0.89140  0.21620  0.45730  Biso   1.000  H
  H8       1.0000 0.10860  0.78380  0.54270  Biso   1.000  H
  C23      1.0000 0.85600  0.20327  0.90318  Biso   1.000  C
  C24      1.0000 0.14400  0.79673  0.09682  Biso   1.000  C
  C25      1.0000 0.83500  0.55087  0.98500  Biso   1.000  C
  C26      1.0000 0.16500  0.44913  0.01500  Biso   1.000  C
  H9       1.0000 0.84830  0.58560  0.92930  Biso   1.000  H
  H10      1.0000 0.15170  0.41440  0.07070  Biso   1.000  H
  C27      1.0000 0.86680  0.14659  0.66330  Biso   1.000  C
  C28      1.0000 0.13320  0.85341  0.33670  Biso   1.000  C
  H11      1.0000 0.91010  0.11620  0.70110  Biso   1.000  H
  H12      1.0000 0.08990  0.88380  0.29890  Biso   1.000  H
  C29      1.0000 0.72420  0.29907  0.40611  Biso   1.000  C
  C30      1.0000 0.27580  0.70093  0.59389  Biso   1.000  C
  H13      1.0000 0.75110  0.24340  0.37930  Biso   1.000  H
  H14      1.0000 0.24890  0.75660  0.62070  Biso   1.000  H
  H15      1.0000 0.79190  0.33770  0.39310  Biso   1.000  H
  H16      1.0000 0.20810  0.66230  0.60690  Biso   1.000  H
  C31      1.0000 0.58490  0.62555  0.89700  Biso   1.000  C
  C32      1.0000 0.41510  0.37445  0.10300  Biso   1.000  C
  C33      1.0000 0.59270  0.43490  0.40520  Biso   1.000  C
  C34      1.0000 0.40730  0.56510  0.59480  Biso   1.000  C
  H17      1.0000 0.58040  0.42830  0.47130  Biso   1.000  H
  H18      1.0000 0.41960  0.57170  0.52870  Biso   1.000  H
  H19      1.0000 0.65910  0.47400  0.37910  Biso   1.000  H
  H20      1.0000 0.34090  0.52600  0.62090  Biso   1.000  H
  C35      1.0000 0.00760  0.82160  0.73730  Biso   1.000  C
  C36      1.0000 0.99240  0.17840  0.26270  Biso   1.000  C
  H21      1.0000 0.95520  0.80640  0.70470  Biso   1.000  H
  H22      1.0000 0.04480  0.19360  0.29530  Biso   1.000  H
  C37      1.0000 0.09220  0.41048  0.35300  Biso   1.000  C
  C38      1.0000 0.90780  0.58952  0.64700  Biso   1.000  C
  H23      1.0000 0.06890  0.36490  0.32540  Biso   1.000  H
  H24      1.0000 0.93110  0.63510  0.67460  Biso   1.000  H
  C39      1.0000 0.68650  0.22168  0.64740  Biso   1.000  C
  C40      1.0000 0.31350  0.77832  0.35260  Biso   1.000  C
  H25      1.0000 0.60880  0.24250  0.67250  Biso   1.000  H
  H26      1.0000 0.39120  0.75750  0.32750  Biso   1.000  H
  C41      1.0000 0.58510  0.59648  0.27650  Biso   1.000  C
  C42      1.0000 0.41490  0.40352  0.72350  Biso   1.000  C
  H27      1.0000 0.63980  0.60460  0.30970  Biso   1.000  H
  H28      1.0000 0.36020  0.39540  0.69030  Biso   1.000  H
  C43      1.0000 0.74080  0.43356  0.08188  Biso   1.000  C
  C44      1.0000 0.25920  0.56644  0.91812  Biso   1.000  C
  H29      1.0000 0.69140  0.38510  0.09250  Biso   1.000  H
  H30      1.0000 0.30860  0.61490  0.90750  Biso   1.000  H
  C45      1.0000 0.34730  0.15311  0.43900  Biso   1.000  C
  C46      1.0000 0.65270  0.84689  0.56100  Biso   1.000  C
  H31      1.0000 0.32330  0.21110  0.45250  Biso   1.000  H
  H32      1.0000 0.67670  0.78890  0.54750  Biso   1.000  H
  C47      1.0000 0.74030  0.23647  0.55471  Biso   1.000  C
  C48      1.0000 0.25970  0.76353  0.44529  Biso   1.000  C
  C49      1.0000 0.12700  0.56450  0.35420  Biso   1.000  C
  C50      1.0000 0.87300  0.43550  0.64580  Biso   1.000  C
  H33      1.0000 0.12760  0.62280  0.32780  Biso   1.000  H
  H34      1.0000 0.87240  0.37720  0.67220  Biso   1.000  H
  C51      1.0000 0.16080  0.45960  0.47450  Biso   1.000  C
  C52      1.0000 0.83920  0.54040  0.52550  Biso   1.000  C
  H35      1.0000 0.18420  0.44760  0.52860  Biso   1.000  H
  H36      1.0000 0.81580  0.55240  0.47140  Biso   1.000  H
  C53      1.0000 0.02520  0.76430  0.81080  Biso   1.000  C
  C54      1.0000 0.97480  0.23570  0.18920  Biso   1.000  C
  H37      1.0000 0.98480  0.71120  0.82720  Biso   1.000  H
  H38      1.0000 0.01520  0.28880  0.17280  Biso   1.000  H
  C55      1.0000 0.09270  0.49730  0.31260  Biso   1.000  C
  C56      1.0000 0.90730  0.50270  0.68740  Biso   1.000  C
  H39      1.0000 0.07000  0.50990  0.25830  Biso   1.000  H
  H40      1.0000 0.93000  0.49010  0.74170  Biso   1.000  H
  C57      1.0000 0.59370  0.90550  0.81620  Biso   1.000  C
  C58      1.0000 0.40630  0.09450  0.18380  Biso   1.000  C
  H41      1.0000 0.59570  0.96660  0.80060  Biso   1.000  H
  H42      1.0000 0.40430  0.03340  0.19940  Biso   1.000  H
  C59      1.0000 0.14690  0.92090  0.75960  Biso   1.000  C
  C60      1.0000 0.85310  0.07910  0.24040  Biso   1.000  C
  H43      1.0000 0.18970  0.97290  0.74210  Biso   1.000  H
  H44      1.0000 0.81030  0.02710  0.25790  Biso   1.000  H
  C61      1.0000 0.16010  0.54570  0.43410  Biso   1.000  C
  C62      1.0000 0.83990  0.45430  0.56590  Biso   1.000  C
  H45      1.0000 0.18260  0.59170  0.46170  Biso   1.000  H
  H46      1.0000 0.81740  0.40830  0.53830  Biso   1.000  H
  C63      1.0000 0.51370  0.28693  0.39710  Biso   1.000  C
  C64      1.0000 0.48630  0.71307  0.60290  Biso   1.000  C
  H47      1.0000 0.47670  0.28900  0.46220  Biso   1.000  H
  H48      1.0000 0.52330  0.71100  0.53780  Biso   1.000  H
  H49      1.0000 0.45560  0.30890  0.36380  Biso   1.000  H
  H50      1.0000 0.54440  0.69110  0.63620  Biso   1.000  H
  C65      1.0000 0.50270  0.63680  0.14880  Biso   1.000  C
  C66      1.0000 0.49730  0.36320  0.85120  Biso   1.000  C
  H51      1.0000 0.50290  0.67400  0.09610  Biso   1.000  H
  H52      1.0000 0.49710  0.32600  0.90390  Biso   1.000  H
  C67      1.0000 0.75150  0.17510  0.70190  Biso   1.000  C
  C68      1.0000 0.24850  0.82490  0.29810  Biso   1.000  C
  H53      1.0000 0.71720  0.16300  0.76440  Biso   1.000  H
  H54      1.0000 0.28280  0.83700  0.23560  Biso   1.000  H
  C69      1.0000 0.50110  0.53052  0.30474  Biso   1.000  C
  C70      1.0000 0.49890  0.46948  0.69526  Biso   1.000  C
  C71      1.0000 0.58440  0.64970  0.19700  Biso   1.000  C
  C72      1.0000 0.41560  0.35030  0.80300  Biso   1.000  C
  H55      1.0000 0.63950  0.69450  0.17610  Biso   1.000  H
  H56      1.0000 0.36050  0.30550  0.82390  Biso   1.000  H
  C73      1.0000 0.49310  0.86870  0.87530  Biso   1.000  C
  C74      1.0000 0.50690  0.13130  0.12470  Biso   1.000  C
  H57      1.0000 0.42660  0.90490  0.89870  Biso   1.000  H
  H58      1.0000 0.57340  0.09510  0.10130  Biso   1.000  H
  C75      1.0000 0.76280  0.14460  0.92330  Biso   1.000  C
  C76      1.0000 0.23720  0.85540  0.07670  Biso   1.000  C
  H59      1.0000 0.68420  0.16640  0.93360  Biso   1.000  H
  H60      1.0000 0.31580  0.83360  0.06640  Biso   1.000  H
  C77      1.0000 0.66590  0.35268  0.26298  Biso   1.000  C
  C78      1.0000 0.33410  0.64732  0.73702  Biso   1.000  C
  H61      1.0000 0.68800  0.29460  0.24040  Biso   1.000  H
  H62      1.0000 0.31200  0.70540  0.75960  Biso   1.000  H
  H63      1.0000 0.60190  0.37850  0.23770  Biso   1.000  H
  H64      1.0000 0.39810  0.62150  0.76230  Biso   1.000  H
  C79      1.0000 0.69210  0.85180  0.77980  Biso   1.000  C
  C80      1.0000 0.30790  0.14820  0.22020  Biso   1.000  C
  H65      1.0000 0.76010  0.87650  0.73950  Biso   1.000  H
  H66      1.0000 0.23990  0.12350  0.26050  Biso   1.000  H
  C81      1.0000 0.89130  0.57110  0.04930  Biso   1.000  C
  C82      1.0000 0.10870  0.42890  0.95070  Biso   1.000  C
  H67      1.0000 0.94450  0.61740  0.03580  Biso   1.000  H
  H68      1.0000 0.05550  0.38260  0.96420  Biso   1.000  H
  C83      1.0000 0.48990  0.77800  0.90020  Biso   1.000  C
  C84      1.0000 0.51010  0.22200  0.09980  Biso   1.000  C
  H69      1.0000 0.42160  0.75340  0.94030  Biso   1.000  H
  H70      1.0000 0.57840  0.24660  0.05970  Biso   1.000  H
  C85      1.0000 0.10230  0.78670  0.85870  Biso   1.000  C
  C86      1.0000 0.89770  0.21330  0.14130  Biso   1.000  C
  H71      1.0000 0.11290  0.74930  0.90870  Biso   1.000  H
  H72      1.0000 0.88710  0.25070  0.09130  Biso   1.000  H
  C87      1.0000 0.68850  0.76070  0.80410  Biso   1.000  C
  C88      1.0000 0.31150  0.23930  0.19590  Biso   1.000  C
  H73      1.0000 0.75390  0.72430  0.77880  Biso   1.000  H
  H74      1.0000 0.24610  0.27570  0.22120  Biso   1.000  H
  C89      1.0000 0.46680  0.13488  0.40000  Biso   1.000  C
  C90      1.0000 0.53320  0.86512  0.60000  Biso   1.000  C
  C91      1.0000 0.97250  0.16920  0.89110  Biso   1.000  C
  C92      1.0000 0.02750  0.83080  0.10890  Biso   1.000  C
  H75      1.0000 0.03600  0.20770  0.87820  Biso   1.000  H
  H76      1.0000 0.96400  0.79230  0.12180  Biso   1.000  H
  C93      1.0000 0.16400  0.86380  0.83350  Biso   1.000  C
  C94      1.0000 0.83600  0.13620  0.16650  Biso   1.000  C
  H77      1.0000 0.21720  0.87820  0.86570  Biso   1.000  H
  H78      1.0000 0.78280  0.12180  0.13430  Biso   1.000  H
  C95      1.0000 0.78650  0.05290  0.92840  Biso   1.000  C
  C96      1.0000 0.21350  0.94710  0.07160  Biso   1.000  C
  H79      1.0000 0.72400  0.01380  0.94040  Biso   1.000  H
  H80      1.0000 0.27600  0.98620  0.05960  Biso   1.000  H
  C97      1.0000 0.90180  0.02070  0.91560  Biso   1.000  C
  C98      1.0000 0.09820  0.97930  0.08440  Biso   1.000  C
  H81      1.0000 0.91780  0.95960  0.91850  Biso   1.000  H
  H82      1.0000 0.08220  0.04040  0.08150  Biso   1.000  H
  C99      1.0000 0.99430  0.07870  0.89830  Biso   1.000  C
  C100     1.0000 0.00570  0.92130  0.10170  Biso   1.000  C
  H83      1.0000 0.07230  0.05650  0.89140  Biso   1.000  H
  H84      1.0000 0.92770  0.94350  0.10860  Biso   1.000  H
  C101     1.0000 0.41860  0.98480  0.40280  Biso   1.000  C
  C102     1.0000 0.58140  0.01520  0.59720  Biso   1.000  C
  H85      1.0000 0.44120  0.92600  0.39210  Biso   1.000  H
  H86      1.0000 0.55880  0.07400  0.60790  Biso   1.000  H
  C103     1.0000 0.50350  0.04830  0.38210  Biso   1.000  C
  C104     1.0000 0.49650  0.95170  0.61790  Biso   1.000  C
  H87      1.0000 0.58380  0.03370  0.35660  Biso   1.000  H
  H88      1.0000 0.41620  0.96630  0.64340  Biso   1.000  H
  C105     1.0000 0.04130  0.96280  0.63520  Biso   1.000  C
  C106     1.0000 0.95870  0.03720  0.36480  Biso   1.000  C
  O25      1.0000 0.86000  0.67488  0.27591  Biso   1.000  O
  O26      1.0000 0.14000  0.32512  0.72409  Biso   1.000  O
  H89      1.0000 0.93120  0.66980  0.24230  Biso   1.000  H
  H90      1.0000 0.06880  0.33020  0.75770  Biso   1.000  H
  H91      1.0000 0.86130  0.67920  0.33090  Biso   1.000  H
  H92      1.0000 0.13870  0.32080  0.66910  Biso   1.000  H
  O27      1.0000 0.56280  0.87750  0.19880  Biso   1.000  O
  O28      1.0000 0.43720  0.12250  0.80120  Biso   1.000  O
  H93      1.0000 0.55830  0.92460  0.22220  Biso   1.000  H
  H94      1.0000 0.44170  0.07540  0.77780  Biso   1.000  H
  C107     1.0000 0.62090  0.89070  0.10550  Biso   1.000  C
  C108     1.0000 0.37910  0.10930  0.89450  Biso   1.000  C
  H95      1.0000 0.56270  0.90530  0.07130  Biso   1.000  H
  H96      1.0000 0.43730  0.09470  0.92870  Biso   1.000  H
  H97      1.0000 0.66460  0.83720  0.08560  Biso   1.000  H
  H98      1.0000 0.33540  0.16280  0.91440  Biso   1.000  H
  H99      1.0000 0.67530  0.93850  0.09550  Biso   1.000  H
  H100     1.0000 0.32470  0.06150  0.90450  Biso   1.000  H
  O29      1.0000 0.26420  0.14760  0.69590  Biso   1.000  O
  O30      1.0000 0.73580  0.85240  0.30410  Biso   1.000  O
  H101     1.0000 0.26110  0.09570  0.71810  Biso   1.000  H
  H102     1.0000 0.73890  0.90430  0.28190  Biso   1.000  H
  C109     1.0000 0.27730  0.19700  0.75360  Biso   1.000  C
  C110     1.0000 0.72270  0.80300  0.24640  Biso   1.000  C
  H103     1.0000 0.35990  0.21210  0.74020  Biso   1.000  H
  H104     1.0000 0.64010  0.78790  0.25980  Biso   1.000  H
  H105     1.0000 0.25330  0.16640  0.81390  Biso   1.000  H
  H106     1.0000 0.74670  0.83360  0.18610  Biso   1.000  H
  H107     1.0000 0.22870  0.25030  0.75110  Biso   1.000  H
  H108     1.0000 0.77130  0.74970  0.24890  Biso   1.000  H
