data_image0
_cell_length_a       17.749
_cell_length_b       9.7363
_cell_length_c       18.1202
_cell_angle_alpha    90
_cell_angle_beta     115.009
_cell_angle_gamma    90

_symmetry_space_group_name_H-M    "P 1"
_symmetry_int_tables_number       1

loop_
  _symmetry_equiv_pos_as_xyz
  'x, y, z'

loop_
  _atom_site_label
  _atom_site_occupancy
  _atom_site_fract_x
  _atom_site_fract_y
  _atom_site_fract_z
  _atom_site_thermal_displace_type
  _atom_site_B_iso_or_equiv
  _atom_site_type_symbol
  C1       1.0000 0.01020  0.42070  0.52960  Biso   1.000  C
  C2       1.0000 0.01020  0.57930  0.02960  Biso   1.000  C
  C3       1.0000 0.51020  0.92070  0.52960  Biso   1.000  C
  C4       1.0000 0.51020  0.07930  0.02960  Biso   1.000  C
  C5       1.0000 0.82280  0.90710  0.33860  Biso   1.000  C
  C6       1.0000 0.82280  0.09290  0.83860  Biso   1.000  C
  C7       1.0000 0.32280  0.40710  0.33860  Biso   1.000  C
  C8       1.0000 0.32280  0.59290  0.83860  Biso   1.000  C
  H1       1.0000 0.81620  0.85470  0.29070  Biso   1.000  H
  H2       1.0000 0.81620  0.14530  0.79070  Biso   1.000  H
  H3       1.0000 0.31620  0.35470  0.29070  Biso   1.000  H
  H4       1.0000 0.31620  0.64530  0.79070  Biso   1.000  H
  H5       1.0000 0.78060  0.87630  0.35560  Biso   1.000  H
  H6       1.0000 0.78060  0.12370  0.85560  Biso   1.000  H
  H7       1.0000 0.28060  0.37630  0.35560  Biso   1.000  H
  H8       1.0000 0.28060  0.62370  0.85560  Biso   1.000  H
  C9       1.0000 0.74600  0.46490  0.24100  Biso   1.000  C
  C10      1.0000 0.74600  0.53510  0.74100  Biso   1.000  C
  C11      1.0000 0.24600  0.96490  0.24100  Biso   1.000  C
  C12      1.0000 0.24600  0.03510  0.74100  Biso   1.000  C
  C13      1.0000 0.82330  0.23030  0.52840  Biso   1.000  C
  C14      1.0000 0.82330  0.76970  0.02840  Biso   1.000  C
  C15      1.0000 0.32330  0.73030  0.52840  Biso   1.000  C
  C16      1.0000 0.32330  0.26970  0.02840  Biso   1.000  C
  C17      1.0000 0.68080  0.54150  0.25680  Biso   1.000  C
  C18      1.0000 0.68080  0.45850  0.75680  Biso   1.000  C
  C19      1.0000 0.18080  0.04150  0.25680  Biso   1.000  C
  C20      1.0000 0.18080  0.95850  0.75680  Biso   1.000  C
  C21      1.0000 0.82530  0.25860  0.25050  Biso   1.000  C
  C22      1.0000 0.82530  0.74140  0.75050  Biso   1.000  C
  C23      1.0000 0.32530  0.75860  0.25050  Biso   1.000  C
  C24      1.0000 0.32530  0.24140  0.75050  Biso   1.000  C
  C25      1.0000 0.87310  0.30800  0.50210  Biso   1.000  C
  C26      1.0000 0.87310  0.69200  0.00210  Biso   1.000  C
  C27      1.0000 0.37310  0.80800  0.50210  Biso   1.000  C
  C28      1.0000 0.37310  0.19200  0.00210  Biso   1.000  C
  H9       1.0000 0.85120  0.34300  0.44940  Biso   1.000  H
  H10      1.0000 0.85120  0.65700  0.94940  Biso   1.000  H
  H11      1.0000 0.35120  0.84300  0.44940  Biso   1.000  H
  H12      1.0000 0.35120  0.15700  0.94940  Biso   1.000  H
  C29      1.0000 0.73480  0.19940  0.47170  Biso   1.000  C
  C30      1.0000 0.73480  0.80060  0.97170  Biso   1.000  C
  C31      1.0000 0.23480  0.69940  0.47170  Biso   1.000  C
  C32      1.0000 0.23480  0.30060  0.97170  Biso   1.000  C
  C33      1.0000 0.90750  0.87780  0.40580  Biso   1.000  C
  C34      1.0000 0.90750  0.12220  0.90580  Biso   1.000  C
  C35      1.0000 0.40750  0.37780  0.40580  Biso   1.000  C
  C36      1.0000 0.40750  0.62220  0.90580  Biso   1.000  C
  C37      1.0000 0.95560  0.33340  0.55470  Biso   1.000  C
  C38      1.0000 0.95560  0.66660  0.05470  Biso   1.000  C
  C39      1.0000 0.45560  0.83340  0.55470  Biso   1.000  C
  C40      1.0000 0.45560  0.16660  0.05470  Biso   1.000  C
  C41      1.0000 0.60380  0.77780  0.40030  Biso   1.000  C
  C42      1.0000 0.60380  0.22220  0.90030  Biso   1.000  C
  C43      1.0000 0.10380  0.27780  0.40030  Biso   1.000  C
  C44      1.0000 0.10380  0.72220  0.90030  Biso   1.000  C
  H13      1.0000 0.55060  0.79640  0.36100  Biso   1.000  H
  H14      1.0000 0.55060  0.20360  0.86100  Biso   1.000  H
  H15      1.0000 0.05060  0.29640  0.36100  Biso   1.000  H
  H16      1.0000 0.05060  0.70360  0.86100  Biso   1.000  H
  C45      1.0000 0.63940  0.65380  0.39660  Biso   1.000  C
  C46      1.0000 0.63940  0.34620  0.89660  Biso   1.000  C
  C47      1.0000 0.13940  0.15380  0.39660  Biso   1.000  C
  C48      1.0000 0.13940  0.84620  0.89660  Biso   1.000  C
  C49      1.0000 0.95200  0.76130  0.40360  Biso   1.000  C
  C50      1.0000 0.95200  0.23870  0.90360  Biso   1.000  C
  C51      1.0000 0.45200  0.26130  0.40360  Biso   1.000  C
  C52      1.0000 0.45200  0.73870  0.90360  Biso   1.000  C
  H17      1.0000 0.92860  0.70340  0.35880  Biso   1.000  H
  H18      1.0000 0.92860  0.29660  0.85880  Biso   1.000  H
  H19      1.0000 0.42860  0.20340  0.35880  Biso   1.000  H
  H20      1.0000 0.42860  0.79660  0.85880  Biso   1.000  H
  C53      1.0000 0.93980  0.19650  0.65770  Biso   1.000  C
  C54      1.0000 0.93980  0.80350  0.15770  Biso   1.000  C
  C55      1.0000 0.43980  0.69650  0.65770  Biso   1.000  C
  C56      1.0000 0.43980  0.30350  0.15770  Biso   1.000  C
  H21      1.0000 0.96220  0.15760  0.70940  Biso   1.000  H
  H22      1.0000 0.96220  0.84240  0.20940  Biso   1.000  H
  H23      1.0000 0.46220  0.65760  0.70940  Biso   1.000  H
  H24      1.0000 0.46220  0.34240  0.20940  Biso   1.000  H
  C57      1.0000 0.84360  0.11040  0.27120  Biso   1.000  C
  C58      1.0000 0.84360  0.88960  0.77120  Biso   1.000  C
  C59      1.0000 0.34360  0.61040  0.27120  Biso   1.000  C
  C60      1.0000 0.34360  0.38960  0.77120  Biso   1.000  C
  C61      1.0000 0.59390  0.55030  0.33080  Biso   1.000  C
  C62      1.0000 0.59390  0.44970  0.83080  Biso   1.000  C
  C63      1.0000 0.09390  0.05030  0.33080  Biso   1.000  C
  C64      1.0000 0.09390  0.94970  0.83080  Biso   1.000  C
  H25      1.0000 0.56730  0.48330  0.35160  Biso   1.000  H
  H26      1.0000 0.56730  0.51670  0.85160  Biso   1.000  H
  H27      1.0000 0.06730  0.98330  0.35160  Biso   1.000  H
  H28      1.0000 0.06730  0.01670  0.85160  Biso   1.000  H
  H29      1.0000 0.55070  0.59690  0.28520  Biso   1.000  H
  H30      1.0000 0.55070  0.40310  0.78520  Biso   1.000  H
  H31      1.0000 0.05070  0.09690  0.28520  Biso   1.000  H
  H32      1.0000 0.05070  0.90310  0.78520  Biso   1.000  H
  C65      1.0000 0.85730  0.17540  0.60580  Biso   1.000  C
  C66      1.0000 0.85730  0.82460  0.10580  Biso   1.000  C
  C67      1.0000 0.35730  0.67540  0.60580  Biso   1.000  C
  C68      1.0000 0.35730  0.32460  0.10580  Biso   1.000  C
  H33      1.0000 0.82410  0.12330  0.62330  Biso   1.000  H
  H34      1.0000 0.82410  0.87670  0.12330  Biso   1.000  H
  H35      1.0000 0.32410  0.62330  0.62330  Biso   1.000  H
  H36      1.0000 0.32410  0.37670  0.12330  Biso   1.000  H
  C69      1.0000 0.75920  0.32480  0.25760  Biso   1.000  C
  C70      1.0000 0.75920  0.67520  0.75760  Biso   1.000  C
  C71      1.0000 0.25920  0.82480  0.25760  Biso   1.000  C
  C72      1.0000 0.25920  0.17520  0.75760  Biso   1.000  C
  H37      1.0000 0.72370  0.27540  0.27350  Biso   1.000  H
  H38      1.0000 0.72370  0.72460  0.77350  Biso   1.000  H
  H39      1.0000 0.22370  0.77540  0.27350  Biso   1.000  H
  H40      1.0000 0.22370  0.22460  0.77350  Biso   1.000  H
  C73      1.0000 0.98920  0.27620  0.63210  Biso   1.000  C
  C74      1.0000 0.98920  0.72380  0.13210  Biso   1.000  C
  C75      1.0000 0.48920  0.77620  0.63210  Biso   1.000  C
  C76      1.0000 0.48920  0.22380  0.13210  Biso   1.000  C
  H41      1.0000 0.04470  0.29120  0.66680  Biso   1.000  H
  H42      1.0000 0.04470  0.70880  0.16680  Biso   1.000  H
  H43      1.0000 0.54470  0.79120  0.66680  Biso   1.000  H
  H44      1.0000 0.54470  0.20880  0.16680  Biso   1.000  H
  C77      1.0000 0.79680  0.53560  0.21350  Biso   1.000  C
  C78      1.0000 0.79680  0.46440  0.71350  Biso   1.000  C
  C79      1.0000 0.29680  0.03560  0.21350  Biso   1.000  C
  C80      1.0000 0.29680  0.96440  0.71350  Biso   1.000  C
  H45      1.0000 0.78720  0.62830  0.20050  Biso   1.000  H
  H46      1.0000 0.78720  0.37170  0.70050  Biso   1.000  H
  H47      1.0000 0.28720  0.12830  0.20050  Biso   1.000  H
  H48      1.0000 0.28720  0.87170  0.70050  Biso   1.000  H
  C81      1.0000 0.86080  0.47050  0.20540  Biso   1.000  C
  C82      1.0000 0.86080  0.52950  0.70540  Biso   1.000  C
  C83      1.0000 0.36080  0.97050  0.20540  Biso   1.000  C
  C84      1.0000 0.36080  0.02950  0.70540  Biso   1.000  C
  H49      1.0000 0.89460  0.51940  0.18710  Biso   1.000  H
  H50      1.0000 0.89460  0.48060  0.68710  Biso   1.000  H
  H51      1.0000 0.39460  0.01940  0.18710  Biso   1.000  H
  H52      1.0000 0.39460  0.98060  0.68710  Biso   1.000  H
  C85      1.0000 0.71810  0.84590  0.51400  Biso   1.000  C
  C86      1.0000 0.71810  0.15410  0.01400  Biso   1.000  C
  C87      1.0000 0.21810  0.34590  0.51400  Biso   1.000  C
  C88      1.0000 0.21810  0.65410  0.01400  Biso   1.000  C
  H53      1.0000 0.74450  0.91050  0.55460  Biso   1.000  H
  H54      1.0000 0.74450  0.08950  0.05460  Biso   1.000  H
  H55      1.0000 0.24450  0.41050  0.55460  Biso   1.000  H
  H56      1.0000 0.24450  0.58950  0.05460  Biso   1.000  H
  C89      1.0000 0.05860  0.80830  0.52650  Biso   1.000  C
  C90      1.0000 0.05860  0.19170  0.02650  Biso   1.000  C
  C91      1.0000 0.55860  0.30830  0.52650  Biso   1.000  C
  C92      1.0000 0.55860  0.69170  0.02650  Biso   1.000  C
  H57      1.0000 0.10950  0.78460  0.56840  Biso   1.000  H
  H58      1.0000 0.10950  0.21540  0.06840  Biso   1.000  H
  H59      1.0000 0.60950  0.28460  0.56840  Biso   1.000  H
  H60      1.0000 0.60950  0.71540  0.06840  Biso   1.000  H
  C93      1.0000 0.94350  0.95950  0.47250  Biso   1.000  C
  C94      1.0000 0.94350  0.04050  0.97250  Biso   1.000  C
  C95      1.0000 0.44350  0.45950  0.47250  Biso   1.000  C
  C96      1.0000 0.44350  0.54050  0.97250  Biso   1.000  C
  H61      1.0000 0.91660  0.03890  0.47700  Biso   1.000  H
  H62      1.0000 0.91660  0.96110  0.97700  Biso   1.000  H
  H63      1.0000 0.41660  0.53890  0.47700  Biso   1.000  H
  H64      1.0000 0.41660  0.46110  0.97700  Biso   1.000  H
  C97      1.0000 0.71830  0.62870  0.45510  Biso   1.000  C
  C98      1.0000 0.71830  0.37130  0.95510  Biso   1.000  C
  C99      1.0000 0.21830  0.12870  0.45510  Biso   1.000  C
  C100     1.0000 0.21830  0.87130  0.95510  Biso   1.000  C
  H65      1.0000 0.74450  0.54620  0.45480  Biso   1.000  H
  H66      1.0000 0.74450  0.45380  0.95480  Biso   1.000  H
  H67      1.0000 0.24450  0.04620  0.45480  Biso   1.000  H
  H68      1.0000 0.24450  0.95380  0.95480  Biso   1.000  H
  C101     1.0000 0.75870  0.72630  0.51440  Biso   1.000  C
  C102     1.0000 0.75870  0.27370  0.01440  Biso   1.000  C
  C103     1.0000 0.25870  0.22630  0.51440  Biso   1.000  C
  C104     1.0000 0.25870  0.77370  0.01440  Biso   1.000  C
  H69      1.0000 0.81240  0.71070  0.55380  Biso   1.000  H
  H70      1.0000 0.81240  0.28930  0.05380  Biso   1.000  H
  H71      1.0000 0.31240  0.21070  0.55380  Biso   1.000  H
  H72      1.0000 0.31240  0.78930  0.05380  Biso   1.000  H
  C105     1.0000 0.87610  0.33220  0.22400  Biso   1.000  C
  C106     1.0000 0.87610  0.66780  0.72400  Biso   1.000  C
  C107     1.0000 0.37610  0.83220  0.22400  Biso   1.000  C
  C108     1.0000 0.37610  0.16780  0.72400  Biso   1.000  C
  H73      1.0000 0.92030  0.28890  0.21880  Biso   1.000  H
  H74      1.0000 0.92030  0.71110  0.71880  Biso   1.000  H
  H75      1.0000 0.42030  0.78890  0.21880  Biso   1.000  H
  H76      1.0000 0.42030  0.21110  0.71880  Biso   1.000  H
  C109     1.0000 0.01940  0.92530  0.53320  Biso   1.000  C
  C110     1.0000 0.01940  0.07470  0.03320  Biso   1.000  C
  C111     1.0000 0.51940  0.42530  0.53320  Biso   1.000  C
  C112     1.0000 0.51940  0.57470  0.03320  Biso   1.000  C
  H77      1.0000 0.04400  0.98150  0.57870  Biso   1.000  H
  H78      1.0000 0.04400  0.01850  0.07870  Biso   1.000  H
  H79      1.0000 0.54400  0.48150  0.57870  Biso   1.000  H
  H80      1.0000 0.54400  0.51850  0.07870  Biso   1.000  H
  Cu1      1.0000 0.58325  0.05224  0.45702  Biso   1.000  Cu
  Cu2      1.0000 0.58325  0.94776  0.95702  Biso   1.000  Cu
  Cu3      1.0000 0.08325  0.55224  0.45702  Biso   1.000  Cu
  Cu4      1.0000 0.08325  0.44776  0.95702  Biso   1.000  Cu
  N1       1.0000 0.02580  0.72780  0.46150  Biso   1.000  N
  N2       1.0000 0.02580  0.27220  0.96150  Biso   1.000  N
  N3       1.0000 0.52580  0.22780  0.46150  Biso   1.000  N
  N4       1.0000 0.52580  0.77220  0.96150  Biso   1.000  N
  N5       1.0000 0.64170  0.87300  0.45724  Biso   1.000  N
  N6       1.0000 0.64170  0.12700  0.95724  Biso   1.000  N
  N7       1.0000 0.14170  0.37300  0.45724  Biso   1.000  N
  N8       1.0000 0.14170  0.62700  0.95724  Biso   1.000  N
  N9       1.0000 0.64870  0.47980  0.30260  Biso   1.000  N
  N10      1.0000 0.64870  0.52020  0.80260  Biso   1.000  N
  N11      1.0000 0.14870  0.97980  0.30260  Biso   1.000  N
  N12      1.0000 0.14870  0.02020  0.80260  Biso   1.000  N
  H81      1.0000 0.66090  0.39520  0.31590  Biso   1.000  H
  H82      1.0000 0.66090  0.60480  0.81590  Biso   1.000  H
  H83      1.0000 0.16090  0.89520  0.31590  Biso   1.000  H
  H84      1.0000 0.16090  0.10480  0.81590  Biso   1.000  H
  N13      1.0000 0.80950  0.05150  0.31710  Biso   1.000  N
  N14      1.0000 0.80950  0.94850  0.81710  Biso   1.000  N
  N15      1.0000 0.30950  0.55150  0.31710  Biso   1.000  N
  N16      1.0000 0.30950  0.44850  0.81710  Biso   1.000  N
  H85      1.0000 0.77940  0.10010  0.33390  Biso   1.000  H
  H86      1.0000 0.77940  0.89990  0.83390  Biso   1.000  H
  H87      1.0000 0.27940  0.60010  0.33390  Biso   1.000  H
  H88      1.0000 0.27940  0.39990  0.83390  Biso   1.000  H
  O1       1.0000 0.66050  0.65870  0.22980  Biso   1.000  O
  O2       1.0000 0.66050  0.34130  0.72980  Biso   1.000  O
  O3       1.0000 0.16050  0.15870  0.22980  Biso   1.000  O
  O4       1.0000 0.16050  0.84130  0.72980  Biso   1.000  O
  O5       1.0000 0.69163  0.14620  0.50423  Biso   1.000  O
  O6       1.0000 0.69163  0.85380  0.00423  Biso   1.000  O
  O7       1.0000 0.19163  0.64620  0.50423  Biso   1.000  O
  O8       1.0000 0.19163  0.35380  0.00423  Biso   1.000  O
  O9       1.0000 0.70957  0.22440  0.39735  Biso   1.000  O
  O10      1.0000 0.70957  0.77560  0.89735  Biso   1.000  O
  O11      1.0000 0.20957  0.72440  0.39735  Biso   1.000  O
  O12      1.0000 0.20957  0.27560  0.89735  Biso   1.000  O
  O13      1.0000 0.07589  0.46900  0.58262  Biso   1.000  O
  O14      1.0000 0.07589  0.53100  0.08262  Biso   1.000  O
  O15      1.0000 0.57589  0.96900  0.58262  Biso   1.000  O
  O16      1.0000 0.57589  0.03100  0.08262  Biso   1.000  O
  O17      1.0000 0.98631  0.44390  0.45350  Biso   1.000  O
  O18      1.0000 0.98631  0.55610  0.95350  Biso   1.000  O
  O19      1.0000 0.48631  0.94390  0.45350  Biso   1.000  O
  O20      1.0000 0.48631  0.05610  0.95350  Biso   1.000  O
  O21      1.0000 0.55740  0.09560  0.32484  Biso   1.000  O
  O22      1.0000 0.55740  0.90440  0.82484  Biso   1.000  O
  O23      1.0000 0.05740  0.59560  0.32484  Biso   1.000  O
  O24      1.0000 0.05740  0.40440  0.82484  Biso   1.000  O
  O25      1.0000 0.88870  0.04540  0.24810  Biso   1.000  O
  O26      1.0000 0.88870  0.95460  0.74810  Biso   1.000  O
  O27      1.0000 0.38870  0.54540  0.24810  Biso   1.000  O
  O28      1.0000 0.38870  0.45460  0.74810  Biso   1.000  O
  H89      1.0000 0.55490  0.04820  0.28430  Biso   1.000  H
  H90      1.0000 0.55490  0.95180  0.78430  Biso   1.000  H
  H91      1.0000 0.05490  0.54820  0.28430  Biso   1.000  H
  H92      1.0000 0.05490  0.45180  0.78430  Biso   1.000  H
  H93      1.0000 0.59960  0.14140  0.32860  Biso   1.000  H
  H94      1.0000 0.59960  0.85860  0.82860  Biso   1.000  H
  H95      1.0000 0.09960  0.64140  0.32860  Biso   1.000  H
  H96      1.0000 0.09960  0.35860  0.82860  Biso   1.000  H
  O29      1.0000 0.07640  0.59460  0.72010  Biso   1.000  O
  O30      1.0000 0.07640  0.40540  0.22010  Biso   1.000  O
  O31      1.0000 0.57640  0.09460  0.72010  Biso   1.000  O
  O32      1.0000 0.57640  0.90540  0.22010  Biso   1.000  O
  H97      1.0000 0.09990  0.51620  0.74220  Biso   1.000  H
  H98      1.0000 0.09990  0.48380  0.24220  Biso   1.000  H
  H99      1.0000 0.59990  0.01620  0.74220  Biso   1.000  H
  H100     1.0000 0.59990  0.98380  0.24220  Biso   1.000  H
  H101     1.0000 0.07740  0.57700  0.67440  Biso   1.000  H
  H102     1.0000 0.07740  0.42300  0.17440  Biso   1.000  H
  H103     1.0000 0.57740  0.07700  0.67440  Biso   1.000  H
  H104     1.0000 0.57740  0.92300  0.17440  Biso   1.000  H
