data_image0
_cell_length_a       13.717
_cell_length_b       19.708
_cell_length_c       22.294
_cell_angle_alpha    90
_cell_angle_beta     90
_cell_angle_gamma    90

_symmetry_space_group_name_H-M    "P 1"
_symmetry_int_tables_number       1

loop_
  _symmetry_equiv_pos_as_xyz
  'x, y, z'

loop_
  _atom_site_label
  _atom_site_occupancy
  _atom_site_fract_x
  _atom_site_fract_y
  _atom_site_fract_z
  _atom_site_thermal_displace_type
  _atom_site_B_iso_or_equiv
  _atom_site_type_symbol
  Cu1      1.0000 0.03560  0.07600  0.02080  Biso   1.000  Cu
  Cu2      1.0000 0.46440  0.92400  0.52080  Biso   1.000  Cu
  Cu3      1.0000 0.53560  0.42400  0.97920  Biso   1.000  Cu
  Cu4      1.0000 0.96440  0.57600  0.47920  Biso   1.000  Cu
  Cu5      1.0000 0.96440  0.92400  0.97920  Biso   1.000  Cu
  Cu6      1.0000 0.53560  0.07600  0.47920  Biso   1.000  Cu
  Cu7      1.0000 0.46440  0.57600  0.02080  Biso   1.000  Cu
  Cu8      1.0000 0.03560  0.42400  0.52080  Biso   1.000  Cu
  O1       1.0000 0.96060  0.00420  0.05950  Biso   1.000  O
  O2       1.0000 0.53940  0.99580  0.55950  Biso   1.000  O
  O3       1.0000 0.46060  0.49580  0.94050  Biso   1.000  O
  O4       1.0000 0.03940  0.50420  0.44050  Biso   1.000  O
  O5       1.0000 0.03940  0.99580  0.94050  Biso   1.000  O
  O6       1.0000 0.46060  0.00420  0.44050  Biso   1.000  O
  O7       1.0000 0.53940  0.50420  0.05950  Biso   1.000  O
  O8       1.0000 0.96060  0.49580  0.55950  Biso   1.000  O
  C1       1.0000 0.89260  0.01360  0.10120  Biso   1.000  C
  C2       1.0000 0.60740  0.98640  0.60120  Biso   1.000  C
  C3       1.0000 0.39260  0.48640  0.89880  Biso   1.000  C
  C4       1.0000 0.10740  0.51360  0.39880  Biso   1.000  C
  C5       1.0000 0.10740  0.98640  0.89880  Biso   1.000  C
  C6       1.0000 0.39260  0.01360  0.39880  Biso   1.000  C
  C7       1.0000 0.60740  0.51360  0.10120  Biso   1.000  C
  C8       1.0000 0.89260  0.48640  0.60120  Biso   1.000  C
  C9       1.0000 0.88820  0.07360  0.13380  Biso   1.000  C
  C10      1.0000 0.61180  0.92640  0.63380  Biso   1.000  C
  C11      1.0000 0.38820  0.42640  0.86620  Biso   1.000  C
  C12      1.0000 0.11180  0.57360  0.36620  Biso   1.000  C
  C13      1.0000 0.11180  0.92640  0.86620  Biso   1.000  C
  C14      1.0000 0.38820  0.07360  0.36620  Biso   1.000  C
  C15      1.0000 0.61180  0.57360  0.13380  Biso   1.000  C
  C16      1.0000 0.88820  0.42640  0.63380  Biso   1.000  C
  C17      1.0000 0.81930  0.08120  0.17900  Biso   1.000  C
  C18      1.0000 0.68070  0.91880  0.67900  Biso   1.000  C
  C19      1.0000 0.31930  0.41880  0.82100  Biso   1.000  C
  C20      1.0000 0.18070  0.58120  0.32100  Biso   1.000  C
  C21      1.0000 0.18070  0.91880  0.82100  Biso   1.000  C
  C22      1.0000 0.31930  0.08120  0.32100  Biso   1.000  C
  C23      1.0000 0.68070  0.58120  0.17900  Biso   1.000  C
  C24      1.0000 0.81930  0.41880  0.67900  Biso   1.000  C
  N1       1.0000 0.75470  0.02870  0.19160  Biso   1.000  N
  N2       1.0000 0.74530  0.97130  0.69160  Biso   1.000  N
  N3       1.0000 0.25470  0.47130  0.80840  Biso   1.000  N
  N4       1.0000 0.24530  0.52870  0.30840  Biso   1.000  N
  N5       1.0000 0.24530  0.97130  0.80840  Biso   1.000  N
  N6       1.0000 0.25470  0.02870  0.30840  Biso   1.000  N
  N7       1.0000 0.74530  0.52870  0.19160  Biso   1.000  N
  N8       1.0000 0.75470  0.47130  0.69160  Biso   1.000  N
  C25      1.0000 0.75900  0.96870  0.15900  Biso   1.000  C
  C26      1.0000 0.74100  0.03130  0.65900  Biso   1.000  C
  C27      1.0000 0.25900  0.53130  0.84100  Biso   1.000  C
  C28      1.0000 0.24100  0.46870  0.34100  Biso   1.000  C
  C29      1.0000 0.24100  0.03130  0.84100  Biso   1.000  C
  C30      1.0000 0.25900  0.96870  0.34100  Biso   1.000  C
  C31      1.0000 0.74100  0.46870  0.15900  Biso   1.000  C
  C32      1.0000 0.75900  0.53130  0.65900  Biso   1.000  C
  C33      1.0000 0.82800  0.96110  0.11380  Biso   1.000  C
  C34      1.0000 0.67200  0.03890  0.61380  Biso   1.000  C
  C35      1.0000 0.32800  0.53890  0.88620  Biso   1.000  C
  C36      1.0000 0.17200  0.46110  0.38620  Biso   1.000  C
  C37      1.0000 0.17200  0.03890  0.88620  Biso   1.000  C
  C38      1.0000 0.32800  0.96110  0.38620  Biso   1.000  C
  C39      1.0000 0.67200  0.46110  0.11380  Biso   1.000  C
  C40      1.0000 0.82800  0.53890  0.61380  Biso   1.000  C
  C41      1.0000 0.68050  0.03790  0.23960  Biso   1.000  C
  C42      1.0000 0.81950  0.96210  0.73960  Biso   1.000  C
  C43      1.0000 0.18050  0.46210  0.76040  Biso   1.000  C
  C44      1.0000 0.31950  0.53790  0.26040  Biso   1.000  C
  C45      1.0000 0.31950  0.96210  0.76040  Biso   1.000  C
  C46      1.0000 0.18050  0.03790  0.26040  Biso   1.000  C
  C47      1.0000 0.81950  0.53790  0.23960  Biso   1.000  C
  C48      1.0000 0.68050  0.46210  0.73960  Biso   1.000  C
  C49      1.0000 0.59270  0.07760  0.21870  Biso   1.000  C
  C50      1.0000 0.90730  0.92240  0.71870  Biso   1.000  C
  C51      1.0000 0.09270  0.42240  0.78130  Biso   1.000  C
  C52      1.0000 0.40730  0.57760  0.28130  Biso   1.000  C
  C53      1.0000 0.40730  0.92240  0.78130  Biso   1.000  C
  C54      1.0000 0.09270  0.07760  0.28130  Biso   1.000  C
  C55      1.0000 0.90730  0.57760  0.21870  Biso   1.000  C
  C56      1.0000 0.59270  0.42240  0.71870  Biso   1.000  C
  C57      1.0000 0.57690  0.14180  0.24170  Biso   1.000  C
  C58      1.0000 0.92310  0.85820  0.74170  Biso   1.000  C
  C59      1.0000 0.07690  0.35820  0.75830  Biso   1.000  C
  C60      1.0000 0.42310  0.64180  0.25830  Biso   1.000  C
  C61      1.0000 0.42310  0.85820  0.75830  Biso   1.000  C
  C62      1.0000 0.07690  0.14180  0.25830  Biso   1.000  C
  C63      1.0000 0.92310  0.64180  0.24170  Biso   1.000  C
  C64      1.0000 0.57690  0.35820  0.74170  Biso   1.000  C
  C65      1.0000 0.52610  0.05050  0.17890  Biso   1.000  C
  C66      1.0000 0.97390  0.94950  0.67890  Biso   1.000  C
  C67      1.0000 0.02610  0.44950  0.82110  Biso   1.000  C
  C68      1.0000 0.47390  0.55050  0.32110  Biso   1.000  C
  C69      1.0000 0.47390  0.94950  0.82110  Biso   1.000  C
  C70      1.0000 0.02610  0.05050  0.32110  Biso   1.000  C
  C71      1.0000 0.97390  0.55050  0.17890  Biso   1.000  C
  C72      1.0000 0.52610  0.44950  0.67890  Biso   1.000  C
  C73      1.0000 0.49410  0.17870  0.22580  Biso   1.000  C
  C74      1.0000 0.00590  0.82130  0.72580  Biso   1.000  C
  C75      1.0000 0.99410  0.32130  0.77420  Biso   1.000  C
  C76      1.0000 0.50590  0.67870  0.27420  Biso   1.000  C
  C77      1.0000 0.50590  0.82130  0.77420  Biso   1.000  C
  C78      1.0000 0.99410  0.17870  0.27420  Biso   1.000  C
  C79      1.0000 0.00590  0.67870  0.22580  Biso   1.000  C
  C80      1.0000 0.49410  0.32130  0.72580  Biso   1.000  C
  C81      1.0000 0.44350  0.08770  0.16250  Biso   1.000  C
  C82      1.0000 0.05650  0.91230  0.66250  Biso   1.000  C
  C83      1.0000 0.94350  0.41230  0.83750  Biso   1.000  C
  C84      1.0000 0.55650  0.58770  0.33750  Biso   1.000  C
  C85      1.0000 0.55650  0.91230  0.83750  Biso   1.000  C
  C86      1.0000 0.94350  0.08770  0.33750  Biso   1.000  C
  C87      1.0000 0.05650  0.58770  0.16250  Biso   1.000  C
  C88      1.0000 0.44350  0.41230  0.66250  Biso   1.000  C
  C89      1.0000 0.42520  0.15100  0.18610  Biso   1.000  C
  C90      1.0000 0.07480  0.84900  0.68610  Biso   1.000  C
  C91      1.0000 0.92520  0.34900  0.81390  Biso   1.000  C
  C92      1.0000 0.57480  0.65100  0.31390  Biso   1.000  C
  C93      1.0000 0.57480  0.84900  0.81390  Biso   1.000  C
  C94      1.0000 0.92520  0.15100  0.31390  Biso   1.000  C
  C95      1.0000 0.07480  0.65100  0.18610  Biso   1.000  C
  C96      1.0000 0.42520  0.34900  0.68610  Biso   1.000  C
  C97      1.0000 0.33480  0.18950  0.17010  Biso   1.000  C
  C98      1.0000 0.16520  0.81050  0.67010  Biso   1.000  C
  C99      1.0000 0.83480  0.31050  0.82990  Biso   1.000  C
  C100     1.0000 0.66520  0.68950  0.32990  Biso   1.000  C
  C101     1.0000 0.66520  0.81050  0.82990  Biso   1.000  C
  C102     1.0000 0.83480  0.18950  0.32990  Biso   1.000  C
  C103     1.0000 0.16520  0.68950  0.17010  Biso   1.000  C
  C104     1.0000 0.33480  0.31050  0.67010  Biso   1.000  C
  C105     1.0000 0.40130  0.34860  0.08670  Biso   1.000  C
  C106     1.0000 0.09870  0.65140  0.58670  Biso   1.000  C
  C107     1.0000 0.90130  0.15140  0.91330  Biso   1.000  C
  C108     1.0000 0.59870  0.84860  0.41330  Biso   1.000  C
  C109     1.0000 0.59870  0.65140  0.91330  Biso   1.000  C
  C110     1.0000 0.90130  0.34860  0.41330  Biso   1.000  C
  C111     1.0000 0.09870  0.84860  0.08670  Biso   1.000  C
  C112     1.0000 0.40130  0.15140  0.58670  Biso   1.000  C
  C113     1.0000 0.37810  0.30480  0.13350  Biso   1.000  C
  C114     1.0000 0.12190  0.69520  0.63350  Biso   1.000  C
  C115     1.0000 0.87810  0.19520  0.86650  Biso   1.000  C
  C116     1.0000 0.62190  0.80480  0.36650  Biso   1.000  C
  C117     1.0000 0.62190  0.69520  0.86650  Biso   1.000  C
  C118     1.0000 0.87810  0.30480  0.36650  Biso   1.000  C
  C119     1.0000 0.12190  0.80480  0.13350  Biso   1.000  C
  C120     1.0000 0.37810  0.19520  0.63350  Biso   1.000  C
  N9       1.0000 0.35300  0.23780  0.12130  Biso   1.000  N
  N10      1.0000 0.14700  0.76220  0.62130  Biso   1.000  N
  N11      1.0000 0.85300  0.26220  0.87870  Biso   1.000  N
  N12      1.0000 0.64700  0.73780  0.37870  Biso   1.000  N
  N13      1.0000 0.64700  0.76220  0.87870  Biso   1.000  N
  N14      1.0000 0.85300  0.23780  0.37870  Biso   1.000  N
  N15      1.0000 0.14700  0.73780  0.12130  Biso   1.000  N
  N16      1.0000 0.35300  0.26220  0.62130  Biso   1.000  N
  C121     1.0000 0.35120  0.21470  0.06250  Biso   1.000  C
  C122     1.0000 0.14880  0.78530  0.56250  Biso   1.000  C
  C123     1.0000 0.85120  0.28530  0.93750  Biso   1.000  C
  C124     1.0000 0.64880  0.71470  0.43750  Biso   1.000  C
  C125     1.0000 0.64880  0.78530  0.93750  Biso   1.000  C
  C126     1.0000 0.85120  0.21470  0.43750  Biso   1.000  C
  C127     1.0000 0.14880  0.71470  0.06250  Biso   1.000  C
  C128     1.0000 0.35120  0.28530  0.56250  Biso   1.000  C
  C129     1.0000 0.37400  0.25830  0.01680  Biso   1.000  C
  C130     1.0000 0.12600  0.74170  0.51680  Biso   1.000  C
  C131     1.0000 0.87400  0.24170  0.98320  Biso   1.000  C
  C132     1.0000 0.62600  0.75830  0.48320  Biso   1.000  C
  C133     1.0000 0.62600  0.74170  0.98320  Biso   1.000  C
  C134     1.0000 0.87400  0.25830  0.48320  Biso   1.000  C
  C135     1.0000 0.12600  0.75830  0.01680  Biso   1.000  C
  C136     1.0000 0.37400  0.24170  0.51680  Biso   1.000  C
  C137     1.0000 0.40020  0.32640  0.02730  Biso   1.000  C
  C138     1.0000 0.09980  0.67360  0.52730  Biso   1.000  C
  C139     1.0000 0.90020  0.17360  0.97270  Biso   1.000  C
  C140     1.0000 0.59980  0.82640  0.47270  Biso   1.000  C
  C141     1.0000 0.59980  0.67360  0.97270  Biso   1.000  C
  C142     1.0000 0.90020  0.32640  0.47270  Biso   1.000  C
  C143     1.0000 0.09980  0.82640  0.02730  Biso   1.000  C
  C144     1.0000 0.40020  0.17360  0.52730  Biso   1.000  C
  O9       1.0000 0.42210  0.36560  0.98270  Biso   1.000  O
  O10      1.0000 0.07790  0.63440  0.48270  Biso   1.000  O
  O11      1.0000 0.92210  0.13440  0.01730  Biso   1.000  O
  O12      1.0000 0.57790  0.86560  0.51730  Biso   1.000  O
  O13      1.0000 0.57790  0.63440  0.01730  Biso   1.000  O
  O14      1.0000 0.92210  0.36560  0.51730  Biso   1.000  O
  O15      1.0000 0.07790  0.86560  0.98270  Biso   1.000  O
  O16      1.0000 0.42210  0.13440  0.48270  Biso   1.000  O
  O17      1.0000 0.10990  0.14270  0.97750  Biso   1.000  O
  O18      1.0000 0.39010  0.85730  0.47750  Biso   1.000  O
  O19      1.0000 0.60990  0.35730  0.02250  Biso   1.000  O
  O20      1.0000 0.89010  0.64270  0.52250  Biso   1.000  O
  O21      1.0000 0.89010  0.85730  0.02250  Biso   1.000  O
  O22      1.0000 0.60990  0.14270  0.52250  Biso   1.000  O
  O23      1.0000 0.39010  0.64270  0.97750  Biso   1.000  O
  O24      1.0000 0.10990  0.35730  0.47750  Biso   1.000  O
  C145     1.0000 0.12090  0.20670  0.98950  Biso   1.000  C
  C146     1.0000 0.37910  0.79330  0.48950  Biso   1.000  C
  C147     1.0000 0.62090  0.29330  0.01050  Biso   1.000  C
  C148     1.0000 0.87910  0.70670  0.51050  Biso   1.000  C
  C149     1.0000 0.87910  0.79330  0.01050  Biso   1.000  C
  C150     1.0000 0.62090  0.20670  0.51050  Biso   1.000  C
  C151     1.0000 0.37910  0.70670  0.98950  Biso   1.000  C
  C152     1.0000 0.12090  0.29330  0.48950  Biso   1.000  C
  C153     1.0000 0.15120  0.25040  0.94420  Biso   1.000  C
  C154     1.0000 0.34880  0.74960  0.44420  Biso   1.000  C
  C155     1.0000 0.65120  0.24960  0.05580  Biso   1.000  C
  C156     1.0000 0.84880  0.75040  0.55580  Biso   1.000  C
  C157     1.0000 0.84880  0.74960  0.05580  Biso   1.000  C
  C158     1.0000 0.65120  0.25040  0.55580  Biso   1.000  C
  C159     1.0000 0.34880  0.75040  0.94420  Biso   1.000  C
  C160     1.0000 0.15120  0.24960  0.44420  Biso   1.000  C
  C161     1.0000 0.16620  0.31870  0.95660  Biso   1.000  C
  C162     1.0000 0.33380  0.68130  0.45660  Biso   1.000  C
  C163     1.0000 0.66620  0.18130  0.04340  Biso   1.000  C
  C164     1.0000 0.83380  0.81870  0.54340  Biso   1.000  C
  C165     1.0000 0.83380  0.68130  0.04340  Biso   1.000  C
  C166     1.0000 0.66620  0.31870  0.54340  Biso   1.000  C
  C167     1.0000 0.33380  0.81870  0.95660  Biso   1.000  C
  C168     1.0000 0.16620  0.18130  0.45660  Biso   1.000  C
  N17      1.0000 0.15080  0.34340  0.01420  Biso   1.000  N
  N18      1.0000 0.34920  0.65660  0.51420  Biso   1.000  N
  N19      1.0000 0.65080  0.15660  0.98580  Biso   1.000  N
  N20      1.0000 0.84920  0.84340  0.48580  Biso   1.000  N
  N21      1.0000 0.84920  0.65660  0.98580  Biso   1.000  N
  N22      1.0000 0.65080  0.34340  0.48580  Biso   1.000  N
  N23      1.0000 0.34920  0.84340  0.01420  Biso   1.000  N
  N24      1.0000 0.15080  0.15660  0.51420  Biso   1.000  N
  C169     1.0000 0.12050  0.29980  0.05950  Biso   1.000  C
  C170     1.0000 0.37950  0.70020  0.55950  Biso   1.000  C
  C171     1.0000 0.62050  0.20020  0.94050  Biso   1.000  C
  C172     1.0000 0.87950  0.79980  0.44050  Biso   1.000  C
  C173     1.0000 0.87950  0.70020  0.94050  Biso   1.000  C
  C174     1.0000 0.62050  0.29980  0.44050  Biso   1.000  C
  C175     1.0000 0.37950  0.79980  0.05950  Biso   1.000  C
  C176     1.0000 0.12050  0.20020  0.55950  Biso   1.000  C
  C177     1.0000 0.10550  0.23140  0.04720  Biso   1.000  C
  C178     1.0000 0.39450  0.76860  0.54720  Biso   1.000  C
  C179     1.0000 0.60550  0.26860  0.95280  Biso   1.000  C
  C180     1.0000 0.89450  0.73140  0.45280  Biso   1.000  C
  C181     1.0000 0.89450  0.76860  0.95280  Biso   1.000  C
  C182     1.0000 0.60550  0.23140  0.45280  Biso   1.000  C
  C183     1.0000 0.39450  0.73140  0.04720  Biso   1.000  C
  C184     1.0000 0.10550  0.26860  0.54720  Biso   1.000  C
  C185     1.0000 0.16640  0.41450  0.02850  Biso   1.000  C
  C186     1.0000 0.33360  0.58550  0.52850  Biso   1.000  C
  C187     1.0000 0.66640  0.08550  0.97150  Biso   1.000  C
  C188     1.0000 0.83360  0.91450  0.47150  Biso   1.000  C
  C189     1.0000 0.83360  0.58550  0.97150  Biso   1.000  C
  C190     1.0000 0.66640  0.41450  0.47150  Biso   1.000  C
  C191     1.0000 0.33360  0.91450  0.02850  Biso   1.000  C
  C192     1.0000 0.16640  0.08550  0.52850  Biso   1.000  C
  C193     1.0000 0.08050  0.45780  0.01220  Biso   1.000  C
  C194     1.0000 0.41950  0.54220  0.51220  Biso   1.000  C
  C195     1.0000 0.58050  0.04220  0.98780  Biso   1.000  C
  C196     1.0000 0.91950  0.95780  0.48780  Biso   1.000  C
  C197     1.0000 0.91950  0.54220  0.98780  Biso   1.000  C
  C198     1.0000 0.58050  0.45780  0.48780  Biso   1.000  C
  C199     1.0000 0.41950  0.95780  0.01220  Biso   1.000  C
  C200     1.0000 0.08050  0.04220  0.51220  Biso   1.000  C
  C201     1.0000 0.98460  0.43850  0.02690  Biso   1.000  C
  C202     1.0000 0.51540  0.56150  0.52690  Biso   1.000  C
  C203     1.0000 0.48460  0.06150  0.97310  Biso   1.000  C
  C204     1.0000 0.01540  0.93850  0.47310  Biso   1.000  C
  C205     1.0000 0.01540  0.56150  0.97310  Biso   1.000  C
  C206     1.0000 0.48460  0.43850  0.47310  Biso   1.000  C
  C207     1.0000 0.51540  0.93850  0.02690  Biso   1.000  C
  C208     1.0000 0.98460  0.06150  0.52690  Biso   1.000  C
  C209     1.0000 0.09250  0.52000  0.98640  Biso   1.000  C
  C210     1.0000 0.40750  0.48000  0.48640  Biso   1.000  C
  C211     1.0000 0.59250  0.98000  0.01360  Biso   1.000  C
  C212     1.0000 0.90750  0.02000  0.51360  Biso   1.000  C
  C213     1.0000 0.90750  0.48000  0.01360  Biso   1.000  C
  C214     1.0000 0.59250  0.52000  0.51360  Biso   1.000  C
  C215     1.0000 0.40750  0.02000  0.98640  Biso   1.000  C
  C216     1.0000 0.09250  0.98000  0.48640  Biso   1.000  C
  O25      1.0000 0.15690  0.02510  0.04420  Biso   1.000  O
  O26      1.0000 0.34310  0.97490  0.54420  Biso   1.000  O
  O27      1.0000 0.65690  0.47490  0.95580  Biso   1.000  O
  O28      1.0000 0.84310  0.52510  0.45580  Biso   1.000  O
  O29      1.0000 0.84310  0.97490  0.95580  Biso   1.000  O
  O30      1.0000 0.65690  0.02510  0.45580  Biso   1.000  O
  O31      1.0000 0.34310  0.52510  0.04420  Biso   1.000  O
  O32      1.0000 0.15690  0.47490  0.54420  Biso   1.000  O
  O33      1.0000 0.24400  0.01240  0.12270  Biso   1.000  O
  O34      1.0000 0.25600  0.98760  0.62270  Biso   1.000  O
  O35      1.0000 0.74400  0.48760  0.87730  Biso   1.000  O
  O36      1.0000 0.75600  0.51240  0.37730  Biso   1.000  O
  O37      1.0000 0.75600  0.98760  0.87730  Biso   1.000  O
  O38      1.0000 0.74400  0.01240  0.37730  Biso   1.000  O
  O39      1.0000 0.25600  0.51240  0.12270  Biso   1.000  O
  O40      1.0000 0.24400  0.48760  0.62270  Biso   1.000  O
  O41      1.0000 0.13290  0.08850  0.12170  Biso   1.000  O
  O42      1.0000 0.36710  0.91150  0.62170  Biso   1.000  O
  O43      1.0000 0.63290  0.41150  0.87830  Biso   1.000  O
  O44      1.0000 0.86710  0.58850  0.37830  Biso   1.000  O
  O45      1.0000 0.86710  0.91150  0.87830  Biso   1.000  O
  O46      1.0000 0.63290  0.08850  0.37830  Biso   1.000  O
  O47      1.0000 0.36710  0.58850  0.12170  Biso   1.000  O
  O48      1.0000 0.13290  0.41150  0.62170  Biso   1.000  O
  N25      1.0000 0.17720  0.04550  0.09540  Biso   1.000  N
  N26      1.0000 0.32280  0.95450  0.59540  Biso   1.000  N
  N27      1.0000 0.67720  0.45450  0.90460  Biso   1.000  N
  N28      1.0000 0.82280  0.54550  0.40460  Biso   1.000  N
  N29      1.0000 0.82280  0.95450  0.90460  Biso   1.000  N
  N30      1.0000 0.67720  0.04550  0.40460  Biso   1.000  N
  N31      1.0000 0.32280  0.54550  0.09540  Biso   1.000  N
  N32      1.0000 0.17720  0.45450  0.59540  Biso   1.000  N
  O49      1.0000 0.87090  0.33310  0.21910  Biso   1.000  O
  O50      1.0000 0.62910  0.66690  0.71910  Biso   1.000  O
  O51      1.0000 0.37090  0.16690  0.78090  Biso   1.000  O
  O52      1.0000 0.12910  0.83310  0.28090  Biso   1.000  O
  O53      1.0000 0.12910  0.66690  0.78090  Biso   1.000  O
  O54      1.0000 0.37090  0.33310  0.28090  Biso   1.000  O
  O55      1.0000 0.62910  0.83310  0.21910  Biso   1.000  O
  O56      1.0000 0.87090  0.16690  0.71910  Biso   1.000  O
  O57      1.0000 0.78860  0.24760  0.18740  Biso   1.000  O
  O58      1.0000 0.71140  0.75240  0.68740  Biso   1.000  O
  O59      1.0000 0.28860  0.25240  0.81260  Biso   1.000  O
  O60      1.0000 0.21140  0.74760  0.31260  Biso   1.000  O
  O61      1.0000 0.21140  0.75240  0.81260  Biso   1.000  O
  O62      1.0000 0.28860  0.24760  0.31260  Biso   1.000  O
  O63      1.0000 0.71140  0.74760  0.18740  Biso   1.000  O
  O64      1.0000 0.78860  0.25240  0.68740  Biso   1.000  O
  O65      1.0000 0.85850  0.31690  0.12770  Biso   1.000  O
  O66      1.0000 0.64150  0.68310  0.62770  Biso   1.000  O
  O67      1.0000 0.35850  0.18310  0.87230  Biso   1.000  O
  O68      1.0000 0.14150  0.81690  0.37230  Biso   1.000  O
  O69      1.0000 0.14150  0.68310  0.87230  Biso   1.000  O
  O70      1.0000 0.35850  0.31690  0.37230  Biso   1.000  O
  O71      1.0000 0.64150  0.81690  0.12770  Biso   1.000  O
  O72      1.0000 0.85850  0.18310  0.62770  Biso   1.000  O
  N33      1.0000 0.84080  0.29760  0.17770  Biso   1.000  N
  N34      1.0000 0.65920  0.70240  0.67770  Biso   1.000  N
  N35      1.0000 0.34080  0.20240  0.82230  Biso   1.000  N
  N36      1.0000 0.15920  0.79760  0.32230  Biso   1.000  N
  N37      1.0000 0.15920  0.70240  0.82230  Biso   1.000  N
  N38      1.0000 0.34080  0.29760  0.32230  Biso   1.000  N
  N39      1.0000 0.65920  0.79760  0.17770  Biso   1.000  N
  N40      1.0000 0.84080  0.20240  0.67770  Biso   1.000  N
  O73      1.0000 0.05670  0.37760  0.17840  Biso   1.000  O
  O74      1.0000 0.44330  0.62240  0.67840  Biso   1.000  O
  O75      1.0000 0.55670  0.12240  0.82160  Biso   1.000  O
  O76      1.0000 0.94330  0.87760  0.32160  Biso   1.000  O
  O77      1.0000 0.94330  0.62240  0.82160  Biso   1.000  O
  O78      1.0000 0.55670  0.37760  0.32160  Biso   1.000  O
  O79      1.0000 0.44330  0.87760  0.17840  Biso   1.000  O
  O80      1.0000 0.05670  0.12240  0.67840  Biso   1.000  O
  O81      1.0000 0.10770  0.38630  0.22900  Biso   1.000  O
  O82      1.0000 0.39230  0.61370  0.72900  Biso   1.000  O
  O83      1.0000 0.60770  0.11370  0.77100  Biso   1.000  O
  O84      1.0000 0.89230  0.88630  0.27100  Biso   1.000  O
  O85      1.0000 0.89230  0.61370  0.77100  Biso   1.000  O
  O86      1.0000 0.60770  0.38630  0.27100  Biso   1.000  O
  O87      1.0000 0.39230  0.88630  0.22900  Biso   1.000  O
  O88      1.0000 0.10770  0.11370  0.72900  Biso   1.000  O
  H1       1.0000 0.93190  0.10910  0.12530  Biso   1.000  H
  H2       1.0000 0.56810  0.89090  0.62530  Biso   1.000  H
  H3       1.0000 0.43190  0.39090  0.87470  Biso   1.000  H
  H4       1.0000 0.06810  0.60910  0.37470  Biso   1.000  H
  H5       1.0000 0.06810  0.89090  0.87470  Biso   1.000  H
  H6       1.0000 0.43190  0.10910  0.37470  Biso   1.000  H
  H7       1.0000 0.56810  0.60910  0.12530  Biso   1.000  H
  H8       1.0000 0.93190  0.39090  0.62530  Biso   1.000  H
  H9       1.0000 0.81630  0.12180  0.20110  Biso   1.000  H
  H10      1.0000 0.68370  0.87820  0.70110  Biso   1.000  H
  H11      1.0000 0.31630  0.37820  0.79890  Biso   1.000  H
  H12      1.0000 0.18370  0.62180  0.29890  Biso   1.000  H
  H13      1.0000 0.18370  0.87820  0.79890  Biso   1.000  H
  H14      1.0000 0.31630  0.12180  0.29890  Biso   1.000  H
  H15      1.0000 0.68370  0.62180  0.20110  Biso   1.000  H
  H16      1.0000 0.81630  0.37820  0.70110  Biso   1.000  H
  H17      1.0000 0.71540  0.93320  0.16750  Biso   1.000  H
  H18      1.0000 0.78460  0.06680  0.66750  Biso   1.000  H
  H19      1.0000 0.21540  0.56680  0.83250  Biso   1.000  H
  H20      1.0000 0.28460  0.43320  0.33250  Biso   1.000  H
  H21      1.0000 0.28460  0.06680  0.83250  Biso   1.000  H
  H22      1.0000 0.21540  0.93320  0.33250  Biso   1.000  H
  H23      1.0000 0.78460  0.43320  0.16750  Biso   1.000  H
  H24      1.0000 0.71540  0.56680  0.66750  Biso   1.000  H
  H25      1.0000 0.83090  0.92050  0.09170  Biso   1.000  H
  H26      1.0000 0.66910  0.07950  0.59170  Biso   1.000  H
  H27      1.0000 0.33090  0.57950  0.90830  Biso   1.000  H
  H28      1.0000 0.16910  0.42050  0.40830  Biso   1.000  H
  H29      1.0000 0.16910  0.07950  0.90830  Biso   1.000  H
  H30      1.0000 0.33090  0.92050  0.40830  Biso   1.000  H
  H31      1.0000 0.66910  0.42050  0.09170  Biso   1.000  H
  H32      1.0000 0.83090  0.57950  0.59170  Biso   1.000  H
  H33      1.0000 0.71050  0.06160  0.27360  Biso   1.000  H
  H34      1.0000 0.78950  0.93840  0.77360  Biso   1.000  H
  H35      1.0000 0.21050  0.43840  0.72640  Biso   1.000  H
  H36      1.0000 0.28950  0.56160  0.22640  Biso   1.000  H
  H37      1.0000 0.28950  0.93840  0.72640  Biso   1.000  H
  H38      1.0000 0.21050  0.06160  0.22640  Biso   1.000  H
  H39      1.0000 0.78950  0.56160  0.27360  Biso   1.000  H
  H40      1.0000 0.71050  0.43840  0.77360  Biso   1.000  H
  H41      1.0000 0.65910  0.99320  0.25370  Biso   1.000  H
  H42      1.0000 0.84090  0.00680  0.75370  Biso   1.000  H
  H43      1.0000 0.15910  0.50680  0.74630  Biso   1.000  H
  H44      1.0000 0.34090  0.49320  0.24630  Biso   1.000  H
  H45      1.0000 0.34090  0.00680  0.74630  Biso   1.000  H
  H46      1.0000 0.15910  0.99320  0.24630  Biso   1.000  H
  H47      1.0000 0.84090  0.49320  0.25370  Biso   1.000  H
  H48      1.0000 0.65910  0.50680  0.75370  Biso   1.000  H
  H49      1.0000 0.62250  0.16080  0.26840  Biso   1.000  H
  H50      1.0000 0.87750  0.83920  0.76840  Biso   1.000  H
  H51      1.0000 0.12250  0.33920  0.73160  Biso   1.000  H
  H52      1.0000 0.37750  0.66080  0.23160  Biso   1.000  H
  H53      1.0000 0.37750  0.83920  0.73160  Biso   1.000  H
  H54      1.0000 0.12250  0.16080  0.23160  Biso   1.000  H
  H55      1.0000 0.87750  0.66080  0.26840  Biso   1.000  H
  H56      1.0000 0.62250  0.33920  0.76840  Biso   1.000  H
  H57      1.0000 0.53640  0.00710  0.16270  Biso   1.000  H
  H58      1.0000 0.96360  0.99290  0.66270  Biso   1.000  H
  H59      1.0000 0.03640  0.49290  0.83730  Biso   1.000  H
  H60      1.0000 0.46360  0.50710  0.33730  Biso   1.000  H
  H61      1.0000 0.46360  0.99290  0.83730  Biso   1.000  H
  H62      1.0000 0.03640  0.00710  0.33730  Biso   1.000  H
  H63      1.0000 0.96360  0.50710  0.16270  Biso   1.000  H
  H64      1.0000 0.53640  0.49290  0.66270  Biso   1.000  H
  H65      1.0000 0.48420  0.22230  0.24180  Biso   1.000  H
  H66      1.0000 0.01580  0.77770  0.74180  Biso   1.000  H
  H67      1.0000 0.98420  0.27770  0.75820  Biso   1.000  H
  H68      1.0000 0.51580  0.72230  0.25820  Biso   1.000  H
  H69      1.0000 0.51580  0.77770  0.75820  Biso   1.000  H
  H70      1.0000 0.98420  0.22230  0.25820  Biso   1.000  H
  H71      1.0000 0.01580  0.72230  0.24180  Biso   1.000  H
  H72      1.0000 0.48420  0.27770  0.74180  Biso   1.000  H
  H73      1.0000 0.39940  0.06910  0.13470  Biso   1.000  H
  H74      1.0000 0.10060  0.93090  0.63470  Biso   1.000  H
  H75      1.0000 0.89940  0.43090  0.86530  Biso   1.000  H
  H76      1.0000 0.60060  0.56910  0.36530  Biso   1.000  H
  H77      1.0000 0.60060  0.93090  0.86530  Biso   1.000  H
  H78      1.0000 0.89940  0.06910  0.36530  Biso   1.000  H
  H79      1.0000 0.10060  0.56910  0.13470  Biso   1.000  H
  H80      1.0000 0.39940  0.43090  0.63470  Biso   1.000  H
  H81      1.0000 0.28380  0.15760  0.15780  Biso   1.000  H
  H82      1.0000 0.21620  0.84240  0.65780  Biso   1.000  H
  H83      1.0000 0.78380  0.34240  0.84220  Biso   1.000  H
  H84      1.0000 0.71620  0.65760  0.34220  Biso   1.000  H
  H85      1.0000 0.71620  0.84240  0.84220  Biso   1.000  H
  H86      1.0000 0.78380  0.15760  0.34220  Biso   1.000  H
  H87      1.0000 0.21620  0.65760  0.15780  Biso   1.000  H
  H88      1.0000 0.28380  0.34240  0.65780  Biso   1.000  H
  H89      1.0000 0.31130  0.21410  0.20550  Biso   1.000  H
  H90      1.0000 0.18870  0.78590  0.70550  Biso   1.000  H
  H91      1.0000 0.81130  0.28590  0.79450  Biso   1.000  H
  H92      1.0000 0.68870  0.71410  0.29450  Biso   1.000  H
  H93      1.0000 0.68870  0.78590  0.79450  Biso   1.000  H
  H94      1.0000 0.81130  0.21410  0.29450  Biso   1.000  H
  H95      1.0000 0.18870  0.71410  0.20550  Biso   1.000  H
  H96      1.0000 0.31130  0.28590  0.70550  Biso   1.000  H
  H97      1.0000 0.41810  0.39380  0.09530  Biso   1.000  H
  H98      1.0000 0.08190  0.60620  0.59530  Biso   1.000  H
  H99      1.0000 0.91810  0.10620  0.90470  Biso   1.000  H
  H100     1.0000 0.58190  0.89380  0.40470  Biso   1.000  H
  H101     1.0000 0.58190  0.60620  0.90470  Biso   1.000  H
  H102     1.0000 0.91810  0.39380  0.40470  Biso   1.000  H
  H103     1.0000 0.08190  0.89380  0.09530  Biso   1.000  H
  H104     1.0000 0.41810  0.10620  0.59530  Biso   1.000  H
  H105     1.0000 0.37930  0.32050  0.17330  Biso   1.000  H
  H106     1.0000 0.12070  0.67950  0.67330  Biso   1.000  H
  H107     1.0000 0.87930  0.17950  0.82670  Biso   1.000  H
  H108     1.0000 0.62070  0.82050  0.32670  Biso   1.000  H
  H109     1.0000 0.62070  0.67950  0.82670  Biso   1.000  H
  H110     1.0000 0.87930  0.32050  0.32670  Biso   1.000  H
  H111     1.0000 0.12070  0.82050  0.17330  Biso   1.000  H
  H112     1.0000 0.37930  0.17950  0.67330  Biso   1.000  H
  H113     1.0000 0.33450  0.16940  0.05410  Biso   1.000  H
  H114     1.0000 0.16550  0.83060  0.55410  Biso   1.000  H
  H115     1.0000 0.83450  0.33060  0.94590  Biso   1.000  H
  H116     1.0000 0.66550  0.66940  0.44590  Biso   1.000  H
  H117     1.0000 0.66550  0.83060  0.94590  Biso   1.000  H
  H118     1.0000 0.83450  0.16940  0.44590  Biso   1.000  H
  H119     1.0000 0.16550  0.66940  0.05410  Biso   1.000  H
  H120     1.0000 0.33450  0.33060  0.55410  Biso   1.000  H
  H121     1.0000 0.37210  0.24220  0.97710  Biso   1.000  H
  H122     1.0000 0.12790  0.75780  0.47710  Biso   1.000  H
  H123     1.0000 0.87210  0.25780  0.02290  Biso   1.000  H
  H124     1.0000 0.62790  0.74220  0.52290  Biso   1.000  H
  H125     1.0000 0.62790  0.75780  0.02290  Biso   1.000  H
  H126     1.0000 0.87210  0.24220  0.52290  Biso   1.000  H
  H127     1.0000 0.12790  0.74220  0.97710  Biso   1.000  H
  H128     1.0000 0.37210  0.25780  0.47710  Biso   1.000  H
  H129     1.0000 0.16170  0.23360  0.90530  Biso   1.000  H
  H130     1.0000 0.33830  0.76640  0.40530  Biso   1.000  H
  H131     1.0000 0.66170  0.26640  0.09470  Biso   1.000  H
  H132     1.0000 0.83830  0.73360  0.59470  Biso   1.000  H
  H133     1.0000 0.83830  0.76640  0.09470  Biso   1.000  H
  H134     1.0000 0.66170  0.23360  0.59470  Biso   1.000  H
  H135     1.0000 0.33830  0.73360  0.90530  Biso   1.000  H
  H136     1.0000 0.16170  0.26640  0.40530  Biso   1.000  H
  H137     1.0000 0.18670  0.34820  0.92600  Biso   1.000  H
  H138     1.0000 0.31330  0.65180  0.42600  Biso   1.000  H
  H139     1.0000 0.68670  0.15180  0.07400  Biso   1.000  H
  H140     1.0000 0.81330  0.84820  0.57400  Biso   1.000  H
  H141     1.0000 0.81330  0.65180  0.07400  Biso   1.000  H
  H142     1.0000 0.68670  0.34820  0.57400  Biso   1.000  H
  H143     1.0000 0.31330  0.84820  0.92600  Biso   1.000  H
  H144     1.0000 0.18670  0.15180  0.42600  Biso   1.000  H
  H145     1.0000 0.11010  0.31650  0.09850  Biso   1.000  H
  H146     1.0000 0.38990  0.68350  0.59850  Biso   1.000  H
  H147     1.0000 0.61010  0.18350  0.90150  Biso   1.000  H
  H148     1.0000 0.88990  0.81650  0.40150  Biso   1.000  H
  H149     1.0000 0.88990  0.68350  0.90150  Biso   1.000  H
  H150     1.0000 0.61010  0.31650  0.40150  Biso   1.000  H
  H151     1.0000 0.38990  0.81650  0.09850  Biso   1.000  H
  H152     1.0000 0.11010  0.18350  0.59850  Biso   1.000  H
  H153     1.0000 0.08500  0.20190  0.07780  Biso   1.000  H
  H154     1.0000 0.41500  0.79810  0.57780  Biso   1.000  H
  H155     1.0000 0.58500  0.29810  0.92220  Biso   1.000  H
  H156     1.0000 0.91500  0.70190  0.42220  Biso   1.000  H
  H157     1.0000 0.91500  0.79810  0.92220  Biso   1.000  H
  H158     1.0000 0.58500  0.20190  0.42220  Biso   1.000  H
  H159     1.0000 0.41500  0.70190  0.07780  Biso   1.000  H
  H160     1.0000 0.08500  0.29810  0.57780  Biso   1.000  H
  H161     1.0000 0.22400  0.43090  0.00690  Biso   1.000  H
  H162     1.0000 0.27600  0.56910  0.50690  Biso   1.000  H
  H163     1.0000 0.72400  0.06910  0.99310  Biso   1.000  H
  H164     1.0000 0.77600  0.93090  0.49310  Biso   1.000  H
  H165     1.0000 0.77600  0.56910  0.99310  Biso   1.000  H
  H166     1.0000 0.72400  0.43090  0.49310  Biso   1.000  H
  H167     1.0000 0.27600  0.93090  0.00690  Biso   1.000  H
  H168     1.0000 0.22400  0.06910  0.50690  Biso   1.000  H
  H169     1.0000 0.17930  0.41900  0.07150  Biso   1.000  H
  H170     1.0000 0.32070  0.58100  0.57150  Biso   1.000  H
  H171     1.0000 0.67930  0.08100  0.92850  Biso   1.000  H
  H172     1.0000 0.82070  0.91900  0.42850  Biso   1.000  H
  H173     1.0000 0.82070  0.58100  0.92850  Biso   1.000  H
  H174     1.0000 0.67930  0.41900  0.42850  Biso   1.000  H
  H175     1.0000 0.32070  0.91900  0.07150  Biso   1.000  H
  H176     1.0000 0.17930  0.08100  0.57150  Biso   1.000  H
  H177     1.0000 0.97340  0.39680  0.04610  Biso   1.000  H
  H178     1.0000 0.52660  0.60320  0.54610  Biso   1.000  H
  H179     1.0000 0.47340  0.10320  0.95390  Biso   1.000  H
  H180     1.0000 0.02660  0.89680  0.45390  Biso   1.000  H
  H181     1.0000 0.02660  0.60320  0.95390  Biso   1.000  H
  H182     1.0000 0.47340  0.39680  0.45390  Biso   1.000  H
  H183     1.0000 0.52660  0.89680  0.04610  Biso   1.000  H
  H184     1.0000 0.97340  0.10320  0.54610  Biso   1.000  H
  H185     1.0000 0.15590  0.53490  0.97750  Biso   1.000  H
  H186     1.0000 0.34410  0.46510  0.47750  Biso   1.000  H
  H187     1.0000 0.65590  0.96510  0.02250  Biso   1.000  H
  H188     1.0000 0.84410  0.03490  0.52250  Biso   1.000  H
  H189     1.0000 0.84410  0.46510  0.02250  Biso   1.000  H
  H190     1.0000 0.65590  0.53490  0.52250  Biso   1.000  H
  H191     1.0000 0.34410  0.03490  0.97750  Biso   1.000  H
  H192     1.0000 0.15590  0.96510  0.47750  Biso   1.000  H
