data_image0
_cell_length_a       12.6601
_cell_length_b       16.2779
_cell_length_c       22.668
_cell_angle_alpha    90
_cell_angle_beta     90
_cell_angle_gamma    90

_symmetry_space_group_name_H-M    "P 1"
_symmetry_int_tables_number       1

loop_
  _symmetry_equiv_pos_as_xyz
  'x, y, z'

loop_
  _atom_site_label
  _atom_site_occupancy
  _atom_site_fract_x
  _atom_site_fract_y
  _atom_site_fract_z
  _atom_site_thermal_displace_type
  _atom_site_B_iso_or_equiv
  _atom_site_type_symbol
  Cu1      1.0000 0.38270  0.69344  0.68660  Biso   1.000  Cu
  Cu2      1.0000 0.38270  0.19344  0.81340  Biso   1.000  Cu
  Cu3      1.0000 0.61730  0.69344  0.18660  Biso   1.000  Cu
  Cu4      1.0000 0.61730  0.19344  0.31340  Biso   1.000  Cu
  Na1      1.0000 0.63610  0.72990  0.73480  Biso   1.000  Na
  Na2      1.0000 0.63610  0.22990  0.76520  Biso   1.000  Na
  Na3      1.0000 0.36390  0.72990  0.23480  Biso   1.000  Na
  Na4      1.0000 0.36390  0.22990  0.26520  Biso   1.000  Na
  O1       1.0000 0.52700  0.66530  0.66570  Biso   1.000  O
  O2       1.0000 0.52700  0.16530  0.83430  Biso   1.000  O
  O3       1.0000 0.47300  0.66530  0.16570  Biso   1.000  O
  O4       1.0000 0.47300  0.16530  0.33430  Biso   1.000  O
  C1       1.0000 0.55920  0.62400  0.62150  Biso   1.000  C
  C2       1.0000 0.55920  0.12400  0.87850  Biso   1.000  C
  C3       1.0000 0.44080  0.62400  0.12150  Biso   1.000  C
  C4       1.0000 0.44080  0.12400  0.37850  Biso   1.000  C
  C5       1.0000 0.67460  0.60650  0.61550  Biso   1.000  C
  C6       1.0000 0.67460  0.10650  0.88450  Biso   1.000  C
  C7       1.0000 0.32540  0.60650  0.11550  Biso   1.000  C
  C8       1.0000 0.32540  0.10650  0.38450  Biso   1.000  C
  C9       1.0000 0.70710  0.56570  0.56810  Biso   1.000  C
  C10      1.0000 0.70710  0.06570  0.93190  Biso   1.000  C
  C11      1.0000 0.29290  0.56570  0.06810  Biso   1.000  C
  C12      1.0000 0.29290  0.06570  0.43190  Biso   1.000  C
  H1       1.0000 0.77852  0.55249  0.56680  Biso   1.000  H
  H2       1.0000 0.77852  0.05249  0.93320  Biso   1.000  H
  H3       1.0000 0.22148  0.55249  0.06680  Biso   1.000  H
  H4       1.0000 0.22148  0.05249  0.43320  Biso   1.000  H
  C13      1.0000 0.65100  0.54240  0.52370  Biso   1.000  C
  C14      1.0000 0.65100  0.04240  0.97630  Biso   1.000  C
  C15      1.0000 0.34900  0.54240  0.02370  Biso   1.000  C
  C16      1.0000 0.34900  0.04240  0.47630  Biso   1.000  C
  H5       1.0000 0.68316  0.51773  0.49132  Biso   1.000  H
  H6       1.0000 0.68316  0.01773  0.00868  Biso   1.000  H
  H7       1.0000 0.31684  0.51773  0.99132  Biso   1.000  H
  H8       1.0000 0.31684  0.01773  0.50868  Biso   1.000  H
  C17      1.0000 0.54000  0.55480  0.52470  Biso   1.000  C
  C18      1.0000 0.54000  0.05480  0.97530  Biso   1.000  C
  C19      1.0000 0.46000  0.55480  0.02470  Biso   1.000  C
  C20      1.0000 0.46000  0.05480  0.47530  Biso   1.000  C
  H9       1.0000 0.49807  0.53522  0.49423  Biso   1.000  H
  H10      1.0000 0.49807  0.03522  0.00577  Biso   1.000  H
  H11      1.0000 0.50193  0.53522  0.99423  Biso   1.000  H
  H12      1.0000 0.50193  0.03522  0.50577  Biso   1.000  H
  C21      1.0000 0.49560  0.59680  0.57230  Biso   1.000  C
  C22      1.0000 0.49560  0.09680  0.92770  Biso   1.000  C
  C23      1.0000 0.50440  0.59680  0.07230  Biso   1.000  C
  C24      1.0000 0.50440  0.09680  0.42770  Biso   1.000  C
  C25      1.0000 0.38300  0.60680  0.57360  Biso   1.000  C
  C26      1.0000 0.38300  0.10680  0.92640  Biso   1.000  C
  C27      1.0000 0.61700  0.60680  0.07360  Biso   1.000  C
  C28      1.0000 0.61700  0.10680  0.42640  Biso   1.000  C
  H13      1.0000 0.34672  0.58992  0.54006  Biso   1.000  H
  H14      1.0000 0.34672  0.08992  0.95994  Biso   1.000  H
  H15      1.0000 0.65328  0.58992  0.04006  Biso   1.000  H
  H16      1.0000 0.65328  0.08992  0.45994  Biso   1.000  H
  N1       1.0000 0.32610  0.63650  0.61580  Biso   1.000  N
  N2       1.0000 0.32610  0.13650  0.88420  Biso   1.000  N
  N3       1.0000 0.67390  0.63650  0.11580  Biso   1.000  N
  N4       1.0000 0.67390  0.13650  0.38420  Biso   1.000  N
  C29      1.0000 0.21480  0.62900  0.60350  Biso   1.000  C
  C30      1.0000 0.21480  0.12900  0.89650  Biso   1.000  C
  C31      1.0000 0.78520  0.62900  0.10350  Biso   1.000  C
  C32      1.0000 0.78520  0.12900  0.39650  Biso   1.000  C
  C33      1.0000 0.14800  0.68750  0.70260  Biso   1.000  C
  C34      1.0000 0.14800  0.18750  0.79740  Biso   1.000  C
  C35      1.0000 0.85200  0.68750  0.20260  Biso   1.000  C
  C36      1.0000 0.85200  0.18750  0.29740  Biso   1.000  C
  H17      1.0000 0.20367  0.58276  0.57693  Biso   1.000  H
  H18      1.0000 0.20367  0.08276  0.92307  Biso   1.000  H
  H19      1.0000 0.79633  0.58276  0.07693  Biso   1.000  H
  H20      1.0000 0.79633  0.08276  0.42307  Biso   1.000  H
  H21      1.0000 0.18996  0.67804  0.58411  Biso   1.000  H
  H22      1.0000 0.18996  0.17804  0.91589  Biso   1.000  H
  H23      1.0000 0.81004  0.67804  0.08411  Biso   1.000  H
  H24      1.0000 0.81004  0.17804  0.41589  Biso   1.000  H
  C37      1.0000 0.15000  0.61500  0.66100  Biso   1.000  C
  C38      1.0000 0.15000  0.11500  0.83900  Biso   1.000  C
  C39      1.0000 0.85000  0.61500  0.16100  Biso   1.000  C
  C40      1.0000 0.85000  0.11500  0.33900  Biso   1.000  C
  H25      1.0000 0.07795  0.60093  0.65034  Biso   1.000  H
  H26      1.0000 0.07795  0.10093  0.84966  Biso   1.000  H
  H27      1.0000 0.92205  0.60093  0.15034  Biso   1.000  H
  H28      1.0000 0.92205  0.10093  0.34966  Biso   1.000  H
  H29      1.0000 0.17939  0.56773  0.68182  Biso   1.000  H
  H30      1.0000 0.17939  0.06773  0.81818  Biso   1.000  H
  H31      1.0000 0.82061  0.56773  0.18182  Biso   1.000  H
  H32      1.0000 0.82061  0.06773  0.31818  Biso   1.000  H
  H33      1.0000 0.10849  0.73101  0.68353  Biso   1.000  H
  H34      1.0000 0.10849  0.23101  0.81647  Biso   1.000  H
  H35      1.0000 0.89151  0.73101  0.18353  Biso   1.000  H
  H36      1.0000 0.89151  0.23101  0.31647  Biso   1.000  H
  H37      1.0000 0.10874  0.67144  0.73745  Biso   1.000  H
  H38      1.0000 0.10874  0.17144  0.76255  Biso   1.000  H
  H39      1.0000 0.89126  0.67144  0.23745  Biso   1.000  H
  H40      1.0000 0.89126  0.17144  0.26255  Biso   1.000  H
  N5       1.0000 0.24710  0.72190  0.72200  Biso   1.000  N
  N6       1.0000 0.24710  0.22190  0.77800  Biso   1.000  N
  N7       1.0000 0.75290  0.72190  0.22200  Biso   1.000  N
  N8       1.0000 0.75290  0.22190  0.27800  Biso   1.000  N
  C41      1.0000 0.24000  0.77060  0.76620  Biso   1.000  C
  C42      1.0000 0.24000  0.27060  0.73380  Biso   1.000  C
  C43      1.0000 0.76000  0.77060  0.26620  Biso   1.000  C
  C44      1.0000 0.76000  0.27060  0.23380  Biso   1.000  C
  H41      1.0000 0.17097  0.78010  0.77864  Biso   1.000  H
  H42      1.0000 0.17097  0.28010  0.72136  Biso   1.000  H
  H43      1.0000 0.82903  0.78010  0.27864  Biso   1.000  H
  H44      1.0000 0.82903  0.28010  0.22136  Biso   1.000  H
  C45      1.0000 0.31650  0.81210  0.79920  Biso   1.000  C
  C46      1.0000 0.31650  0.31210  0.70080  Biso   1.000  C
  C47      1.0000 0.68350  0.81210  0.29920  Biso   1.000  C
  C48      1.0000 0.68350  0.31210  0.20080  Biso   1.000  C
  C49      1.0000 0.28410  0.86310  0.84490  Biso   1.000  C
  C50      1.0000 0.28410  0.36310  0.65510  Biso   1.000  C
  C51      1.0000 0.71590  0.86310  0.34490  Biso   1.000  C
  C52      1.0000 0.71590  0.36310  0.15510  Biso   1.000  C
  H45      1.0000 0.21244  0.87031  0.85244  Biso   1.000  H
  H46      1.0000 0.21244  0.37031  0.64756  Biso   1.000  H
  H47      1.0000 0.78756  0.87031  0.35244  Biso   1.000  H
  H48      1.0000 0.78756  0.37031  0.14756  Biso   1.000  H
  C53      1.0000 0.35870  0.90320  0.87940  Biso   1.000  C
  C54      1.0000 0.35870  0.40320  0.62060  Biso   1.000  C
  C55      1.0000 0.64130  0.90320  0.37940  Biso   1.000  C
  C56      1.0000 0.64130  0.40320  0.12060  Biso   1.000  C
  H49      1.0000 0.33701  0.93736  0.91003  Biso   1.000  H
  H50      1.0000 0.33701  0.43736  0.58997  Biso   1.000  H
  H51      1.0000 0.66299  0.93736  0.41003  Biso   1.000  H
  H52      1.0000 0.66299  0.43736  0.08997  Biso   1.000  H
  C57      1.0000 0.46570  0.89240  0.86820  Biso   1.000  C
  C58      1.0000 0.46570  0.39240  0.63180  Biso   1.000  C
  C59      1.0000 0.53430  0.89240  0.36820  Biso   1.000  C
  C60      1.0000 0.53430  0.39240  0.13180  Biso   1.000  C
  H53      1.0000 0.51566  0.91929  0.89130  Biso   1.000  H
  H54      1.0000 0.51566  0.41929  0.60870  Biso   1.000  H
  H55      1.0000 0.48434  0.91929  0.39130  Biso   1.000  H
  H56      1.0000 0.48434  0.41929  0.10870  Biso   1.000  H
  C61      1.0000 0.49810  0.84140  0.82250  Biso   1.000  C
  C62      1.0000 0.49810  0.34140  0.67750  Biso   1.000  C
  C63      1.0000 0.50190  0.84140  0.32250  Biso   1.000  C
  C64      1.0000 0.50190  0.34140  0.17750  Biso   1.000  C
  C65      1.0000 0.42350  0.80120  0.78800  Biso   1.000  C
  C66      1.0000 0.42350  0.30120  0.71200  Biso   1.000  C
  C67      1.0000 0.57650  0.80120  0.28800  Biso   1.000  C
  C68      1.0000 0.57650  0.30120  0.21200  Biso   1.000  C
  O5       1.0000 0.45690  0.75430  0.74610  Biso   1.000  O
  O6       1.0000 0.45690  0.25430  0.75390  Biso   1.000  O
  O7       1.0000 0.54310  0.75430  0.24610  Biso   1.000  O
  O8       1.0000 0.54310  0.25430  0.25390  Biso   1.000  O
  O9       1.0000 0.72980  0.63750  0.66340  Biso   1.000  O
  O10      1.0000 0.72980  0.13750  0.83660  Biso   1.000  O
  O11      1.0000 0.27020  0.63750  0.16340  Biso   1.000  O
  O12      1.0000 0.27020  0.13750  0.33660  Biso   1.000  O
  C69      1.0000 0.84600  0.62360  0.66180  Biso   1.000  C
  C70      1.0000 0.84600  0.12360  0.83820  Biso   1.000  C
  C71      1.0000 0.15400  0.62360  0.16180  Biso   1.000  C
  C72      1.0000 0.15400  0.12360  0.33820  Biso   1.000  C
  H57      1.0000 0.85995  0.56572  0.66279  Biso   1.000  H
  H58      1.0000 0.85995  0.06572  0.83721  Biso   1.000  H
  H59      1.0000 0.14005  0.56572  0.16279  Biso   1.000  H
  H60      1.0000 0.14005  0.06572  0.33721  Biso   1.000  H
  H61      1.0000 0.87798  0.64952  0.69535  Biso   1.000  H
  H62      1.0000 0.87798  0.14952  0.80465  Biso   1.000  H
  H63      1.0000 0.12202  0.64952  0.19535  Biso   1.000  H
  H64      1.0000 0.12202  0.14952  0.30465  Biso   1.000  H
  H65      1.0000 0.87440  0.64671  0.62626  Biso   1.000  H
  H66      1.0000 0.87440  0.14671  0.87374  Biso   1.000  H
  H67      1.0000 0.12560  0.64671  0.12626  Biso   1.000  H
  H68      1.0000 0.12560  0.14671  0.37374  Biso   1.000  H
  O13      1.0000 0.60140  0.82530  0.81190  Biso   1.000  O
  O14      1.0000 0.60140  0.32530  0.68810  Biso   1.000  O
  O15      1.0000 0.39860  0.82530  0.31190  Biso   1.000  O
  O16      1.0000 0.39860  0.32530  0.18810  Biso   1.000  O
  C73      1.0000 0.67800  0.87260  0.83850  Biso   1.000  C
  C74      1.0000 0.67800  0.37260  0.66150  Biso   1.000  C
  C75      1.0000 0.32200  0.87260  0.33850  Biso   1.000  C
  C76      1.0000 0.32200  0.37260  0.16150  Biso   1.000  C
  H69      1.0000 0.72647  0.89241  0.80906  Biso   1.000  H
  H70      1.0000 0.72647  0.39241  0.69094  Biso   1.000  H
  H71      1.0000 0.27353  0.89241  0.30906  Biso   1.000  H
  H72      1.0000 0.27353  0.39241  0.19094  Biso   1.000  H
  H73      1.0000 0.71583  0.84002  0.86679  Biso   1.000  H
  H74      1.0000 0.71583  0.34002  0.63321  Biso   1.000  H
  H75      1.0000 0.28417  0.84002  0.36679  Biso   1.000  H
  H76      1.0000 0.28417  0.34002  0.13321  Biso   1.000  H
  H77      1.0000 0.64564  0.91842  0.85800  Biso   1.000  H
  H78      1.0000 0.64564  0.41842  0.64200  Biso   1.000  H
  H79      1.0000 0.35436  0.91842  0.35800  Biso   1.000  H
  H80      1.0000 0.35436  0.41842  0.14200  Biso   1.000  H
  Hg1      1.0000 0.91701  0.50017  0.90178  Biso   1.000  Hg
  Hg2      1.0000 0.91701  0.00017  0.59822  Biso   1.000  Hg
  Hg3      1.0000 0.08299  0.50017  0.40178  Biso   1.000  Hg
  Hg4      1.0000 0.08299  0.00017  0.09822  Biso   1.000  Hg
  N9       1.0000 0.77270  0.69500  0.80950  Biso   1.000  N
  N10      1.0000 0.77270  0.19500  0.69050  Biso   1.000  N
  N11      1.0000 0.22730  0.69500  0.30950  Biso   1.000  N
  N12      1.0000 0.22730  0.19500  0.19050  Biso   1.000  N
  C77      1.0000 0.84500  0.64100  0.80990  Biso   1.000  C
  C78      1.0000 0.84500  0.14100  0.69010  Biso   1.000  C
  C79      1.0000 0.15500  0.64100  0.30990  Biso   1.000  C
  C80      1.0000 0.15500  0.14100  0.19010  Biso   1.000  C
  S1       1.0000 0.96000  0.59820  0.81650  Biso   1.000  S
  S2       1.0000 0.96000  0.09820  0.68350  Biso   1.000  S
  S3       1.0000 0.04000  0.59820  0.31650  Biso   1.000  S
  S4       1.0000 0.04000  0.09820  0.18350  Biso   1.000  S
  N13      1.0000 0.76500  0.32990  0.79950  Biso   1.000  N
  N14      1.0000 0.76500  0.82990  0.70050  Biso   1.000  N
  N15      1.0000 0.23500  0.32990  0.29950  Biso   1.000  N
  N16      1.0000 0.23500  0.82990  0.20050  Biso   1.000  N
  C81      1.0000 0.84300  0.34350  0.82270  Biso   1.000  C
  C82      1.0000 0.84300  0.84350  0.67730  Biso   1.000  C
  C83      1.0000 0.15700  0.34350  0.32270  Biso   1.000  C
  C84      1.0000 0.15700  0.84350  0.17730  Biso   1.000  C
  S5       1.0000 0.96200  0.36240  0.85740  Biso   1.000  S
  S6       1.0000 0.96200  0.86240  0.64260  Biso   1.000  S
  S7       1.0000 0.03800  0.36240  0.35740  Biso   1.000  S
  S8       1.0000 0.03800  0.86240  0.14260  Biso   1.000  S
  Cl1      1.0000 0.04090  0.53870  0.98410  Biso   1.000  Cl
  Cl2      1.0000 0.04090  0.03870  0.51590  Biso   1.000  Cl
  Cl3      1.0000 0.95910  0.53870  0.48410  Biso   1.000  Cl
  Cl4      1.0000 0.95910  0.03870  0.01590  Biso   1.000  Cl
  Cl5      1.0000 0.73320  0.52400  0.93250  Biso   1.000  Cl
  Cl6      1.0000 0.73320  0.02400  0.56750  Biso   1.000  Cl
  Cl7      1.0000 0.26680  0.52400  0.43250  Biso   1.000  Cl
  Cl8      1.0000 0.26680  0.02400  0.06750  Biso   1.000  Cl
  Cu5      1.0000 0.40610  0.72617  0.95392  Biso   1.000  Cu
  Cu6      1.0000 0.40610  0.22617  0.54608  Biso   1.000  Cu
  Cu7      1.0000 0.59390  0.72617  0.45392  Biso   1.000  Cu
  Cu8      1.0000 0.59390  0.22617  0.04608  Biso   1.000  Cu
  Na5      1.0000 0.64080  0.67140  0.89050  Biso   1.000  Na
  Na6      1.0000 0.64080  0.17140  0.60950  Biso   1.000  Na
  Na7      1.0000 0.35920  0.67140  0.39050  Biso   1.000  Na
  Na8      1.0000 0.35920  0.17140  0.10950  Biso   1.000  Na
  O17      1.0000 0.46000  0.66190  0.88760  Biso   1.000  O
  O18      1.0000 0.46000  0.16190  0.61240  Biso   1.000  O
  O19      1.0000 0.54000  0.66190  0.38760  Biso   1.000  O
  O20      1.0000 0.54000  0.16190  0.11240  Biso   1.000  O
  C85      1.0000 0.40590  0.61300  0.85390  Biso   1.000  C
  C86      1.0000 0.40590  0.11300  0.64610  Biso   1.000  C
  C87      1.0000 0.59410  0.61300  0.35390  Biso   1.000  C
  C88      1.0000 0.59410  0.11300  0.14610  Biso   1.000  C
  C89      1.0000 0.46300  0.56810  0.80890  Biso   1.000  C
  C90      1.0000 0.46300  0.06810  0.69110  Biso   1.000  C
  C91      1.0000 0.53700  0.56810  0.30890  Biso   1.000  C
  C92      1.0000 0.53700  0.06810  0.19110  Biso   1.000  C
  C93      1.0000 0.40200  0.51370  0.77240  Biso   1.000  C
  C94      1.0000 0.40200  0.01370  0.72760  Biso   1.000  C
  C95      1.0000 0.59800  0.51370  0.27240  Biso   1.000  C
  C96      1.0000 0.59800  0.01370  0.22760  Biso   1.000  C
  H81      1.0000 0.43819  0.48048  0.74589  Biso   1.000  H
  H82      1.0000 0.43819  0.98048  0.75411  Biso   1.000  H
  H83      1.0000 0.56181  0.48048  0.24589  Biso   1.000  H
  H84      1.0000 0.56181  0.98048  0.25411  Biso   1.000  H
  C97      1.0000 0.29690  0.50760  0.77380  Biso   1.000  C
  C98      1.0000 0.29690  0.00760  0.72620  Biso   1.000  C
  C99      1.0000 0.70310  0.50760  0.27380  Biso   1.000  C
  C100     1.0000 0.70310  0.00760  0.22620  Biso   1.000  C
  H85      1.0000 0.26017  0.47258  0.74867  Biso   1.000  H
  H86      1.0000 0.26017  0.97258  0.75133  Biso   1.000  H
  H87      1.0000 0.73983  0.47258  0.24867  Biso   1.000  H
  H88      1.0000 0.73983  0.97258  0.25133  Biso   1.000  H
  C101     1.0000 0.25000  0.55280  0.81180  Biso   1.000  C
  C102     1.0000 0.25000  0.05280  0.68820  Biso   1.000  C
  C103     1.0000 0.75000  0.55280  0.31180  Biso   1.000  C
  C104     1.0000 0.75000  0.05280  0.18820  Biso   1.000  C
  H89      1.0000 0.17628  0.55190  0.81033  Biso   1.000  H
  H90      1.0000 0.17628  0.05190  0.68967  Biso   1.000  H
  H91      1.0000 0.82372  0.55190  0.31033  Biso   1.000  H
  H92      1.0000 0.82372  0.05190  0.18967  Biso   1.000  H
  C105     1.0000 0.29400  0.60360  0.85530  Biso   1.000  C
  C106     1.0000 0.29400  0.10360  0.64470  Biso   1.000  C
  C107     1.0000 0.70600  0.60360  0.35530  Biso   1.000  C
  C108     1.0000 0.70600  0.10360  0.14470  Biso   1.000  C
  C109     1.0000 0.22700  0.65440  0.89110  Biso   1.000  C
  C110     1.0000 0.22700  0.15440  0.60890  Biso   1.000  C
  C111     1.0000 0.77300  0.65440  0.39110  Biso   1.000  C
  C112     1.0000 0.77300  0.15440  0.10890  Biso   1.000  C
  H93      1.0000 0.15492  0.65020  0.88393  Biso   1.000  H
  H94      1.0000 0.15492  0.15020  0.61607  Biso   1.000  H
  H95      1.0000 0.84508  0.65020  0.38393  Biso   1.000  H
  H96      1.0000 0.84508  0.15020  0.11607  Biso   1.000  H
  N17      1.0000 0.25500  0.70520  0.93210  Biso   1.000  N
  N18      1.0000 0.25500  0.20520  0.56790  Biso   1.000  N
  N19      1.0000 0.74500  0.70520  0.43210  Biso   1.000  N
  N20      1.0000 0.74500  0.20520  0.06790  Biso   1.000  N
  C113     1.0000 0.16590  0.74400  0.95910  Biso   1.000  C
  C114     1.0000 0.16590  0.24400  0.54090  Biso   1.000  C
  C115     1.0000 0.83410  0.74400  0.45910  Biso   1.000  C
  C116     1.0000 0.83410  0.24400  0.04090  Biso   1.000  C
  H97      1.0000 0.12884  0.70356  0.98274  Biso   1.000  H
  H98      1.0000 0.12884  0.20356  0.51726  Biso   1.000  H
  H99      1.0000 0.87116  0.70356  0.48274  Biso   1.000  H
  H100     1.0000 0.87116  0.20356  0.01726  Biso   1.000  H
  H101     1.0000 0.11806  0.76209  0.92831  Biso   1.000  H
  H102     1.0000 0.11806  0.26209  0.57169  Biso   1.000  H
  H103     1.0000 0.88194  0.76209  0.42831  Biso   1.000  H
  H104     1.0000 0.88194  0.26209  0.07169  Biso   1.000  H
  C117     1.0000 0.19300  0.81900  0.99900  Biso   1.000  C
  C118     1.0000 0.19300  0.31900  0.50100  Biso   1.000  C
  C119     1.0000 0.80700  0.81900  0.49900  Biso   1.000  C
  C120     1.0000 0.80700  0.31900  0.00100  Biso   1.000  C
  H105     1.0000 0.22107  0.86251  0.97437  Biso   1.000  H
  H106     1.0000 0.22107  0.36251  0.52563  Biso   1.000  H
  H107     1.0000 0.77893  0.86251  0.47437  Biso   1.000  H
  H108     1.0000 0.77893  0.36251  0.02563  Biso   1.000  H
  H109     1.0000 0.12796  0.83920  0.01657  Biso   1.000  H
  H110     1.0000 0.12796  0.33920  0.48343  Biso   1.000  H
  H111     1.0000 0.87204  0.83920  0.51657  Biso   1.000  H
  H112     1.0000 0.87204  0.33920  0.98343  Biso   1.000  H
  C121     1.0000 0.26000  0.80410  0.04120  Biso   1.000  C
  C122     1.0000 0.26000  0.30410  0.45880  Biso   1.000  C
  C123     1.0000 0.74000  0.80410  0.54120  Biso   1.000  C
  C124     1.0000 0.74000  0.30410  0.95880  Biso   1.000  C
  H113     1.0000 0.23636  0.75540  0.06196  Biso   1.000  H
  H114     1.0000 0.23636  0.25540  0.43804  Biso   1.000  H
  H115     1.0000 0.76364  0.75540  0.56196  Biso   1.000  H
  H116     1.0000 0.76364  0.25540  0.93804  Biso   1.000  H
  H117     1.0000 0.25682  0.84940  0.06894  Biso   1.000  H
  H118     1.0000 0.25682  0.34940  0.43106  Biso   1.000  H
  H119     1.0000 0.74318  0.84940  0.56894  Biso   1.000  H
  H120     1.0000 0.74318  0.34940  0.93106  Biso   1.000  H
  N21      1.0000 0.37400  0.79130  0.02570  Biso   1.000  N
  N22      1.0000 0.37400  0.29130  0.47430  Biso   1.000  N
  N23      1.0000 0.62600  0.79130  0.52570  Biso   1.000  N
  N24      1.0000 0.62600  0.29130  0.97430  Biso   1.000  N
  C125     1.0000 0.44300  0.82440  0.05740  Biso   1.000  C
  C126     1.0000 0.44300  0.32440  0.44260  Biso   1.000  C
  C127     1.0000 0.55700  0.82440  0.55740  Biso   1.000  C
  C128     1.0000 0.55700  0.32440  0.94260  Biso   1.000  C
  H121     1.0000 0.41636  0.85181  0.09032  Biso   1.000  H
  H122     1.0000 0.41636  0.35181  0.40968  Biso   1.000  H
  H123     1.0000 0.58364  0.85181  0.59032  Biso   1.000  H
  H124     1.0000 0.58364  0.35181  0.90968  Biso   1.000  H
  C129     1.0000 0.55200  0.82660  0.05130  Biso   1.000  C
  C130     1.0000 0.55200  0.32660  0.44870  Biso   1.000  C
  C131     1.0000 0.44800  0.82660  0.55130  Biso   1.000  C
  C132     1.0000 0.44800  0.32660  0.94870  Biso   1.000  C
  C133     1.0000 0.61900  0.86610  0.09280  Biso   1.000  C
  C134     1.0000 0.61900  0.36610  0.40720  Biso   1.000  C
  C135     1.0000 0.38100  0.86610  0.59280  Biso   1.000  C
  C136     1.0000 0.38100  0.36610  0.90720  Biso   1.000  C
  H125     1.0000 0.58555  0.89078  0.12486  Biso   1.000  H
  H126     1.0000 0.58555  0.39078  0.37514  Biso   1.000  H
  H127     1.0000 0.41445  0.89078  0.62486  Biso   1.000  H
  H128     1.0000 0.41445  0.39078  0.87514  Biso   1.000  H
  C137     1.0000 0.73300  0.87200  0.09080  Biso   1.000  C
  C138     1.0000 0.73300  0.37200  0.40920  Biso   1.000  C
  C139     1.0000 0.26700  0.87200  0.59080  Biso   1.000  C
  C140     1.0000 0.26700  0.37200  0.90920  Biso   1.000  C
  H129     1.0000 0.77255  0.89761  0.12030  Biso   1.000  H
  H130     1.0000 0.77255  0.39761  0.37970  Biso   1.000  H
  H131     1.0000 0.22745  0.89761  0.62030  Biso   1.000  H
  H132     1.0000 0.22745  0.39761  0.87970  Biso   1.000  H
  C141     1.0000 0.77900  0.83650  0.04010  Biso   1.000  C
  C142     1.0000 0.77900  0.33650  0.45990  Biso   1.000  C
  C143     1.0000 0.22100  0.83650  0.54010  Biso   1.000  C
  C144     1.0000 0.22100  0.33650  0.95990  Biso   1.000  C
  H133     1.0000 0.85140  0.84347  0.03397  Biso   1.000  H
  H134     1.0000 0.85140  0.34347  0.46603  Biso   1.000  H
  H135     1.0000 0.14860  0.84347  0.53397  Biso   1.000  H
  H136     1.0000 0.14860  0.34347  0.96603  Biso   1.000  H
  C145     1.0000 0.72300  0.79220  0.99990  Biso   1.000  C
  C146     1.0000 0.72300  0.29220  0.50010  Biso   1.000  C
  C147     1.0000 0.27700  0.79220  0.49990  Biso   1.000  C
  C148     1.0000 0.27700  0.29220  0.00010  Biso   1.000  C
  C149     1.0000 0.61300  0.78800  0.00420  Biso   1.000  C
  C150     1.0000 0.61300  0.28800  0.49580  Biso   1.000  C
  C151     1.0000 0.38700  0.78800  0.50420  Biso   1.000  C
  C152     1.0000 0.38700  0.28800  0.99580  Biso   1.000  C
  O21      1.0000 0.55580  0.74470  0.96350  Biso   1.000  O
  O22      1.0000 0.55580  0.24470  0.53650  Biso   1.000  O
  O23      1.0000 0.44420  0.74470  0.46350  Biso   1.000  O
  O24      1.0000 0.44420  0.24470  0.03650  Biso   1.000  O
  O25      1.0000 0.57330  0.58090  0.81140  Biso   1.000  O
  O26      1.0000 0.57330  0.08090  0.68860  Biso   1.000  O
  O27      1.0000 0.42670  0.58090  0.31140  Biso   1.000  O
  O28      1.0000 0.42670  0.08090  0.18860  Biso   1.000  O
  C153     1.0000 0.63860  0.52290  0.77940  Biso   1.000  C
  C154     1.0000 0.63860  0.02290  0.72060  Biso   1.000  C
  C155     1.0000 0.36140  0.52290  0.27940  Biso   1.000  C
  C156     1.0000 0.36140  0.02290  0.22060  Biso   1.000  C
  H137     1.0000 0.61266  0.46818  0.78587  Biso   1.000  H
  H138     1.0000 0.61266  0.96818  0.71413  Biso   1.000  H
  H139     1.0000 0.38734  0.46818  0.28587  Biso   1.000  H
  H140     1.0000 0.38734  0.96818  0.21413  Biso   1.000  H
  H141     1.0000 0.71012  0.52672  0.79316  Biso   1.000  H
  H142     1.0000 0.71012  0.02672  0.70684  Biso   1.000  H
  H143     1.0000 0.28988  0.52672  0.29316  Biso   1.000  H
  H144     1.0000 0.28988  0.02672  0.20684  Biso   1.000  H
  H145     1.0000 0.63619  0.53526  0.73802  Biso   1.000  H
  H146     1.0000 0.63619  0.03526  0.76198  Biso   1.000  H
  H147     1.0000 0.36381  0.53526  0.23802  Biso   1.000  H
  H148     1.0000 0.36381  0.03526  0.26198  Biso   1.000  H
  O29      1.0000 0.76230  0.75180  0.95370  Biso   1.000  O
  O30      1.0000 0.76230  0.25180  0.54630  Biso   1.000  O
  O31      1.0000 0.23770  0.75180  0.45370  Biso   1.000  O
  O32      1.0000 0.23770  0.25180  0.04630  Biso   1.000  O
  C157     1.0000 0.87060  0.74890  0.95130  Biso   1.000  C
  C158     1.0000 0.87060  0.24890  0.54870  Biso   1.000  C
  C159     1.0000 0.12940  0.74890  0.45130  Biso   1.000  C
  C160     1.0000 0.12940  0.24890  0.04870  Biso   1.000  C
  H149     1.0000 0.89674  0.79764  0.93254  Biso   1.000  H
  H150     1.0000 0.89674  0.29764  0.56746  Biso   1.000  H
  H151     1.0000 0.10326  0.79764  0.43254  Biso   1.000  H
  H152     1.0000 0.10326  0.29764  0.06746  Biso   1.000  H
  H153     1.0000 0.89218  0.70151  0.92918  Biso   1.000  H
  H154     1.0000 0.89218  0.20151  0.57082  Biso   1.000  H
  H155     1.0000 0.10782  0.70151  0.42918  Biso   1.000  H
  H156     1.0000 0.10782  0.20151  0.07082  Biso   1.000  H
  H157     1.0000 0.89852  0.74541  0.99063  Biso   1.000  H
  H158     1.0000 0.89852  0.24541  0.50937  Biso   1.000  H
  H159     1.0000 0.10148  0.74541  0.49063  Biso   1.000  H
  H160     1.0000 0.10148  0.24541  0.00937  Biso   1.000  H
  H161     1.0000 0.19546  0.57213  0.61185  Biso   1.000  H
  H162     1.0000 0.19546  0.07213  0.88815  Biso   1.000  H
  H163     1.0000 0.80454  0.57213  0.11185  Biso   1.000  H
  H164     1.0000 0.80454  0.07213  0.38815  Biso   1.000  H
  H165     1.0000 0.20563  0.63670  0.56147  Biso   1.000  H
  H166     1.0000 0.20563  0.13670  0.93853  Biso   1.000  H
  H167     1.0000 0.79437  0.63670  0.06147  Biso   1.000  H
  H168     1.0000 0.79437  0.13670  0.43853  Biso   1.000  H
  C161     1.0000 0.13400  0.68300  0.63470  Biso   1.000  C
  C162     1.0000 0.13400  0.18300  0.86530  Biso   1.000  C
  C163     1.0000 0.86600  0.68300  0.13470  Biso   1.000  C
  C164     1.0000 0.86600  0.18300  0.36530  Biso   1.000  C
  H169     1.0000 0.06377  0.66326  0.62601  Biso   1.000  H
  H170     1.0000 0.06377  0.16326  0.87399  Biso   1.000  H
  H171     1.0000 0.93623  0.66326  0.12601  Biso   1.000  H
  H172     1.0000 0.93623  0.16326  0.37399  Biso   1.000  H
  H173     1.0000 0.13955  0.73863  0.61882  Biso   1.000  H
  H174     1.0000 0.13955  0.23863  0.88118  Biso   1.000  H
  H175     1.0000 0.86045  0.73863  0.11882  Biso   1.000  H
  H176     1.0000 0.86045  0.23863  0.38118  Biso   1.000  H
  H177     1.0000 0.09108  0.72003  0.71902  Biso   1.000  H
  H178     1.0000 0.09108  0.22003  0.78098  Biso   1.000  H
  H179     1.0000 0.90892  0.72003  0.21902  Biso   1.000  H
  H180     1.0000 0.90892  0.22003  0.28098  Biso   1.000  H
  H181     1.0000 0.14180  0.63236  0.71844  Biso   1.000  H
  H182     1.0000 0.14180  0.13236  0.78156  Biso   1.000  H
  H183     1.0000 0.85820  0.63236  0.21844  Biso   1.000  H
  H184     1.0000 0.85820  0.13236  0.28156  Biso   1.000  H
