data_image0
_cell_length_a       23.888
_cell_length_b       22.627
_cell_length_c       5.1561
_cell_angle_alpha    90
_cell_angle_beta     90
_cell_angle_gamma    90

_symmetry_space_group_name_H-M    "P 1"
_symmetry_int_tables_number       1

loop_
  _symmetry_equiv_pos_as_xyz
  'x, y, z'

loop_
  _atom_site_label
  _atom_site_occupancy
  _atom_site_fract_x
  _atom_site_fract_y
  _atom_site_fract_z
  _atom_site_thermal_displace_type
  _atom_site_B_iso_or_equiv
  _atom_site_type_symbol
  C1       1.0000 0.86366  0.11097  0.95371  Biso   1.000  C
  C2       1.0000 0.13634  0.88903  0.95371  Biso   1.000  C
  C3       1.0000 0.13634  0.38903  0.45371  Biso   1.000  C
  C4       1.0000 0.38634  0.36097  0.20371  Biso   1.000  C
  C5       1.0000 0.38634  0.86097  0.70371  Biso   1.000  C
  C6       1.0000 0.63634  0.88903  0.45371  Biso   1.000  C
  C7       1.0000 0.63634  0.38903  0.95371  Biso   1.000  C
  C8       1.0000 0.88634  0.36097  0.70371  Biso   1.000  C
  C9       1.0000 0.88634  0.86097  0.20371  Biso   1.000  C
  C10      1.0000 0.86366  0.61097  0.45371  Biso   1.000  C
  C11      1.0000 0.11366  0.13903  0.20371  Biso   1.000  C
  C12      1.0000 0.11366  0.63903  0.70371  Biso   1.000  C
  C13      1.0000 0.36366  0.11097  0.45371  Biso   1.000  C
  C14      1.0000 0.36366  0.61097  0.95371  Biso   1.000  C
  C15      1.0000 0.61366  0.13903  0.70371  Biso   1.000  C
  C16      1.0000 0.61366  0.63903  0.20371  Biso   1.000  C
  C17      1.0000 0.85510  0.06671  0.77971  Biso   1.000  C
  C18      1.0000 0.14490  0.93329  0.77971  Biso   1.000  C
  C19      1.0000 0.14490  0.43329  0.27971  Biso   1.000  C
  C20      1.0000 0.39490  0.31671  0.02971  Biso   1.000  C
  C21      1.0000 0.39490  0.81671  0.52971  Biso   1.000  C
  C22      1.0000 0.64490  0.93329  0.27971  Biso   1.000  C
  C23      1.0000 0.64490  0.43329  0.77971  Biso   1.000  C
  C24      1.0000 0.89490  0.31671  0.52971  Biso   1.000  C
  C25      1.0000 0.89490  0.81671  0.02971  Biso   1.000  C
  C26      1.0000 0.85510  0.56671  0.27971  Biso   1.000  C
  C27      1.0000 0.10510  0.18329  0.02971  Biso   1.000  C
  C28      1.0000 0.10510  0.68329  0.52971  Biso   1.000  C
  C29      1.0000 0.35510  0.06671  0.27971  Biso   1.000  C
  C30      1.0000 0.35510  0.56671  0.77971  Biso   1.000  C
  C31      1.0000 0.60510  0.18329  0.52971  Biso   1.000  C
  C32      1.0000 0.60510  0.68329  0.02971  Biso   1.000  C
  N1       1.0000 0.89719  0.02674  0.80747  Biso   1.000  N
  N2       1.0000 0.10281  0.97326  0.80747  Biso   1.000  N
  N3       1.0000 0.10281  0.47326  0.30747  Biso   1.000  N
  N4       1.0000 0.35281  0.27674  0.05747  Biso   1.000  N
  N5       1.0000 0.35281  0.77674  0.55747  Biso   1.000  N
  N6       1.0000 0.60281  0.97326  0.30747  Biso   1.000  N
  N7       1.0000 0.60281  0.47326  0.80747  Biso   1.000  N
  N8       1.0000 0.85281  0.27674  0.55747  Biso   1.000  N
  N9       1.0000 0.85281  0.77674  0.05747  Biso   1.000  N
  N10      1.0000 0.89719  0.52674  0.30747  Biso   1.000  N
  N11      1.0000 0.14719  0.22326  0.05747  Biso   1.000  N
  N12      1.0000 0.14719  0.72326  0.55747  Biso   1.000  N
  N13      1.0000 0.39719  0.02674  0.30747  Biso   1.000  N
  N14      1.0000 0.39719  0.52674  0.80747  Biso   1.000  N
  N15      1.0000 0.64719  0.22326  0.55747  Biso   1.000  N
  N16      1.0000 0.64719  0.72326  0.05747  Biso   1.000  N
  N17      1.0000 0.93177  0.04629  0.99863  Biso   1.000  N
  N18      1.0000 0.06823  0.95371  0.99863  Biso   1.000  N
  N19      1.0000 0.06823  0.45371  0.49863  Biso   1.000  N
  N20      1.0000 0.31823  0.29629  0.24863  Biso   1.000  N
  N21      1.0000 0.31823  0.79629  0.74863  Biso   1.000  N
  N22      1.0000 0.56823  0.95371  0.49863  Biso   1.000  N
  N23      1.0000 0.56823  0.45371  0.99863  Biso   1.000  N
  N24      1.0000 0.81823  0.29629  0.74863  Biso   1.000  N
  N25      1.0000 0.81823  0.79629  0.24863  Biso   1.000  N
  N26      1.0000 0.93177  0.54629  0.49863  Biso   1.000  N
  N27      1.0000 0.18177  0.20371  0.24863  Biso   1.000  N
  N28      1.0000 0.18177  0.70371  0.74863  Biso   1.000  N
  N29      1.0000 0.43177  0.04629  0.49863  Biso   1.000  N
  N30      1.0000 0.43177  0.54629  0.99863  Biso   1.000  N
  N31      1.0000 0.68177  0.20371  0.74863  Biso   1.000  N
  N32      1.0000 0.68177  0.70371  0.24863  Biso   1.000  N
  C33      1.0000 0.91105  0.09835  0.08901  Biso   1.000  C
  C34      1.0000 0.08895  0.90165  0.08901  Biso   1.000  C
  C35      1.0000 0.08895  0.40165  0.58901  Biso   1.000  C
  C36      1.0000 0.33895  0.34835  0.33901  Biso   1.000  C
  C37      1.0000 0.33895  0.84835  0.83901  Biso   1.000  C
  C38      1.0000 0.58895  0.90165  0.58901  Biso   1.000  C
  C39      1.0000 0.58895  0.40165  0.08901  Biso   1.000  C
  C40      1.0000 0.83895  0.34835  0.83901  Biso   1.000  C
  C41      1.0000 0.83895  0.84835  0.33901  Biso   1.000  C
  C42      1.0000 0.91105  0.59835  0.58901  Biso   1.000  C
  C43      1.0000 0.16105  0.15165  0.33901  Biso   1.000  C
  C44      1.0000 0.16105  0.65165  0.83901  Biso   1.000  C
  C45      1.0000 0.41105  0.09835  0.58901  Biso   1.000  C
  C46      1.0000 0.41105  0.59835  0.08901  Biso   1.000  C
  C47      1.0000 0.66105  0.15165  0.83901  Biso   1.000  C
  C48      1.0000 0.66105  0.65165  0.33901  Biso   1.000  C
  C49      1.0000 0.80833  0.06275  0.59347  Biso   1.000  C
  C50      1.0000 0.19167  0.93725  0.59347  Biso   1.000  C
  C51      1.0000 0.19167  0.43725  0.09347  Biso   1.000  C
  C52      1.0000 0.44167  0.31275  0.84347  Biso   1.000  C
  C53      1.0000 0.44167  0.81275  0.34347  Biso   1.000  C
  C54      1.0000 0.69167  0.93725  0.09347  Biso   1.000  C
  C55      1.0000 0.69167  0.43725  0.59347  Biso   1.000  C
  C56      1.0000 0.94167  0.31275  0.34347  Biso   1.000  C
  C57      1.0000 0.94167  0.81275  0.84347  Biso   1.000  C
  C58      1.0000 0.80833  0.56275  0.09347  Biso   1.000  C
  C59      1.0000 0.05833  0.18725  0.84347  Biso   1.000  C
  C60      1.0000 0.05833  0.68725  0.34347  Biso   1.000  C
  C61      1.0000 0.30833  0.06275  0.09347  Biso   1.000  C
  C62      1.0000 0.30833  0.56275  0.59347  Biso   1.000  C
  C63      1.0000 0.55833  0.18725  0.34347  Biso   1.000  C
  C64      1.0000 0.55833  0.68725  0.84347  Biso   1.000  C
  C65      1.0000 0.93566  0.13475  0.29732  Biso   1.000  C
  C66      1.0000 0.06434  0.86525  0.29732  Biso   1.000  C
  C67      1.0000 0.06434  0.36525  0.79732  Biso   1.000  C
  C68      1.0000 0.31434  0.38475  0.54732  Biso   1.000  C
  C69      1.0000 0.31434  0.88475  0.04732  Biso   1.000  C
  C70      1.0000 0.56434  0.86525  0.79732  Biso   1.000  C
  C71      1.0000 0.56434  0.36525  0.29732  Biso   1.000  C
  C72      1.0000 0.81434  0.38475  0.04732  Biso   1.000  C
  C73      1.0000 0.81434  0.88475  0.54732  Biso   1.000  C
  C74      1.0000 0.93566  0.63475  0.79732  Biso   1.000  C
  C75      1.0000 0.18566  0.11525  0.54732  Biso   1.000  C
  C76      1.0000 0.18566  0.61525  0.04732  Biso   1.000  C
  C77      1.0000 0.43566  0.13475  0.79732  Biso   1.000  C
  C78      1.0000 0.43566  0.63475  0.29732  Biso   1.000  C
  C79      1.0000 0.68566  0.11525  0.04732  Biso   1.000  C
  C80      1.0000 0.68566  0.61525  0.54732  Biso   1.000  C
  C81      1.0000 0.82724  0.16433  0.99001  Biso   1.000  C
  C82      1.0000 0.17276  0.83567  0.99001  Biso   1.000  C
  C83      1.0000 0.17276  0.33567  0.49001  Biso   1.000  C
  C84      1.0000 0.42276  0.41433  0.24001  Biso   1.000  C
  C85      1.0000 0.42276  0.91433  0.74001  Biso   1.000  C
  C86      1.0000 0.67276  0.83567  0.49001  Biso   1.000  C
  C87      1.0000 0.67276  0.33567  0.99001  Biso   1.000  C
  C88      1.0000 0.92276  0.41433  0.74001  Biso   1.000  C
  C89      1.0000 0.92276  0.91433  0.24001  Biso   1.000  C
  C90      1.0000 0.82724  0.66433  0.49001  Biso   1.000  C
  C91      1.0000 0.07724  0.08567  0.24001  Biso   1.000  C
  C92      1.0000 0.07724  0.58567  0.74001  Biso   1.000  C
  C93      1.0000 0.32724  0.16433  0.49001  Biso   1.000  C
  C94      1.0000 0.32724  0.66433  0.99001  Biso   1.000  C
  C95      1.0000 0.57724  0.08567  0.74001  Biso   1.000  C
  C96      1.0000 0.57724  0.58567  0.24001  Biso   1.000  C
  O1       1.0000 0.83074  0.19412  0.19354  Biso   1.000  O
  O2       1.0000 0.16926  0.80588  0.19354  Biso   1.000  O
  O3       1.0000 0.16926  0.30588  0.69354  Biso   1.000  O
  O4       1.0000 0.41926  0.44412  0.44354  Biso   1.000  O
  O5       1.0000 0.41926  0.94412  0.94354  Biso   1.000  O
  O6       1.0000 0.66926  0.80588  0.69354  Biso   1.000  O
  O7       1.0000 0.66926  0.30588  0.19354  Biso   1.000  O
  O8       1.0000 0.91926  0.44412  0.94354  Biso   1.000  O
  O9       1.0000 0.91926  0.94412  0.44354  Biso   1.000  O
  O10      1.0000 0.83074  0.69412  0.69354  Biso   1.000  O
  O11      1.0000 0.08074  0.05588  0.44354  Biso   1.000  O
  O12      1.0000 0.08074  0.55588  0.94354  Biso   1.000  O
  O13      1.0000 0.33074  0.19412  0.69354  Biso   1.000  O
  O14      1.0000 0.33074  0.69412  0.19354  Biso   1.000  O
  O15      1.0000 0.58074  0.05588  0.94354  Biso   1.000  O
  O16      1.0000 0.58074  0.55588  0.44354  Biso   1.000  O
  O17      1.0000 0.79339  0.17901  0.81674  Biso   1.000  O
  O18      1.0000 0.20661  0.82099  0.81674  Biso   1.000  O
  O19      1.0000 0.20661  0.32099  0.31674  Biso   1.000  O
  O20      1.0000 0.45661  0.42901  0.06674  Biso   1.000  O
  O21      1.0000 0.45661  0.92901  0.56674  Biso   1.000  O
  O22      1.0000 0.70661  0.82099  0.31674  Biso   1.000  O
  O23      1.0000 0.70661  0.32099  0.81674  Biso   1.000  O
  O24      1.0000 0.95661  0.42901  0.56674  Biso   1.000  O
  O25      1.0000 0.95661  0.92901  0.06674  Biso   1.000  O
  O26      1.0000 0.79339  0.67901  0.31674  Biso   1.000  O
  O27      1.0000 0.04339  0.07099  0.06674  Biso   1.000  O
  O28      1.0000 0.04339  0.57099  0.56674  Biso   1.000  O
  O29      1.0000 0.29339  0.17901  0.31674  Biso   1.000  O
  O30      1.0000 0.29339  0.67901  0.81674  Biso   1.000  O
  O31      1.0000 0.54339  0.07099  0.56674  Biso   1.000  O
  O32      1.0000 0.54339  0.57099  0.06674  Biso   1.000  O
  H1       1.0000 0.82087  0.04405  0.43907  Biso   1.000  H
  H2       1.0000 0.17913  0.95595  0.43907  Biso   1.000  H
  H3       1.0000 0.17913  0.45595  0.93907  Biso   1.000  H
  H4       1.0000 0.42913  0.29405  0.68907  Biso   1.000  H
  H5       1.0000 0.42913  0.79405  0.18907  Biso   1.000  H
  H6       1.0000 0.67913  0.95595  0.93907  Biso   1.000  H
  H7       1.0000 0.67913  0.45595  0.43907  Biso   1.000  H
  H8       1.0000 0.92913  0.29405  0.18907  Biso   1.000  H
  H9       1.0000 0.92913  0.79405  0.68907  Biso   1.000  H
  H10      1.0000 0.82087  0.54405  0.93907  Biso   1.000  H
  H11      1.0000 0.07087  0.20595  0.68907  Biso   1.000  H
  H12      1.0000 0.07087  0.70595  0.18907  Biso   1.000  H
  H13      1.0000 0.32087  0.04405  0.93907  Biso   1.000  H
  H14      1.0000 0.32087  0.54405  0.43907  Biso   1.000  H
  H15      1.0000 0.57087  0.20595  0.18907  Biso   1.000  H
  H16      1.0000 0.57087  0.70595  0.68907  Biso   1.000  H
  H17      1.0000 0.77876  0.04031  0.66750  Biso   1.000  H
  H18      1.0000 0.22124  0.95969  0.66750  Biso   1.000  H
  H19      1.0000 0.22124  0.45969  0.16750  Biso   1.000  H
  H20      1.0000 0.47124  0.29031  0.91750  Biso   1.000  H
  H21      1.0000 0.47124  0.79031  0.41750  Biso   1.000  H
  H22      1.0000 0.72124  0.95969  0.16750  Biso   1.000  H
  H23      1.0000 0.72124  0.45969  0.66750  Biso   1.000  H
  H24      1.0000 0.97124  0.29031  0.41750  Biso   1.000  H
  H25      1.0000 0.97124  0.79031  0.91750  Biso   1.000  H
  H26      1.0000 0.77876  0.54031  0.16750  Biso   1.000  H
  H27      1.0000 0.02876  0.20969  0.91750  Biso   1.000  H
  H28      1.0000 0.02876  0.70969  0.41750  Biso   1.000  H
  H29      1.0000 0.27876  0.04031  0.16750  Biso   1.000  H
  H30      1.0000 0.27876  0.54031  0.66750  Biso   1.000  H
  H31      1.0000 0.52876  0.20969  0.41750  Biso   1.000  H
  H32      1.0000 0.52876  0.70969  0.91750  Biso   1.000  H
  H33      1.0000 0.79523  0.10135  0.55380  Biso   1.000  H
  H34      1.0000 0.20477  0.89865  0.55380  Biso   1.000  H
  H35      1.0000 0.20477  0.39865  0.05380  Biso   1.000  H
  H36      1.0000 0.45477  0.35135  0.80380  Biso   1.000  H
  H37      1.0000 0.45477  0.85135  0.30380  Biso   1.000  H
  H38      1.0000 0.70477  0.89865  0.05380  Biso   1.000  H
  H39      1.0000 0.70477  0.39865  0.55380  Biso   1.000  H
  H40      1.0000 0.95477  0.35135  0.30380  Biso   1.000  H
  H41      1.0000 0.95477  0.85135  0.80380  Biso   1.000  H
  H42      1.0000 0.79523  0.60135  0.05380  Biso   1.000  H
  H43      1.0000 0.04523  0.14865  0.80380  Biso   1.000  H
  H44      1.0000 0.04523  0.64865  0.30380  Biso   1.000  H
  H45      1.0000 0.29523  0.10135  0.05380  Biso   1.000  H
  H46      1.0000 0.29523  0.60135  0.55380  Biso   1.000  H
  H47      1.0000 0.54523  0.14865  0.30380  Biso   1.000  H
  H48      1.0000 0.54523  0.64865  0.80380  Biso   1.000  H
  H49      1.0000 0.97422  0.12535  0.31568  Biso   1.000  H
  H50      1.0000 0.02578  0.87465  0.31568  Biso   1.000  H
  H51      1.0000 0.02578  0.37465  0.81568  Biso   1.000  H
  H52      1.0000 0.27578  0.37535  0.56568  Biso   1.000  H
  H53      1.0000 0.27578  0.87535  0.06568  Biso   1.000  H
  H54      1.0000 0.52578  0.87465  0.81568  Biso   1.000  H
  H55      1.0000 0.52578  0.37465  0.31568  Biso   1.000  H
  H56      1.0000 0.77578  0.37535  0.06568  Biso   1.000  H
  H57      1.0000 0.77578  0.87535  0.56568  Biso   1.000  H
  H58      1.0000 0.97422  0.62535  0.81568  Biso   1.000  H
  H59      1.0000 0.22422  0.12465  0.56568  Biso   1.000  H
  H60      1.0000 0.22422  0.62465  0.06568  Biso   1.000  H
  H61      1.0000 0.47422  0.12535  0.81568  Biso   1.000  H
  H62      1.0000 0.47422  0.62535  0.31568  Biso   1.000  H
  H63      1.0000 0.72422  0.12465  0.06568  Biso   1.000  H
  H64      1.0000 0.72422  0.62465  0.56568  Biso   1.000  H
  H65      1.0000 0.93185  0.17540  0.25470  Biso   1.000  H
  H66      1.0000 0.06815  0.82460  0.25470  Biso   1.000  H
  H67      1.0000 0.06815  0.32460  0.75470  Biso   1.000  H
  H68      1.0000 0.31815  0.42540  0.50470  Biso   1.000  H
  H69      1.0000 0.31815  0.92540  0.00470  Biso   1.000  H
  H70      1.0000 0.56815  0.82460  0.75470  Biso   1.000  H
  H71      1.0000 0.56815  0.32460  0.25470  Biso   1.000  H
  H72      1.0000 0.81815  0.42540  0.00470  Biso   1.000  H
  H73      1.0000 0.81815  0.92540  0.50470  Biso   1.000  H
  H74      1.0000 0.93185  0.67540  0.75470  Biso   1.000  H
  H75      1.0000 0.18185  0.07460  0.50470  Biso   1.000  H
  H76      1.0000 0.18185  0.57460  0.00470  Biso   1.000  H
  H77      1.0000 0.43185  0.17540  0.75470  Biso   1.000  H
  H78      1.0000 0.43185  0.67540  0.25470  Biso   1.000  H
  H79      1.0000 0.68185  0.07460  0.00470  Biso   1.000  H
  H80      1.0000 0.68185  0.57460  0.50470  Biso   1.000  H
  H81      1.0000 0.91679  0.12698  0.45586  Biso   1.000  H
  H82      1.0000 0.08321  0.87302  0.45586  Biso   1.000  H
  H83      1.0000 0.08321  0.37302  0.95586  Biso   1.000  H
  H84      1.0000 0.33321  0.37698  0.70586  Biso   1.000  H
  H85      1.0000 0.33321  0.87698  0.20586  Biso   1.000  H
  H86      1.0000 0.58321  0.87302  0.95586  Biso   1.000  H
  H87      1.0000 0.58321  0.37302  0.45586  Biso   1.000  H
  H88      1.0000 0.83321  0.37698  0.20586  Biso   1.000  H
  H89      1.0000 0.83321  0.87698  0.70586  Biso   1.000  H
  H90      1.0000 0.91679  0.62698  0.95586  Biso   1.000  H
  H91      1.0000 0.16679  0.12302  0.70586  Biso   1.000  H
  H92      1.0000 0.16679  0.62302  0.20586  Biso   1.000  H
  H93      1.0000 0.41679  0.12698  0.95586  Biso   1.000  H
  H94      1.0000 0.41679  0.62698  0.45586  Biso   1.000  H
  H95      1.0000 0.66679  0.12302  0.20586  Biso   1.000  H
  H96      1.0000 0.66679  0.62302  0.70586  Biso   1.000  H
  H97      1.0000 0.90165  0.99137  0.71039  Biso   1.000  H
  H98      1.0000 0.09835  0.00863  0.71039  Biso   1.000  H
  H99      1.0000 0.09835  0.50863  0.21039  Biso   1.000  H
  H100     1.0000 0.34835  0.24137  0.96039  Biso   1.000  H
  H101     1.0000 0.34835  0.74137  0.46039  Biso   1.000  H
  H102     1.0000 0.59835  0.00863  0.21039  Biso   1.000  H
  H103     1.0000 0.59835  0.50863  0.71039  Biso   1.000  H
  H104     1.0000 0.84835  0.24137  0.46039  Biso   1.000  H
  H105     1.0000 0.84835  0.74137  0.96039  Biso   1.000  H
  H106     1.0000 0.90165  0.49137  0.21039  Biso   1.000  H
  H107     1.0000 0.15165  0.25863  0.96039  Biso   1.000  H
  H108     1.0000 0.15165  0.75863  0.46039  Biso   1.000  H
  H109     1.0000 0.40165  0.99137  0.21039  Biso   1.000  H
  H110     1.0000 0.40165  0.49137  0.71039  Biso   1.000  H
  H111     1.0000 0.65165  0.25863  0.46039  Biso   1.000  H
  H112     1.0000 0.65165  0.75863  0.96039  Biso   1.000  H
  Cu1      1.0000 0.00000  0.00000  0.07180  Biso   1.000  Cu
  Cu2      1.0000 0.00000  0.50000  0.57180  Biso   1.000  Cu
  Cu3      1.0000 0.25000  0.25000  0.32180  Biso   1.000  Cu
  Cu4      1.0000 0.25000  0.75000  0.82180  Biso   1.000  Cu
  Cu5      1.0000 0.50000  0.00000  0.57180  Biso   1.000  Cu
  Cu6      1.0000 0.50000  0.50000  0.07180  Biso   1.000  Cu
  Cu7      1.0000 0.75000  0.25000  0.82180  Biso   1.000  Cu
  Cu8      1.0000 0.75000  0.75000  0.32180  Biso   1.000  Cu
