data_image0
_cell_length_a       6.002
_cell_length_b       11.208
_cell_length_c       14.491
_cell_angle_alpha    70.095
_cell_angle_beta     89.414
_cell_angle_gamma    80.114

_symmetry_space_group_name_H-M    "P 1"
_symmetry_int_tables_number       1

loop_
  _symmetry_equiv_pos_as_xyz
  'x, y, z'

loop_
  _atom_site_label
  _atom_site_occupancy
  _atom_site_fract_x
  _atom_site_fract_y
  _atom_site_fract_z
  _atom_site_thermal_displace_type
  _atom_site_B_iso_or_equiv
  _atom_site_type_symbol
  C1       1.0000 0.20600  0.07800  0.35330  Biso   1.000  C
  C2       1.0000 0.79400  0.92200  0.64670  Biso   1.000  C
  H1       1.0000 0.22730  0.02360  0.31630  Biso   1.000  H
  H2       1.0000 0.77270  0.97640  0.68370  Biso   1.000  H
  C3       1.0000 0.24300  0.02600  0.45430  Biso   1.000  C
  C4       1.0000 0.75700  0.97400  0.54570  Biso   1.000  C
  H3       1.0000 0.28350  0.93780  0.48590  Biso   1.000  H
  H4       1.0000 0.71650  0.06220  0.51410  Biso   1.000  H
  C5       1.0000 0.21700  0.10900  0.50780  Biso   1.000  C
  C6       1.0000 0.78300  0.89100  0.49220  Biso   1.000  C
  H5       1.0000 0.24090  0.07480  0.57580  Biso   1.000  H
  H6       1.0000 0.75910  0.92520  0.42420  Biso   1.000  H
  C7       1.0000 0.15700  0.24200  0.46370  Biso   1.000  C
  C8       1.0000 0.84300  0.75800  0.53630  Biso   1.000  C
  H7       1.0000 0.14350  0.29660  0.50020  Biso   1.000  H
  H8       1.0000 0.85650  0.70340  0.49980  Biso   1.000  H
  C9       1.0000 0.12000  0.28900  0.36310  Biso   1.000  C
  C10      1.0000 0.88000  0.71100  0.63690  Biso   1.000  C
  H9       1.0000 0.07950  0.37720  0.33140  Biso   1.000  H
  H10      1.0000 0.92050  0.62280  0.66860  Biso   1.000  H
  C11      1.0000 0.13900  0.20900  0.30730  Biso   1.000  C
  C12      1.0000 0.86100  0.79100  0.69270  Biso   1.000  C
  C13      1.0000 0.11400  0.26220  0.19750  Biso   1.000  C
  C14      1.0000 0.88600  0.73780  0.80250  Biso   1.000  C
  H11      1.0000 0.99330  0.33680  0.17870  Biso   1.000  H
  H12      1.0000 0.00670  0.66320  0.82130  Biso   1.000  H
  H13      1.0000 0.06620  0.19790  0.17510  Biso   1.000  H
  H14      1.0000 0.93380  0.80210  0.82490  Biso   1.000  H
  C15      1.0000 0.39200  0.40910  0.16710  Biso   1.000  C
  C16      1.0000 0.60800  0.59090  0.83290  Biso   1.000  C
  H15      1.0000 0.55380  0.40650  0.16220  Biso   1.000  H
  H16      1.0000 0.44620  0.59350  0.83780  Biso   1.000  H
  H17      1.0000 0.35470  0.39990  0.23420  Biso   1.000  H
  H18      1.0000 0.64530  0.60010  0.76580  Biso   1.000  H
  C17      1.0000 0.50800  0.18890  0.15910  Biso   1.000  C
  C18      1.0000 0.49200  0.81110  0.84090  Biso   1.000  C
  H19      1.0000 0.51700  0.13540  0.22800  Biso   1.000  H
  H20      1.0000 0.48300  0.86460  0.77200  Biso   1.000  H
  H21      1.0000 0.65300  0.21660  0.14360  Biso   1.000  H
  H22      1.0000 0.34700  0.78340  0.85640  Biso   1.000  H
  C19      1.0000 0.40900  0.37600  0.71490  Biso   1.000  C
  C20      1.0000 0.59100  0.62400  0.28510  Biso   1.000  C
  H23      1.0000 0.29920  0.38340  0.75920  Biso   1.000  H
  H24      1.0000 0.70080  0.61660  0.24080  Biso   1.000  H
  C21      1.0000 0.37100  0.45900  0.61770  Biso   1.000  C
  C22      1.0000 0.62900  0.54100  0.38230  Biso   1.000  C
  H25      1.0000 0.23630  0.51900  0.59970  Biso   1.000  H
  H26      1.0000 0.76370  0.48100  0.40030  Biso   1.000  H
  C23      1.0000 0.51900  0.45600  0.55120  Biso   1.000  C
  C24      1.0000 0.48100  0.54400  0.44880  Biso   1.000  C
  C25      1.0000 0.69800  0.37100  0.58570  Biso   1.000  C
  C26      1.0000 0.30200  0.62900  0.41430  Biso   1.000  C
  H27      1.0000 0.81470  0.36330  0.54410  Biso   1.000  H
  H28      1.0000 0.18530  0.63670  0.45590  Biso   1.000  H
  C27      1.0000 0.72300  0.28800  0.68480  Biso   1.000  C
  C28      1.0000 0.27700  0.71200  0.31520  Biso   1.000  C
  H29      1.0000 0.85690  0.22830  0.70390  Biso   1.000  H
  H30      1.0000 0.14310  0.77170  0.29610  Biso   1.000  H
  Cu1      1.0000 0.22400  0.36452  0.99495  Biso   1.000  Cu
  Cu2      1.0000 0.77600  0.63548  0.00505  Biso   1.000  Cu
  Cu3      1.0000 0.65460  0.17602  0.88920  Biso   1.000  Cu
  Cu4      1.0000 0.34540  0.82398  0.11080  Biso   1.000  Cu
  N1       1.0000 0.32710  0.30310  0.14130  Biso   1.000  N
  N2       1.0000 0.67290  0.69690  0.85870  Biso   1.000  N
  N3       1.0000 0.58860  0.28860  0.74700  Biso   1.000  N
  N4       1.0000 0.41140  0.71140  0.25300  Biso   1.000  N
  O1       1.0000 0.22620  0.53910  0.98500  Biso   1.000  O
  O2       1.0000 0.77380  0.46090  0.01500  Biso   1.000  O
  O3       1.0000 0.99990  0.59090  0.11690  Biso   1.000  O
  O4       1.0000 0.00010  0.40910  0.88310  Biso   1.000  O
  O5       1.0000 0.38940  0.66270  0.07920  Biso   1.000  O
  O6       1.0000 0.61060  0.33730  0.92080  Biso   1.000  O
  O7       1.0000 0.25640  0.18590  0.01260  Biso   1.000  O
  O8       1.0000 0.74360  0.81410  0.98740  Biso   1.000  O
  O9       1.0000 0.66660  0.07460  0.02950  Biso   1.000  O
  O10      1.0000 0.33340  0.92540  0.97050  Biso   1.000  O
  O11      1.0000 0.39190  0.96930  0.14930  Biso   1.000  O
  O12      1.0000 0.60810  0.03070  0.85070  Biso   1.000  O
  O13      1.0000 0.02130  0.14080  0.87130  Biso   1.000  O
  O14      1.0000 0.97870  0.85920  0.12870  Biso   1.000  O
  H31      1.0000 0.07140  0.21130  0.85500  Biso   1.000  H
  H32      1.0000 0.92860  0.78870  0.14500  Biso   1.000  H
  H33      1.0000 0.05170  0.10660  0.82750  Biso   1.000  H
  H34      1.0000 0.94830  0.89340  0.17250  Biso   1.000  H
  P1       1.0000 0.24070  0.56210  0.08360  Biso   1.000  P
  P2       1.0000 0.75930  0.43790  0.91640  Biso   1.000  P
  P3       1.0000 0.45250  0.09570  0.08400  Biso   1.000  P
  P4       1.0000 0.54750  0.90430  0.91600  Biso   1.000  P
  O15      1.0000 0.23400  0.13300  0.69400  Biso   1.000  O
  O16      1.0000 0.76600  0.86700  0.30600  Biso   1.000  O
  H35      1.0000 0.13840  0.14500  0.73530  Biso   1.000  H
  H36      1.0000 0.86160  0.85500  0.26470  Biso   1.000  H
  H37      1.0000 0.36240  0.10230  0.72460  Biso   1.000  H
  H38      1.0000 0.63760  0.89770  0.27540  Biso   1.000  H
