data_image0
_cell_length_a       9.4945
_cell_length_b       10.7889
_cell_length_c       14.3384
_cell_angle_alpha    94.841
_cell_angle_beta     108.899
_cell_angle_gamma    107.353

_symmetry_space_group_name_H-M    "P 1"
_symmetry_int_tables_number       1

loop_
  _symmetry_equiv_pos_as_xyz
  'x, y, z'

loop_
  _atom_site_label
  _atom_site_occupancy
  _atom_site_fract_x
  _atom_site_fract_y
  _atom_site_fract_z
  _atom_site_thermal_displace_type
  _atom_site_B_iso_or_equiv
  _atom_site_type_symbol
  C1       1.0000 0.91010  0.57770  0.27720  Biso   1.000  C
  C2       1.0000 0.08990  0.42230  0.72280  Biso   1.000  C
  C3       1.0000 0.98340  0.49320  0.32250  Biso   1.000  C
  C4       1.0000 0.01660  0.50680  0.67750  Biso   1.000  C
  H1       1.0000 0.02090  0.50410  0.39380  Biso   1.000  H
  H2       1.0000 0.97910  0.49590  0.60620  Biso   1.000  H
  C5       1.0000 0.00330  0.39280  0.26620  Biso   1.000  C
  C6       1.0000 0.99670  0.60720  0.73380  Biso   1.000  C
  C7       1.0000 0.94440  0.37710  0.16120  Biso   1.000  C
  C8       1.0000 0.05560  0.62290  0.83880  Biso   1.000  C
  H3       1.0000 0.95630  0.30870  0.12150  Biso   1.000  H
  H4       1.0000 0.04370  0.69130  0.87850  Biso   1.000  H
  C9       1.0000 0.86930  0.45910  0.11430  Biso   1.000  C
  C10      1.0000 0.13070  0.54090  0.88570  Biso   1.000  C
  C11      1.0000 0.85280  0.56090  0.17240  Biso   1.000  C
  C12      1.0000 0.14720  0.43910  0.82760  Biso   1.000  C
  H5       1.0000 0.80280  0.61850  0.14060  Biso   1.000  H
  H6       1.0000 0.19720  0.38150  0.85940  Biso   1.000  H
  C13      1.0000 0.88340  0.68260  0.33920  Biso   1.000  C
  C14      1.0000 0.11660  0.31740  0.66080  Biso   1.000  C
  H7       1.0000 0.87420  0.75510  0.30230  Biso   1.000  H
  H8       1.0000 0.12580  0.24490  0.69770  Biso   1.000  H
  H9       1.0000 0.97560  0.72050  0.40330  Biso   1.000  H
  H10      1.0000 0.02440  0.27950  0.59670  Biso   1.000  H
  C15      1.0000 0.08750  0.30470  0.31810  Biso   1.000  C
  C16      1.0000 0.91250  0.69530  0.68190  Biso   1.000  C
  H11      1.0000 0.04910  0.21790  0.27230  Biso   1.000  H
  H12      1.0000 0.95090  0.78210  0.72770  Biso   1.000  H
  H13      1.0000 0.06180  0.28930  0.37870  Biso   1.000  H
  H14      1.0000 0.93820  0.71070  0.62130  Biso   1.000  H
  C17      1.0000 0.79200  0.43180  0.00070  Biso   1.000  C
  C18      1.0000 0.20800  0.56820  0.99930  Biso   1.000  C
  H15      1.0000 0.85560  0.39590  0.97070  Biso   1.000  H
  H16      1.0000 0.14440  0.60410  0.02930  Biso   1.000  H
  H17      1.0000 0.79150  0.51620  0.97850  Biso   1.000  H
  H18      1.0000 0.20850  0.48380  0.02150  Biso   1.000  H
  C19      1.0000 0.64200  0.24440  0.29390  Biso   1.000  C
  C20      1.0000 0.35800  0.75560  0.70610  Biso   1.000  C
  H19      1.0000 0.62500  0.32080  0.27110  Biso   1.000  H
  H20      1.0000 0.37500  0.67920  0.72890  Biso   1.000  H
  C21      1.0000 0.64830  0.14680  0.22820  Biso   1.000  C
  C22      1.0000 0.35170  0.85320  0.77180  Biso   1.000  C
  H21      1.0000 0.63450  0.15580  0.16080  Biso   1.000  H
  H22      1.0000 0.36550  0.84420  0.83920  Biso   1.000  H
  C23      1.0000 0.67460  0.03660  0.26040  Biso   1.000  C
  C24      1.0000 0.32540  0.96340  0.73960  Biso   1.000  C
  H23      1.0000 0.67930  0.96880  0.21590  Biso   1.000  H
  H24      1.0000 0.32070  0.03120  0.78410  Biso   1.000  H
  C25      1.0000 0.69420  0.02620  0.35900  Biso   1.000  C
  C26      1.0000 0.30580  0.97380  0.64100  Biso   1.000  C
  H25      1.0000 0.71460  0.95170  0.38340  Biso   1.000  H
  H26      1.0000 0.28540  0.04830  0.61660  Biso   1.000  H
  C27      1.0000 0.68380  0.12500  0.42180  Biso   1.000  C
  C28      1.0000 0.31620  0.87500  0.57820  Biso   1.000  C
  C29      1.0000 0.69550  0.12190  0.52640  Biso   1.000  C
  C30      1.0000 0.30450  0.87810  0.47360  Biso   1.000  C
  C31      1.0000 0.72520  0.02270  0.57580  Biso   1.000  C
  C32      1.0000 0.27480  0.97730  0.42420  Biso   1.000  C
  H27      1.0000 0.73950  0.95010  0.54260  Biso   1.000  H
  H28      1.0000 0.26050  0.04990  0.45740  Biso   1.000  H
  C33      1.0000 0.73370  0.03040  0.67490  Biso   1.000  C
  C34      1.0000 0.26630  0.96960  0.32510  Biso   1.000  C
  H29      1.0000 0.75390  0.96300  0.71020  Biso   1.000  H
  H30      1.0000 0.24610  0.03700  0.28980  Biso   1.000  H
  C35      1.0000 0.71260  0.13680  0.72150  Biso   1.000  C
  C36      1.0000 0.28740  0.86320  0.27850  Biso   1.000  C
  H31      1.0000 0.71740  0.14340  0.78900  Biso   1.000  H
  H32      1.0000 0.28260  0.85660  0.21100  Biso   1.000  H
  C37      1.0000 0.68430  0.23420  0.66850  Biso   1.000  C
  C38      1.0000 0.31570  0.76580  0.33150  Biso   1.000  C
  H33      1.0000 0.67130  0.30820  0.70100  Biso   1.000  H
  H34      1.0000 0.32870  0.69180  0.29900  Biso   1.000  H
  Cu1      1.0000 0.64538  0.36506  0.48967  Biso   1.000  Cu
  Cu2      1.0000 0.35462  0.63494  0.51033  Biso   1.000  Cu
  H35      1.0000 0.50200  0.34400  0.80800  Biso   1.000  H
  H36      1.0000 0.49800  0.65600  0.19200  Biso   1.000  H
  H37      1.0000 0.68000  0.73100  0.47890  Biso   1.000  H
  H38      1.0000 0.32000  0.26900  0.52110  Biso   1.000  H
  H39      1.0000 0.41100  0.42300  0.25700  Biso   1.000  H
  H40      1.0000 0.58900  0.57700  0.74300  Biso   1.000  H
  N1       1.0000 0.65930  0.23370  0.38940  Biso   1.000  N
  N2       1.0000 0.34070  0.76630  0.61060  Biso   1.000  N
  N3       1.0000 0.67470  0.22700  0.57290  Biso   1.000  N
  N4       1.0000 0.32530  0.77300  0.42710  Biso   1.000  N
  O1       1.0000 0.72690  0.51270  0.42920  Biso   1.000  O
  O2       1.0000 0.27310  0.48730  0.57080  Biso   1.000  O
  O3       1.0000 0.69380  0.73700  0.42400  Biso   1.000  O
  O4       1.0000 0.30620  0.26300  0.57600  Biso   1.000  O
  O5       1.0000 0.56820  0.55910  0.26440  Biso   1.000  O
  O6       1.0000 0.43180  0.44090  0.73560  Biso   1.000  O
  O7       1.0000 0.32550  0.36390  0.25130  Biso   1.000  O
  O8       1.0000 0.67450  0.63610  0.74870  Biso   1.000  O
  O9       1.0000 0.35620  0.52290  0.39878  Biso   1.000  O
  O10      1.0000 0.64380  0.47710  0.60122  Biso   1.000  O
  O11      1.0000 0.37760  0.29580  0.42055  Biso   1.000  O
  O12      1.0000 0.62240  0.70420  0.57945  Biso   1.000  O
  O13      1.0000 0.48860  0.37460  0.99360  Biso   1.000  O
  O14      1.0000 0.51140  0.62540  0.00640  Biso   1.000  O
  H41      1.0000 0.51110  0.45700  0.99360  Biso   1.000  H
  H42      1.0000 0.48890  0.54300  0.00640  Biso   1.000  H
  O15      1.0000 0.53360  0.28710  0.83870  Biso   1.000  O
  O16      1.0000 0.46640  0.71290  0.16130  Biso   1.000  O
  O17      1.0000 0.58970  0.18680  0.98860  Biso   1.000  O
  O18      1.0000 0.41030  0.81320  0.01140  Biso   1.000  O
  P1       1.0000 0.70635  0.61442  0.36552  Biso   1.000  P
  P2       1.0000 0.29365  0.38558  0.63448  Biso   1.000  P
  P3       1.0000 0.29962  0.37739  0.35437  Biso   1.000  P
  P4       1.0000 0.70038  0.62261  0.64563  Biso   1.000  P
  P5       1.0000 0.59190  0.31650  0.95511  Biso   1.000  P
  P6       1.0000 0.40810  0.68350  0.04489  Biso   1.000  P
