data_image0
_cell_length_a       10.4253
_cell_length_b       16.4866
_cell_length_c       14.6174
_cell_angle_alpha    90
_cell_angle_beta     105.992
_cell_angle_gamma    90

_symmetry_space_group_name_H-M    "P 1"
_symmetry_int_tables_number       1

loop_
  _symmetry_equiv_pos_as_xyz
  'x, y, z'

loop_
  _atom_site_label
  _atom_site_occupancy
  _atom_site_fract_x
  _atom_site_fract_y
  _atom_site_fract_z
  _atom_site_thermal_displace_type
  _atom_site_B_iso_or_equiv
  _atom_site_type_symbol
  C1       1.0000 0.76280  0.35752  0.05430  Biso   1.000  C
  C2       1.0000 0.73720  0.85752  0.44570  Biso   1.000  C
  C3       1.0000 0.23720  0.64248  0.94570  Biso   1.000  C
  C4       1.0000 0.26280  0.14248  0.55430  Biso   1.000  C
  H1       1.0000 0.67570  0.38260  0.05190  Biso   1.000  H
  H2       1.0000 0.82430  0.88260  0.44810  Biso   1.000  H
  H3       1.0000 0.32430  0.61740  0.94810  Biso   1.000  H
  H4       1.0000 0.17570  0.11740  0.55190  Biso   1.000  H
  H5       1.0000 0.74620  0.31440  0.00520  Biso   1.000  H
  H6       1.0000 0.75380  0.81440  0.49480  Biso   1.000  H
  H7       1.0000 0.25380  0.68560  0.99480  Biso   1.000  H
  H8       1.0000 0.24620  0.18560  0.50520  Biso   1.000  H
  C5       1.0000 0.76660  0.33865  0.39830  Biso   1.000  C
  C6       1.0000 0.73340  0.83865  0.10170  Biso   1.000  C
  C7       1.0000 0.23340  0.66135  0.60170  Biso   1.000  C
  C8       1.0000 0.26660  0.16135  0.89830  Biso   1.000  C
  H9       1.0000 0.75030  0.39770  0.38980  Biso   1.000  H
  H10      1.0000 0.74970  0.89770  0.11020  Biso   1.000  H
  H11      1.0000 0.24970  0.60230  0.61020  Biso   1.000  H
  H12      1.0000 0.25030  0.10230  0.88980  Biso   1.000  H
  H13      1.0000 0.83910  0.33110  0.45780  Biso   1.000  H
  H14      1.0000 0.66090  0.83110  0.04220  Biso   1.000  H
  H15      1.0000 0.16090  0.66890  0.54220  Biso   1.000  H
  H16      1.0000 0.33910  0.16890  0.95780  Biso   1.000  H
  C9       1.0000 0.81630  0.30860  0.31660  Biso   1.000  C
  C10      1.0000 0.68370  0.80860  0.18340  Biso   1.000  C
  C11      1.0000 0.18370  0.69140  0.68340  Biso   1.000  C
  C12      1.0000 0.31630  0.19140  0.81660  Biso   1.000  C
  C13      1.0000 0.91270  0.24745  0.32930  Biso   1.000  C
  C14      1.0000 0.58730  0.74745  0.17070  Biso   1.000  C
  C15      1.0000 0.08730  0.75255  0.67070  Biso   1.000  C
  C16      1.0000 0.41270  0.25255  0.82930  Biso   1.000  C
  H17      1.0000 0.94560  0.22310  0.39020  Biso   1.000  H
  H18      1.0000 0.55440  0.72310  0.10980  Biso   1.000  H
  H19      1.0000 0.05440  0.77690  0.60980  Biso   1.000  H
  H20      1.0000 0.44560  0.27690  0.89020  Biso   1.000  H
  C17      1.0000 0.96110  0.22181  0.25510  Biso   1.000  C
  C18      1.0000 0.53890  0.72181  0.24490  Biso   1.000  C
  C19      1.0000 0.03890  0.77819  0.74490  Biso   1.000  C
  C20      1.0000 0.46110  0.27819  0.75510  Biso   1.000  C
  C21      1.0000 0.91260  0.25773  0.16590  Biso   1.000  C
  C22      1.0000 0.58740  0.75773  0.33410  Biso   1.000  C
  C23      1.0000 0.08740  0.74227  0.83410  Biso   1.000  C
  C24      1.0000 0.41260  0.24227  0.66590  Biso   1.000  C
  H21      1.0000 0.94590  0.24070  0.11480  Biso   1.000  H
  H22      1.0000 0.55410  0.74070  0.38520  Biso   1.000  H
  H23      1.0000 0.05410  0.75930  0.88520  Biso   1.000  H
  H24      1.0000 0.44590  0.25930  0.61480  Biso   1.000  H
  C25      1.0000 0.81650  0.31796  0.15090  Biso   1.000  C
  C26      1.0000 0.68350  0.81796  0.34910  Biso   1.000  C
  C27      1.0000 0.18350  0.68204  0.84910  Biso   1.000  C
  C28      1.0000 0.31650  0.18204  0.65090  Biso   1.000  C
  C29      1.0000 0.76910  0.34266  0.22640  Biso   1.000  C
  C30      1.0000 0.73090  0.84266  0.27360  Biso   1.000  C
  C31      1.0000 0.23090  0.65734  0.77360  Biso   1.000  C
  C32      1.0000 0.26910  0.15734  0.72640  Biso   1.000  C
  H25      1.0000 0.70290  0.38380  0.21620  Biso   1.000  H
  H26      1.0000 0.79710  0.88380  0.28380  Biso   1.000  H
  H27      1.0000 0.29710  0.61620  0.78380  Biso   1.000  H
  H28      1.0000 0.20290  0.11620  0.71620  Biso   1.000  H
  C33      1.0000 0.06220  0.15332  0.27060  Biso   1.000  C
  C34      1.0000 0.43780  0.65332  0.22940  Biso   1.000  C
  C35      1.0000 0.93780  0.84668  0.72940  Biso   1.000  C
  C36      1.0000 0.56220  0.34668  0.77060  Biso   1.000  C
  H29      1.0000 0.02650  0.11090  0.22240  Biso   1.000  H
  H30      1.0000 0.47350  0.61090  0.27760  Biso   1.000  H
  H31      1.0000 0.97350  0.88910  0.77760  Biso   1.000  H
  H32      1.0000 0.52650  0.38910  0.72240  Biso   1.000  H
  H33      1.0000 0.06950  0.12920  0.33380  Biso   1.000  H
  H34      1.0000 0.43050  0.62920  0.16620  Biso   1.000  H
  H35      1.0000 0.93050  0.87080  0.66620  Biso   1.000  H
  H36      1.0000 0.56950  0.37080  0.83380  Biso   1.000  H
  Cu1      1.0000 0.55585  0.10452  0.38840  Biso   1.000  Cu
  Cu2      1.0000 0.94415  0.60452  0.11160  Biso   1.000  Cu
  Cu3      1.0000 0.44415  0.89548  0.61160  Biso   1.000  Cu
  Cu4      1.0000 0.05585  0.39548  0.88840  Biso   1.000  Cu
  O1       1.0000 0.77520  0.48231  0.94129  Biso   1.000  O
  O2       1.0000 0.72480  0.98231  0.55871  Biso   1.000  O
  O3       1.0000 0.22480  0.51769  0.05871  Biso   1.000  O
  O4       1.0000 0.27520  0.01769  0.44129  Biso   1.000  O
  O5       1.0000 0.92620  0.48645  0.11033  Biso   1.000  O
  O6       1.0000 0.57380  0.98645  0.38967  Biso   1.000  O
  O7       1.0000 0.07380  0.51355  0.88967  Biso   1.000  O
  O8       1.0000 0.42620  0.01355  0.61033  Biso   1.000  O
  O9       1.0000 0.97786  0.38922  0.99301  Biso   1.000  O
  O10      1.0000 0.52214  0.88922  0.50699  Biso   1.000  O
  O11      1.0000 0.02214  0.61078  0.00699  Biso   1.000  O
  O12      1.0000 0.47786  0.11078  0.49301  Biso   1.000  O
  O13      1.0000 0.65170  0.20371  0.43404  Biso   1.000  O
  O14      1.0000 0.84830  0.70371  0.06596  Biso   1.000  O
  O15      1.0000 0.34830  0.79629  0.56596  Biso   1.000  O
  O16      1.0000 0.15170  0.29629  0.93404  Biso   1.000  O
  O17      1.0000 0.59600  0.33575  0.50530  Biso   1.000  O
  O18      1.0000 0.90400  0.83575  0.99470  Biso   1.000  O
  O19      1.0000 0.40400  0.66425  0.49470  Biso   1.000  O
  O20      1.0000 0.09600  0.16425  0.00530  Biso   1.000  O
  H37      1.0000 0.64350  0.31400  0.55610  Biso   1.000  H
  H38      1.0000 0.85650  0.81400  0.94390  Biso   1.000  H
  H39      1.0000 0.35650  0.68600  0.44390  Biso   1.000  H
  H40      1.0000 0.14350  0.18600  0.05610  Biso   1.000  H
  O21      1.0000 0.49850  0.31007  0.33233  Biso   1.000  O
  O22      1.0000 0.00150  0.81007  0.16767  Biso   1.000  O
  O23      1.0000 0.50150  0.68993  0.66767  Biso   1.000  O
  O24      1.0000 0.99850  0.18993  0.83233  Biso   1.000  O
  O25      1.0000 0.27520  0.24357  0.34549  Biso   1.000  O
  O26      1.0000 0.22480  0.74357  0.15451  Biso   1.000  O
  O27      1.0000 0.72480  0.75643  0.65451  Biso   1.000  O
  O28      1.0000 0.77520  0.25643  0.84549  Biso   1.000  O
  H41      1.0000 0.34730  0.26510  0.34090  Biso   1.000  H
  H42      1.0000 0.15270  0.76510  0.15910  Biso   1.000  H
  H43      1.0000 0.65270  0.73490  0.65910  Biso   1.000  H
  H44      1.0000 0.84730  0.23490  0.84090  Biso   1.000  H
  O29      1.0000 0.22610  0.21631  0.17043  Biso   1.000  O
  O30      1.0000 0.27390  0.71631  0.32957  Biso   1.000  O
  O31      1.0000 0.77390  0.78369  0.82957  Biso   1.000  O
  O32      1.0000 0.72610  0.28369  0.67043  Biso   1.000  O
  O33      1.0000 0.31400  0.10286  0.28686  Biso   1.000  O
  O34      1.0000 0.18600  0.60286  0.21314  Biso   1.000  O
  O35      1.0000 0.68600  0.89714  0.71314  Biso   1.000  O
  O36      1.0000 0.81400  0.39714  0.78686  Biso   1.000  O
  P1       1.0000 0.61778  0.29256  0.41473  Biso   1.000  P
  P2       1.0000 0.88222  0.79256  0.08527  Biso   1.000  P
  P3       1.0000 0.38222  0.70744  0.58527  Biso   1.000  P
  P4       1.0000 0.11778  0.20744  0.91473  Biso   1.000  P
  P5       1.0000 0.22788  0.17885  0.26481  Biso   1.000  P
  P6       1.0000 0.27212  0.67885  0.23519  Biso   1.000  P
  P7       1.0000 0.77212  0.82115  0.73519  Biso   1.000  P
  P8       1.0000 0.72788  0.32115  0.76481  Biso   1.000  P
  P9       1.0000 0.86740  0.43402  0.02258  Biso   1.000  P
  P10      1.0000 0.63260  0.93402  0.47742  Biso   1.000  P
  P11      1.0000 0.13260  0.56598  0.97742  Biso   1.000  P
  P12      1.0000 0.36740  0.06598  0.52258  Biso   1.000  P
  C37      1.0000 0.82500  0.04210  0.89470  Biso   1.000  C
  C38      1.0000 0.67500  0.54210  0.60530  Biso   1.000  C
  C39      1.0000 0.17500  0.95790  0.10530  Biso   1.000  C
  C40      1.0000 0.32500  0.45790  0.39470  Biso   1.000  C
  H45      1.0000 0.90970  0.02980  0.88570  Biso   1.000  H
  H46      1.0000 0.59030  0.52980  0.61430  Biso   1.000  H
  H47      1.0000 0.09030  0.97020  0.11430  Biso   1.000  H
  H48      1.0000 0.40970  0.47020  0.38570  Biso   1.000  H
  C41      1.0000 0.81820  0.05990  0.98500  Biso   1.000  C
  C42      1.0000 0.68180  0.55990  0.51500  Biso   1.000  C
  C43      1.0000 0.18180  0.94010  0.01500  Biso   1.000  C
  C44      1.0000 0.31820  0.44010  0.48500  Biso   1.000  C
  H49      1.0000 0.89700  0.06020  0.03660  Biso   1.000  H
  H50      1.0000 0.60300  0.56020  0.46340  Biso   1.000  H
  H51      1.0000 0.10300  0.93980  0.96340  Biso   1.000  H
  H52      1.0000 0.39700  0.43980  0.53660  Biso   1.000  H
  C45      1.0000 0.69610  0.07755  0.00080  Biso   1.000  C
  C46      1.0000 0.80390  0.57755  0.49920  Biso   1.000  C
  C47      1.0000 0.30390  0.92245  0.99920  Biso   1.000  C
  C48      1.0000 0.19610  0.42245  0.50080  Biso   1.000  C
  C49      1.0000 0.58580  0.07610  0.92240  Biso   1.000  C
  C50      1.0000 0.91420  0.57610  0.57760  Biso   1.000  C
  C51      1.0000 0.41420  0.92390  0.07760  Biso   1.000  C
  C52      1.0000 0.08580  0.42390  0.42240  Biso   1.000  C
  H53      1.0000 0.49980  0.08670  0.93010  Biso   1.000  H
  H54      1.0000 0.00020  0.58670  0.56990  Biso   1.000  H
  H55      1.0000 0.50020  0.91330  0.06990  Biso   1.000  H
  H56      1.0000 0.99980  0.41330  0.43010  Biso   1.000  H
  C53      1.0000 0.59970  0.05920  0.83290  Biso   1.000  C
  C54      1.0000 0.90030  0.55920  0.66710  Biso   1.000  C
  C55      1.0000 0.40030  0.94080  0.16710  Biso   1.000  C
  C56      1.0000 0.09970  0.44080  0.33290  Biso   1.000  C
  H57      1.0000 0.52270  0.06040  0.77980  Biso   1.000  H
  H58      1.0000 0.97730  0.56040  0.72020  Biso   1.000  H
  H59      1.0000 0.47730  0.93960  0.22020  Biso   1.000  H
  H60      1.0000 0.02270  0.43960  0.27980  Biso   1.000  H
  C57      1.0000 0.71670  0.06055  0.26140  Biso   1.000  C
  C58      1.0000 0.78330  0.56055  0.23860  Biso   1.000  C
  C59      1.0000 0.28330  0.93945  0.73860  Biso   1.000  C
  C60      1.0000 0.21670  0.43945  0.76140  Biso   1.000  C
  H61      1.0000 0.76630  0.03120  0.31550  Biso   1.000  H
  H62      1.0000 0.73370  0.53120  0.18450  Biso   1.000  H
  H63      1.0000 0.23370  0.96880  0.68450  Biso   1.000  H
  H64      1.0000 0.26630  0.46880  0.81550  Biso   1.000  H
  C61      1.0000 0.75100  0.05258  0.17750  Biso   1.000  C
  C62      1.0000 0.74900  0.55258  0.32250  Biso   1.000  C
  C63      1.0000 0.24900  0.94742  0.82250  Biso   1.000  C
  C64      1.0000 0.25100  0.44742  0.67750  Biso   1.000  C
  H65      1.0000 0.82380  0.01900  0.17460  Biso   1.000  H
  H66      1.0000 0.67620  0.51900  0.32540  Biso   1.000  H
  H67      1.0000 0.17620  0.98100  0.82540  Biso   1.000  H
  H68      1.0000 0.32380  0.48100  0.67460  Biso   1.000  H
  C65      1.0000 0.67850  0.09403  0.09690  Biso   1.000  C
  C66      1.0000 0.82150  0.59403  0.40310  Biso   1.000  C
  C67      1.0000 0.32150  0.90597  0.90310  Biso   1.000  C
  C68      1.0000 0.17850  0.40597  0.59690  Biso   1.000  C
  C69      1.0000 0.58320  0.14836  0.10850  Biso   1.000  C
  C70      1.0000 0.91680  0.64836  0.39150  Biso   1.000  C
  C71      1.0000 0.41680  0.85164  0.89150  Biso   1.000  C
  C72      1.0000 0.08320  0.35164  0.60850  Biso   1.000  C
  H69      1.0000 0.53730  0.18180  0.05700  Biso   1.000  H
  H70      1.0000 0.96270  0.68180  0.44300  Biso   1.000  H
  H71      1.0000 0.46270  0.81820  0.94300  Biso   1.000  H
  H72      1.0000 0.03730  0.31820  0.55700  Biso   1.000  H
  C73      1.0000 0.55510  0.15393  0.19480  Biso   1.000  C
  C74      1.0000 0.94490  0.65393  0.30520  Biso   1.000  C
  C75      1.0000 0.44490  0.84607  0.80520  Biso   1.000  C
  C76      1.0000 0.05510  0.34607  0.69480  Biso   1.000  C
  H73      1.0000 0.48960  0.19190  0.20140  Biso   1.000  H
  H74      1.0000 0.01040  0.69190  0.29860  Biso   1.000  H
  H75      1.0000 0.51040  0.80810  0.79860  Biso   1.000  H
  H76      1.0000 0.98960  0.30810  0.70140  Biso   1.000  H
  Cu5      1.0000 0.72010  0.01115  0.68644  Biso   1.000  Cu
  Cu6      1.0000 0.77990  0.51115  0.81356  Biso   1.000  Cu
  Cu7      1.0000 0.27990  0.98885  0.31356  Biso   1.000  Cu
  Cu8      1.0000 0.22010  0.48885  0.18644  Biso   1.000  Cu
  N1       1.0000 0.71780  0.04121  0.81868  Biso   1.000  N
  N2       1.0000 0.78220  0.54121  0.68132  Biso   1.000  N
  N3       1.0000 0.28220  0.95879  0.18132  Biso   1.000  N
  N4       1.0000 0.21780  0.45879  0.31868  Biso   1.000  N
  N5       1.0000 0.61610  0.10810  0.27014  Biso   1.000  N
  N6       1.0000 0.88390  0.60810  0.22986  Biso   1.000  N
  N7       1.0000 0.38390  0.89190  0.72986  Biso   1.000  N
  N8       1.0000 0.11610  0.39190  0.77014  Biso   1.000  N
  O37      1.0000 0.95400  0.04814  0.72851  Biso   1.000  O
  O38      1.0000 0.54600  0.54814  0.77149  Biso   1.000  O
  O39      1.0000 0.04600  0.95186  0.27149  Biso   1.000  O
  O40      1.0000 0.45400  0.45186  0.22851  Biso   1.000  O
  H77      1.0000 0.96600  0.09020  0.76350  Biso   1.000  H
  H78      1.0000 0.53400  0.59020  0.73650  Biso   1.000  H
  H79      1.0000 0.03400  0.90980  0.23650  Biso   1.000  H
  H80      1.0000 0.46600  0.40980  0.26350  Biso   1.000  H
  H81      1.0000 0.97660  0.05960  0.67840  Biso   1.000  H
  H82      1.0000 0.52340  0.55960  0.82160  Biso   1.000  H
  H83      1.0000 0.02340  0.94040  0.32160  Biso   1.000  H
  H84      1.0000 0.47660  0.44040  0.17840  Biso   1.000  H
  O41      1.0000 0.68660  0.12408  0.64323  Biso   1.000  O
  O42      1.0000 0.81340  0.62408  0.85677  Biso   1.000  O
  O43      1.0000 0.31340  0.87592  0.35677  Biso   1.000  O
  O44      1.0000 0.18660  0.37592  0.14323  Biso   1.000  O
  H85      1.0000 0.61690  0.12550  0.59640  Biso   1.000  H
  H86      1.0000 0.88310  0.62550  0.90360  Biso   1.000  H
  H87      1.0000 0.38310  0.87450  0.40360  Biso   1.000  H
  H88      1.0000 0.11690  0.37450  0.09640  Biso   1.000  H
  H89      1.0000 0.75170  0.13990  0.62330  Biso   1.000  H
  H90      1.0000 0.74830  0.63990  0.87670  Biso   1.000  H
  H91      1.0000 0.24830  0.86010  0.37670  Biso   1.000  H
  H92      1.0000 0.25170  0.36010  0.12330  Biso   1.000  H
