data_image0
_cell_length_a       25.267
_cell_length_b       14.5945
_cell_length_c       16.1441
_cell_angle_alpha    90
_cell_angle_beta     90
_cell_angle_gamma    90

_symmetry_space_group_name_H-M    "P 1"
_symmetry_int_tables_number       1

loop_
  _symmetry_equiv_pos_as_xyz
  'x, y, z'

loop_
  _atom_site_label
  _atom_site_occupancy
  _atom_site_fract_x
  _atom_site_fract_y
  _atom_site_fract_z
  _atom_site_thermal_displace_type
  _atom_site_B_iso_or_equiv
  _atom_site_type_symbol
  Cu1      1.0000 0.34980  0.17768  0.29720  Biso   1.000  Cu
  Cu2      1.0000 0.34980  0.32232  0.20280  Biso   1.000  Cu
  Cu3      1.0000 0.15020  0.67768  0.20280  Biso   1.000  Cu
  Cu4      1.0000 0.15020  0.82232  0.29720  Biso   1.000  Cu
  Cu5      1.0000 0.65020  0.82232  0.70280  Biso   1.000  Cu
  Cu6      1.0000 0.65020  0.67768  0.79720  Biso   1.000  Cu
  Cu7      1.0000 0.84980  0.32232  0.79720  Biso   1.000  Cu
  Cu8      1.0000 0.84980  0.17768  0.70280  Biso   1.000  Cu
  O1       1.0000 0.39840  0.12840  0.21410  Biso   1.000  O
  O2       1.0000 0.39840  0.37160  0.28590  Biso   1.000  O
  O3       1.0000 0.10160  0.62840  0.28590  Biso   1.000  O
  O4       1.0000 0.10160  0.87160  0.21410  Biso   1.000  O
  O5       1.0000 0.60160  0.87160  0.78590  Biso   1.000  O
  O6       1.0000 0.60160  0.62840  0.71410  Biso   1.000  O
  O7       1.0000 0.89840  0.37160  0.71410  Biso   1.000  O
  O8       1.0000 0.89840  0.12840  0.78590  Biso   1.000  O
  O9       1.0000 0.41173  0.26360  0.15120  Biso   1.000  O
  O10      1.0000 0.41173  0.23640  0.34880  Biso   1.000  O
  O11      1.0000 0.08827  0.76360  0.34880  Biso   1.000  O
  O12      1.0000 0.08827  0.73640  0.15120  Biso   1.000  O
  O13      1.0000 0.58827  0.73640  0.84880  Biso   1.000  O
  O14      1.0000 0.58827  0.76360  0.65120  Biso   1.000  O
  O15      1.0000 0.91173  0.23640  0.65120  Biso   1.000  O
  O16      1.0000 0.91173  0.26360  0.84880  Biso   1.000  O
  O17      1.0000 0.51670  0.66400  0.15850  Biso   1.000  O
  O18      1.0000 0.51670  0.83600  0.34150  Biso   1.000  O
  O19      1.0000 0.98330  0.16400  0.34150  Biso   1.000  O
  O20      1.0000 0.98330  0.33600  0.15850  Biso   1.000  O
  O21      1.0000 0.48330  0.33600  0.84150  Biso   1.000  O
  O22      1.0000 0.48330  0.16400  0.65850  Biso   1.000  O
  O23      1.0000 0.01670  0.83600  0.65850  Biso   1.000  O
  O24      1.0000 0.01670  0.66400  0.84150  Biso   1.000  O
  H1       1.0000 0.49600  0.65420  0.12040  Biso   1.000  H
  H2       1.0000 0.49600  0.84580  0.37960  Biso   1.000  H
  H3       1.0000 0.00400  0.15420  0.37960  Biso   1.000  H
  H4       1.0000 0.00400  0.34580  0.12040  Biso   1.000  H
  H5       1.0000 0.50400  0.34580  0.87960  Biso   1.000  H
  H6       1.0000 0.50400  0.15420  0.62040  Biso   1.000  H
  H7       1.0000 0.99600  0.84580  0.62040  Biso   1.000  H
  H8       1.0000 0.99600  0.65420  0.87960  Biso   1.000  H
  O25      1.0000 0.59070  0.61480  0.11490  Biso   1.000  O
  O26      1.0000 0.59070  0.88520  0.38510  Biso   1.000  O
  O27      1.0000 0.90930  0.11480  0.38510  Biso   1.000  O
  O28      1.0000 0.90930  0.38520  0.11490  Biso   1.000  O
  O29      1.0000 0.40930  0.38520  0.88510  Biso   1.000  O
  O30      1.0000 0.40930  0.11480  0.61490  Biso   1.000  O
  O31      1.0000 0.09070  0.88520  0.61490  Biso   1.000  O
  O32      1.0000 0.09070  0.61480  0.88510  Biso   1.000  O
  O33      1.0000 0.78887  0.14260  0.77160  Biso   1.000  O
  O34      1.0000 0.78887  0.35740  0.72840  Biso   1.000  O
  O35      1.0000 0.71113  0.64260  0.72840  Biso   1.000  O
  O36      1.0000 0.71113  0.85740  0.77160  Biso   1.000  O
  O37      1.0000 0.21113  0.85740  0.22840  Biso   1.000  O
  O38      1.0000 0.21113  0.64260  0.27160  Biso   1.000  O
  O39      1.0000 0.28887  0.35740  0.27160  Biso   1.000  O
  O40      1.0000 0.28887  0.14260  0.22840  Biso   1.000  O
  O41      1.0000 0.80082  0.25200  0.86720  Biso   1.000  O
  O42      1.0000 0.80082  0.24800  0.63280  Biso   1.000  O
  O43      1.0000 0.69918  0.75200  0.63280  Biso   1.000  O
  O44      1.0000 0.69918  0.74800  0.86720  Biso   1.000  O
  O45      1.0000 0.19918  0.74800  0.13280  Biso   1.000  O
  O46      1.0000 0.19918  0.75200  0.36720  Biso   1.000  O
  O47      1.0000 0.30082  0.24800  0.36720  Biso   1.000  O
  O48      1.0000 0.30082  0.25200  0.13280  Biso   1.000  O
  O49      1.0000 0.35118  0.05320  0.36930  Biso   1.000  O
  O50      1.0000 0.35118  0.44680  0.13070  Biso   1.000  O
  O51      1.0000 0.14882  0.55320  0.13070  Biso   1.000  O
  O52      1.0000 0.14882  0.94680  0.36930  Biso   1.000  O
  O53      1.0000 0.64882  0.94680  0.63070  Biso   1.000  O
  O54      1.0000 0.64882  0.55320  0.86930  Biso   1.000  O
  O55      1.0000 0.85118  0.44680  0.86930  Biso   1.000  O
  O56      1.0000 0.85118  0.05320  0.63070  Biso   1.000  O
  N1       1.0000 0.60676  0.03260  0.02340  Biso   1.000  N
  N2       1.0000 0.60676  0.46740  0.47660  Biso   1.000  N
  N3       1.0000 0.89324  0.53260  0.47660  Biso   1.000  N
  N4       1.0000 0.89324  0.96740  0.02340  Biso   1.000  N
  N5       1.0000 0.39324  0.96740  0.97660  Biso   1.000  N
  N6       1.0000 0.39324  0.53260  0.52340  Biso   1.000  N
  N7       1.0000 0.10676  0.46740  0.52340  Biso   1.000  N
  N8       1.0000 0.10676  0.03260  0.97660  Biso   1.000  N
  C1       1.0000 0.42307  0.18140  0.16440  Biso   1.000  C
  C2       1.0000 0.42307  0.31860  0.33560  Biso   1.000  C
  C3       1.0000 0.07693  0.68140  0.33560  Biso   1.000  C
  C4       1.0000 0.07693  0.81860  0.16440  Biso   1.000  C
  C5       1.0000 0.57693  0.81860  0.83560  Biso   1.000  C
  C6       1.0000 0.57693  0.68140  0.66440  Biso   1.000  C
  C7       1.0000 0.92307  0.31860  0.66440  Biso   1.000  C
  C8       1.0000 0.92307  0.18140  0.83560  Biso   1.000  C
  C9       1.0000 0.47190  0.14350  0.12480  Biso   1.000  C
  C10      1.0000 0.47190  0.35650  0.37520  Biso   1.000  C
  C11      1.0000 0.02810  0.64350  0.37520  Biso   1.000  C
  C12      1.0000 0.02810  0.85650  0.12480  Biso   1.000  C
  C13      1.0000 0.52810  0.85650  0.87520  Biso   1.000  C
  C14      1.0000 0.52810  0.64350  0.62480  Biso   1.000  C
  C15      1.0000 0.97190  0.35650  0.62480  Biso   1.000  C
  C16      1.0000 0.97190  0.14350  0.87520  Biso   1.000  C
  C17      1.0000 0.48496  0.05290  0.13400  Biso   1.000  C
  C18      1.0000 0.48496  0.44710  0.36600  Biso   1.000  C
  C19      1.0000 0.01504  0.55290  0.36600  Biso   1.000  C
  C20      1.0000 0.01504  0.94710  0.13400  Biso   1.000  C
  C21      1.0000 0.51504  0.94710  0.86600  Biso   1.000  C
  C22      1.0000 0.51504  0.55290  0.63400  Biso   1.000  C
  C23      1.0000 0.98496  0.44710  0.63400  Biso   1.000  C
  C24      1.0000 0.98496  0.05290  0.86600  Biso   1.000  C
  H9       1.0000 0.46320  0.01400  0.16440  Biso   1.000  H
  H10      1.0000 0.46320  0.48600  0.33560  Biso   1.000  H
  H11      1.0000 0.03680  0.51400  0.33560  Biso   1.000  H
  H12      1.0000 0.03680  0.98600  0.16440  Biso   1.000  H
  H13      1.0000 0.53680  0.98600  0.83560  Biso   1.000  H
  H14      1.0000 0.53680  0.51400  0.66440  Biso   1.000  H
  H15      1.0000 0.96320  0.48600  0.66440  Biso   1.000  H
  H16      1.0000 0.96320  0.01400  0.83560  Biso   1.000  H
  C25      1.0000 0.53090  0.01960  0.09740  Biso   1.000  C
  C26      1.0000 0.53090  0.48040  0.40260  Biso   1.000  C
  C27      1.0000 0.96910  0.51960  0.40260  Biso   1.000  C
  C28      1.0000 0.96910  0.98040  0.09740  Biso   1.000  C
  C29      1.0000 0.46910  0.98040  0.90260  Biso   1.000  C
  C30      1.0000 0.46910  0.51960  0.59740  Biso   1.000  C
  C31      1.0000 0.03090  0.48040  0.59740  Biso   1.000  C
  C32      1.0000 0.03090  0.01960  0.90260  Biso   1.000  C
  C33      1.0000 0.56360  0.08230  0.05430  Biso   1.000  C
  C34      1.0000 0.56360  0.41770  0.44570  Biso   1.000  C
  C35      1.0000 0.93640  0.58230  0.44570  Biso   1.000  C
  C36      1.0000 0.93640  0.91770  0.05430  Biso   1.000  C
  C37      1.0000 0.43640  0.91770  0.94570  Biso   1.000  C
  C38      1.0000 0.43640  0.58230  0.55430  Biso   1.000  C
  C39      1.0000 0.06360  0.41770  0.55430  Biso   1.000  C
  C40      1.0000 0.06360  0.08230  0.94570  Biso   1.000  C
  C41      1.0000 0.55160  0.17240  0.04590  Biso   1.000  C
  C42      1.0000 0.55160  0.32760  0.45410  Biso   1.000  C
  C43      1.0000 0.94840  0.67240  0.45410  Biso   1.000  C
  C44      1.0000 0.94840  0.82760  0.04590  Biso   1.000  C
  C45      1.0000 0.44840  0.82760  0.95410  Biso   1.000  C
  C46      1.0000 0.44840  0.67240  0.54590  Biso   1.000  C
  C47      1.0000 0.05160  0.32760  0.54590  Biso   1.000  C
  C48      1.0000 0.05160  0.17240  0.95410  Biso   1.000  C
  H17      1.0000 0.57400  0.21230  0.01780  Biso   1.000  H
  H18      1.0000 0.57400  0.28770  0.48220  Biso   1.000  H
  H19      1.0000 0.92600  0.71230  0.48220  Biso   1.000  H
  H20      1.0000 0.92600  0.78770  0.01780  Biso   1.000  H
  H21      1.0000 0.42600  0.78770  0.98220  Biso   1.000  H
  H22      1.0000 0.42600  0.71230  0.51780  Biso   1.000  H
  H23      1.0000 0.07400  0.28770  0.51780  Biso   1.000  H
  H24      1.0000 0.07400  0.21230  0.98220  Biso   1.000  H
  C49      1.0000 0.50500  0.20280  0.08030  Biso   1.000  C
  C50      1.0000 0.50500  0.29720  0.41970  Biso   1.000  C
  C51      1.0000 0.99500  0.70280  0.41970  Biso   1.000  C
  C52      1.0000 0.99500  0.79720  0.08030  Biso   1.000  C
  C53      1.0000 0.49500  0.79720  0.91970  Biso   1.000  C
  C54      1.0000 0.49500  0.70280  0.58030  Biso   1.000  C
  C55      1.0000 0.00500  0.29720  0.58030  Biso   1.000  C
  C56      1.0000 0.00500  0.20280  0.91970  Biso   1.000  C
  H25      1.0000 0.49530  0.26380  0.07400  Biso   1.000  H
  H26      1.0000 0.49530  0.23620  0.42600  Biso   1.000  H
  H27      1.0000 0.00470  0.76380  0.42600  Biso   1.000  H
  H28      1.0000 0.00470  0.73620  0.07400  Biso   1.000  H
  H29      1.0000 0.50470  0.73620  0.92600  Biso   1.000  H
  H30      1.0000 0.50470  0.76380  0.57400  Biso   1.000  H
  H31      1.0000 0.99530  0.23620  0.57400  Biso   1.000  H
  H32      1.0000 0.99530  0.26380  0.92600  Biso   1.000  H
  C57      1.0000 0.55480  0.93010  0.09120  Biso   1.000  C
  C58      1.0000 0.55480  0.56990  0.40880  Biso   1.000  C
  C59      1.0000 0.94520  0.43010  0.40880  Biso   1.000  C
  C60      1.0000 0.94520  0.06990  0.09120  Biso   1.000  C
  C61      1.0000 0.44520  0.06990  0.90880  Biso   1.000  C
  C62      1.0000 0.44520  0.43010  0.59120  Biso   1.000  C
  C63      1.0000 0.05480  0.56990  0.59120  Biso   1.000  C
  C64      1.0000 0.05480  0.93010  0.90880  Biso   1.000  C
  C65      1.0000 0.54080  0.84330  0.11830  Biso   1.000  C
  C66      1.0000 0.54080  0.65670  0.38170  Biso   1.000  C
  C67      1.0000 0.95920  0.34330  0.38170  Biso   1.000  C
  C68      1.0000 0.95920  0.15670  0.11830  Biso   1.000  C
  C69      1.0000 0.45920  0.15670  0.88170  Biso   1.000  C
  C70      1.0000 0.45920  0.34330  0.61830  Biso   1.000  C
  C71      1.0000 0.04080  0.65670  0.61830  Biso   1.000  C
  C72      1.0000 0.04080  0.84330  0.88170  Biso   1.000  C
  H33      1.0000 0.51000  0.83490  0.14880  Biso   1.000  H
  H34      1.0000 0.51000  0.66510  0.35120  Biso   1.000  H
  H35      1.0000 0.99000  0.33490  0.35120  Biso   1.000  H
  H36      1.0000 0.99000  0.16510  0.14880  Biso   1.000  H
  H37      1.0000 0.49000  0.16510  0.85120  Biso   1.000  H
  H38      1.0000 0.49000  0.33490  0.64880  Biso   1.000  H
  H39      1.0000 0.01000  0.66510  0.64880  Biso   1.000  H
  H40      1.0000 0.01000  0.83490  0.85120  Biso   1.000  H
  C73      1.0000 0.57330  0.76800  0.09960  Biso   1.000  C
  C74      1.0000 0.57330  0.73200  0.40040  Biso   1.000  C
  C75      1.0000 0.92670  0.26800  0.40040  Biso   1.000  C
  C76      1.0000 0.92670  0.23200  0.09960  Biso   1.000  C
  C77      1.0000 0.42670  0.23200  0.90040  Biso   1.000  C
  C78      1.0000 0.42670  0.26800  0.59960  Biso   1.000  C
  C79      1.0000 0.07330  0.73200  0.59960  Biso   1.000  C
  C80      1.0000 0.07330  0.76800  0.90040  Biso   1.000  C
  C81      1.0000 0.61900  0.78450  0.05280  Biso   1.000  C
  C82      1.0000 0.61900  0.71550  0.44720  Biso   1.000  C
  C83      1.0000 0.88100  0.28450  0.44720  Biso   1.000  C
  C84      1.0000 0.88100  0.21550  0.05280  Biso   1.000  C
  C85      1.0000 0.38100  0.21550  0.94720  Biso   1.000  C
  C86      1.0000 0.38100  0.28450  0.55280  Biso   1.000  C
  C87      1.0000 0.11900  0.71550  0.55280  Biso   1.000  C
  C88      1.0000 0.11900  0.78450  0.94720  Biso   1.000  C
  H41      1.0000 0.64060  0.73490  0.04020  Biso   1.000  H
  H42      1.0000 0.64060  0.76510  0.45980  Biso   1.000  H
  H43      1.0000 0.85940  0.23490  0.45980  Biso   1.000  H
  H44      1.0000 0.85940  0.26510  0.04020  Biso   1.000  H
  H45      1.0000 0.35940  0.26510  0.95980  Biso   1.000  H
  H46      1.0000 0.35940  0.23490  0.54020  Biso   1.000  H
  H47      1.0000 0.14060  0.76510  0.54020  Biso   1.000  H
  H48      1.0000 0.14060  0.73490  0.95980  Biso   1.000  H
  C89      1.0000 0.63350  0.86680  0.02530  Biso   1.000  C
  C90      1.0000 0.63350  0.63320  0.47470  Biso   1.000  C
  C91      1.0000 0.86650  0.36680  0.47470  Biso   1.000  C
  C92      1.0000 0.86650  0.13320  0.02530  Biso   1.000  C
  C93      1.0000 0.36650  0.13320  0.97470  Biso   1.000  C
  C94      1.0000 0.36650  0.36680  0.52530  Biso   1.000  C
  C95      1.0000 0.13350  0.63320  0.52530  Biso   1.000  C
  C96      1.0000 0.13350  0.86680  0.97470  Biso   1.000  C
  H49      1.0000 0.66400  0.87410  0.99370  Biso   1.000  H
  H50      1.0000 0.66400  0.62590  0.50630  Biso   1.000  H
  H51      1.0000 0.83600  0.37410  0.50630  Biso   1.000  H
  H52      1.0000 0.83600  0.12590  0.99370  Biso   1.000  H
  H53      1.0000 0.33600  0.12590  0.00630  Biso   1.000  H
  H54      1.0000 0.33600  0.37410  0.49370  Biso   1.000  H
  H55      1.0000 0.16400  0.62590  0.49370  Biso   1.000  H
  H56      1.0000 0.16400  0.87410  0.00630  Biso   1.000  H
  C97      1.0000 0.60140  0.94220  0.04510  Biso   1.000  C
  C98      1.0000 0.60140  0.55780  0.45490  Biso   1.000  C
  C99      1.0000 0.89860  0.44220  0.45490  Biso   1.000  C
  C100     1.0000 0.89860  0.05780  0.04510  Biso   1.000  C
  C101     1.0000 0.39860  0.05780  0.95490  Biso   1.000  C
  C102     1.0000 0.39860  0.44220  0.54510  Biso   1.000  C
  C103     1.0000 0.10140  0.55780  0.54510  Biso   1.000  C
  C104     1.0000 0.10140  0.94220  0.95490  Biso   1.000  C
  C105     1.0000 0.56120  0.67860  0.13010  Biso   1.000  C
  C106     1.0000 0.56120  0.82140  0.36990  Biso   1.000  C
  C107     1.0000 0.93880  0.17860  0.36990  Biso   1.000  C
  C108     1.0000 0.93880  0.32140  0.13010  Biso   1.000  C
  C109     1.0000 0.43880  0.32140  0.86990  Biso   1.000  C
  C110     1.0000 0.43880  0.17860  0.63010  Biso   1.000  C
  C111     1.0000 0.06120  0.82140  0.63010  Biso   1.000  C
  C112     1.0000 0.06120  0.67860  0.86990  Biso   1.000  C
  C113     1.0000 0.64976  0.07120  0.97640  Biso   1.000  C
  C114     1.0000 0.64976  0.42880  0.52360  Biso   1.000  C
  C115     1.0000 0.85024  0.57120  0.52360  Biso   1.000  C
  C116     1.0000 0.85024  0.92880  0.97640  Biso   1.000  C
  C117     1.0000 0.35024  0.92880  0.02360  Biso   1.000  C
  C118     1.0000 0.35024  0.57120  0.47640  Biso   1.000  C
  C119     1.0000 0.14976  0.42880  0.47640  Biso   1.000  C
  C120     1.0000 0.14976  0.07120  0.02360  Biso   1.000  C
  C121     1.0000 0.65950  0.03880  0.89710  Biso   1.000  C
  C122     1.0000 0.65950  0.46120  0.60290  Biso   1.000  C
  C123     1.0000 0.84050  0.53880  0.60290  Biso   1.000  C
  C124     1.0000 0.84050  0.96120  0.89710  Biso   1.000  C
  C125     1.0000 0.34050  0.96120  0.10290  Biso   1.000  C
  C126     1.0000 0.34050  0.53880  0.39710  Biso   1.000  C
  C127     1.0000 0.15950  0.46120  0.39710  Biso   1.000  C
  C128     1.0000 0.15950  0.03880  0.10290  Biso   1.000  C
  H57      1.0000 0.63830  0.99350  0.87380  Biso   1.000  H
  H58      1.0000 0.63830  0.50650  0.62620  Biso   1.000  H
  H59      1.0000 0.86170  0.49350  0.62620  Biso   1.000  H
  H60      1.0000 0.86170  0.00650  0.87380  Biso   1.000  H
  H61      1.0000 0.36170  0.00650  0.12620  Biso   1.000  H
  H62      1.0000 0.36170  0.49350  0.37380  Biso   1.000  H
  H63      1.0000 0.13830  0.50650  0.37380  Biso   1.000  H
  H64      1.0000 0.13830  0.99350  0.12620  Biso   1.000  H
  C129     1.0000 0.70149  0.07560  0.85400  Biso   1.000  C
  C130     1.0000 0.70149  0.42440  0.64600  Biso   1.000  C
  C131     1.0000 0.79851  0.57560  0.64600  Biso   1.000  C
  C132     1.0000 0.79851  0.92440  0.85400  Biso   1.000  C
  C133     1.0000 0.29851  0.92440  0.14600  Biso   1.000  C
  C134     1.0000 0.29851  0.57560  0.35400  Biso   1.000  C
  C135     1.0000 0.20149  0.42440  0.35400  Biso   1.000  C
  C136     1.0000 0.20149  0.07560  0.14600  Biso   1.000  C
  H65      1.0000 0.70910  0.05360  0.80120  Biso   1.000  H
  H66      1.0000 0.70910  0.44640  0.69880  Biso   1.000  H
  H67      1.0000 0.79090  0.55360  0.69880  Biso   1.000  H
  H68      1.0000 0.79090  0.94640  0.80120  Biso   1.000  H
  H69      1.0000 0.29090  0.94640  0.19880  Biso   1.000  H
  H70      1.0000 0.29090  0.55360  0.30120  Biso   1.000  H
  H71      1.0000 0.20910  0.44640  0.30120  Biso   1.000  H
  H72      1.0000 0.20910  0.05360  0.19880  Biso   1.000  H
  C137     1.0000 0.73261  0.14430  0.88690  Biso   1.000  C
  C138     1.0000 0.73261  0.35570  0.61310  Biso   1.000  C
  C139     1.0000 0.76739  0.64430  0.61310  Biso   1.000  C
  C140     1.0000 0.76739  0.85570  0.88690  Biso   1.000  C
  C141     1.0000 0.26739  0.85570  0.11310  Biso   1.000  C
  C142     1.0000 0.26739  0.64430  0.38690  Biso   1.000  C
  C143     1.0000 0.23261  0.35570  0.38690  Biso   1.000  C
  C144     1.0000 0.23261  0.14430  0.11310  Biso   1.000  C
  C145     1.0000 0.72150  0.17650  0.96590  Biso   1.000  C
  C146     1.0000 0.72150  0.32350  0.53410  Biso   1.000  C
  C147     1.0000 0.77850  0.67650  0.53410  Biso   1.000  C
  C148     1.0000 0.77850  0.82350  0.96590  Biso   1.000  C
  C149     1.0000 0.27850  0.82350  0.03410  Biso   1.000  C
  C150     1.0000 0.27850  0.67650  0.46590  Biso   1.000  C
  C151     1.0000 0.22150  0.32350  0.46590  Biso   1.000  C
  C152     1.0000 0.22150  0.17650  0.03410  Biso   1.000  C
  H73      1.0000 0.74200  0.22310  0.98860  Biso   1.000  H
  H74      1.0000 0.74200  0.27690  0.51140  Biso   1.000  H
  H75      1.0000 0.75800  0.72310  0.51140  Biso   1.000  H
  H76      1.0000 0.75800  0.77690  0.98860  Biso   1.000  H
  H77      1.0000 0.25800  0.77690  0.01140  Biso   1.000  H
  H78      1.0000 0.25800  0.72310  0.48860  Biso   1.000  H
  H79      1.0000 0.24200  0.27690  0.48860  Biso   1.000  H
  H80      1.0000 0.24200  0.22310  0.01140  Biso   1.000  H
  C153     1.0000 0.68030  0.13950  0.01100  Biso   1.000  C
  C154     1.0000 0.68030  0.36050  0.48900  Biso   1.000  C
  C155     1.0000 0.81970  0.63950  0.48900  Biso   1.000  C
  C156     1.0000 0.81970  0.86050  0.01100  Biso   1.000  C
  C157     1.0000 0.31970  0.86050  0.98900  Biso   1.000  C
  C158     1.0000 0.31970  0.63950  0.51100  Biso   1.000  C
  C159     1.0000 0.18030  0.36050  0.51100  Biso   1.000  C
  C160     1.0000 0.18030  0.13950  0.98900  Biso   1.000  C
  H81      1.0000 0.67310  0.16060  0.06420  Biso   1.000  H
  H82      1.0000 0.67310  0.33940  0.43580  Biso   1.000  H
  H83      1.0000 0.82690  0.66060  0.43580  Biso   1.000  H
  H84      1.0000 0.82690  0.83940  0.06420  Biso   1.000  H
  H85      1.0000 0.32690  0.83940  0.93580  Biso   1.000  H
  H86      1.0000 0.32690  0.66060  0.56420  Biso   1.000  H
  H87      1.0000 0.17310  0.33940  0.56420  Biso   1.000  H
  H88      1.0000 0.17310  0.16060  0.93580  Biso   1.000  H
  C161     1.0000 0.77784  0.18300  0.83860  Biso   1.000  C
  C162     1.0000 0.77784  0.31700  0.66140  Biso   1.000  C
  C163     1.0000 0.72216  0.68300  0.66140  Biso   1.000  C
  C164     1.0000 0.72216  0.81700  0.83860  Biso   1.000  C
  C165     1.0000 0.22216  0.81700  0.16140  Biso   1.000  C
  C166     1.0000 0.22216  0.68300  0.33860  Biso   1.000  C
  C167     1.0000 0.27784  0.31700  0.33860  Biso   1.000  C
  C168     1.0000 0.27784  0.18300  0.16140  Biso   1.000  C
