data_image0
_cell_length_a       13.9323
_cell_length_b       9.9261
_cell_length_c       17.7413
_cell_angle_alpha    90
_cell_angle_beta     112.95
_cell_angle_gamma    90

_symmetry_space_group_name_H-M    "P 1"
_symmetry_int_tables_number       1

loop_
  _symmetry_equiv_pos_as_xyz
  'x, y, z'

loop_
  _atom_site_label
  _atom_site_occupancy
  _atom_site_fract_x
  _atom_site_fract_y
  _atom_site_fract_z
  _atom_site_thermal_displace_type
  _atom_site_B_iso_or_equiv
  _atom_site_type_symbol
  C1       1.0000 0.11550  0.70460  0.99480  Biso   1.000  C
  C2       1.0000 0.38450  0.20460  0.50520  Biso   1.000  C
  C3       1.0000 0.88450  0.29540  0.00520  Biso   1.000  C
  C4       1.0000 0.61550  0.79540  0.49480  Biso   1.000  C
  F1       1.0000 0.05600  0.68970  0.03860  Biso   1.000  F
  F2       1.0000 0.44400  0.18970  0.46140  Biso   1.000  F
  F3       1.0000 0.94400  0.31030  0.96140  Biso   1.000  F
  F4       1.0000 0.55600  0.81030  0.53860  Biso   1.000  F
  F5       1.0000 0.06780  0.79010  0.93450  Biso   1.000  F
  F6       1.0000 0.43220  0.29010  0.56550  Biso   1.000  F
  F7       1.0000 0.93220  0.20990  0.06550  Biso   1.000  F
  F8       1.0000 0.56780  0.70990  0.43450  Biso   1.000  F
  F9       1.0000 0.11390  0.58250  0.95980  Biso   1.000  F
  F10      1.0000 0.38610  0.08250  0.54020  Biso   1.000  F
  F11      1.0000 0.88610  0.41750  0.04020  Biso   1.000  F
  F12      1.0000 0.61390  0.91750  0.45980  Biso   1.000  F
  C5       1.0000 0.69700  0.92800  0.26710  Biso   1.000  C
  C6       1.0000 0.80300  0.42800  0.23290  Biso   1.000  C
  C7       1.0000 0.30300  0.07200  0.73290  Biso   1.000  C
  C8       1.0000 0.19700  0.57200  0.76710  Biso   1.000  C
  F13      1.0000 0.72040  0.05880  0.27100  Biso   1.000  F
  F14      1.0000 0.77960  0.55880  0.22900  Biso   1.000  F
  F15      1.0000 0.27960  0.94120  0.72900  Biso   1.000  F
  F16      1.0000 0.22040  0.44120  0.77100  Biso   1.000  F
  F17      1.0000 0.73970  0.88160  0.34370  Biso   1.000  F
  F18      1.0000 0.76030  0.38160  0.15630  Biso   1.000  F
  F19      1.0000 0.26030  0.11840  0.65630  Biso   1.000  F
  F20      1.0000 0.23970  0.61840  0.84370  Biso   1.000  F
  F21      1.0000 0.74910  0.86970  0.22660  Biso   1.000  F
  F22      1.0000 0.75090  0.36970  0.27340  Biso   1.000  F
  F23      1.0000 0.25090  0.13030  0.77340  Biso   1.000  F
  F24      1.0000 0.24910  0.63030  0.72660  Biso   1.000  F
  C9       1.0000 0.48990  0.26210  0.30020  Biso   1.000  C
  C10      1.0000 0.01010  0.76210  0.19980  Biso   1.000  C
  C11      1.0000 0.51010  0.73790  0.69980  Biso   1.000  C
  C12      1.0000 0.98990  0.23790  0.80020  Biso   1.000  C
  H1       1.0000 0.44310  0.27630  0.24300  Biso   1.000  H
  H2       1.0000 0.05690  0.77630  0.25700  Biso   1.000  H
  H3       1.0000 0.55690  0.72370  0.75700  Biso   1.000  H
  H4       1.0000 0.94310  0.22370  0.74300  Biso   1.000  H
  H5       1.0000 0.44880  0.25210  0.33380  Biso   1.000  H
  H6       1.0000 0.05120  0.75210  0.16620  Biso   1.000  H
  H7       1.0000 0.55120  0.74790  0.66620  Biso   1.000  H
  H8       1.0000 0.94880  0.24790  0.83380  Biso   1.000  H
  H9       1.0000 0.53120  0.18030  0.30460  Biso   1.000  H
  H10      1.0000 0.96880  0.68030  0.19540  Biso   1.000  H
  H11      1.0000 0.46880  0.81970  0.69540  Biso   1.000  H
  H12      1.0000 0.03120  0.31970  0.80460  Biso   1.000  H
  C13      1.0000 0.64600  0.36680  0.40980  Biso   1.000  C
  C14      1.0000 0.85400  0.86680  0.09020  Biso   1.000  C
  C15      1.0000 0.35400  0.63320  0.59020  Biso   1.000  C
  C16      1.0000 0.14600  0.13320  0.90980  Biso   1.000  C
  H13      1.0000 0.66930  0.45700  0.43170  Biso   1.000  H
  H14      1.0000 0.83070  0.95700  0.06830  Biso   1.000  H
  H15      1.0000 0.33070  0.54300  0.56830  Biso   1.000  H
  H16      1.0000 0.16930  0.04300  0.93170  Biso   1.000  H
  H17      1.0000 0.70350  0.31710  0.40470  Biso   1.000  H
  H18      1.0000 0.79650  0.81710  0.09530  Biso   1.000  H
  H19      1.0000 0.29650  0.68290  0.59530  Biso   1.000  H
  H20      1.0000 0.20350  0.18290  0.90470  Biso   1.000  H
  H21      1.0000 0.62100  0.31840  0.44710  Biso   1.000  H
  H22      1.0000 0.87900  0.81840  0.05290  Biso   1.000  H
  H23      1.0000 0.37900  0.68160  0.55290  Biso   1.000  H
  H24      1.0000 0.12100  0.18160  0.94710  Biso   1.000  H
  Cu1      1.0000 0.42392  0.70372  0.16741  Biso   1.000  Cu
  Cu2      1.0000 0.07608  0.20372  0.33259  Biso   1.000  Cu
  Cu3      1.0000 0.57608  0.29628  0.83259  Biso   1.000  Cu
  Cu4      1.0000 0.92392  0.79628  0.66741  Biso   1.000  Cu
  O1       1.0000 0.28170  0.65180  0.09012  Biso   1.000  O
  O2       1.0000 0.21830  0.15180  0.40988  Biso   1.000  O
  O3       1.0000 0.71830  0.34820  0.90988  Biso   1.000  O
  O4       1.0000 0.78170  0.84820  0.59012  Biso   1.000  O
  O5       1.0000 0.24420  0.87040  0.06150  Biso   1.000  O
  O6       1.0000 0.25580  0.37040  0.43850  Biso   1.000  O
  O7       1.0000 0.75580  0.12960  0.93850  Biso   1.000  O
  O8       1.0000 0.74420  0.62960  0.56150  Biso   1.000  O
  O9       1.0000 0.56390  0.77330  0.23982  Biso   1.000  O
  O10      1.0000 0.93610  0.27330  0.26018  Biso   1.000  O
  O11      1.0000 0.43610  0.22670  0.76018  Biso   1.000  O
  O12      1.0000 0.06390  0.72670  0.73982  Biso   1.000  O
  O13      1.0000 0.51800  0.98170  0.19000  Biso   1.000  O
  O14      1.0000 0.98200  0.48170  0.31000  Biso   1.000  O
  O15      1.0000 0.48200  0.01830  0.81000  Biso   1.000  O
  O16      1.0000 0.01800  0.51830  0.69000  Biso   1.000  O
  O17      1.0000 0.47740  0.49800  0.21412  Biso   1.000  O
  O18      1.0000 0.02260  0.99800  0.28588  Biso   1.000  O
  O19      1.0000 0.52260  0.50200  0.78588  Biso   1.000  O
  O20      1.0000 0.97740  0.00200  0.71412  Biso   1.000  O
  N1       1.0000 0.36950  0.73550  0.25500  Biso   1.000  N
  N2       1.0000 0.13050  0.23550  0.24500  Biso   1.000  N
  N3       1.0000 0.63050  0.26450  0.74500  Biso   1.000  N
  N4       1.0000 0.86950  0.76450  0.75500  Biso   1.000  N
  N5       1.0000 0.97660  0.79550  0.57720  Biso   1.000  N
  N6       1.0000 0.52340  0.29550  0.92280  Biso   1.000  N
  N7       1.0000 0.02340  0.20450  0.42280  Biso   1.000  N
  N8       1.0000 0.47660  0.70450  0.07720  Biso   1.000  N
  N9       1.0000 0.56020  0.37850  0.32930  Biso   1.000  N
  N10      1.0000 0.93980  0.87850  0.17070  Biso   1.000  N
  N11      1.0000 0.43980  0.62150  0.67070  Biso   1.000  N
  N12      1.0000 0.06020  0.12150  0.82930  Biso   1.000  N
  C17      1.0000 0.32470  0.63450  0.27990  Biso   1.000  C
  C18      1.0000 0.17530  0.13450  0.22010  Biso   1.000  C
  C19      1.0000 0.67530  0.36550  0.72010  Biso   1.000  C
  C20      1.0000 0.82470  0.86550  0.77990  Biso   1.000  C
  H25      1.0000 0.32600  0.54670  0.25900  Biso   1.000  H
  H26      1.0000 0.17400  0.04670  0.24100  Biso   1.000  H
  H27      1.0000 0.67400  0.45330  0.74100  Biso   1.000  H
  H28      1.0000 0.82600  0.95330  0.75900  Biso   1.000  H
  C21      1.0000 0.27700  0.65170  0.33420  Biso   1.000  C
  C22      1.0000 0.22300  0.15170  0.16580  Biso   1.000  C
  C23      1.0000 0.72300  0.34830  0.66580  Biso   1.000  C
  C24      1.0000 0.77700  0.84830  0.83420  Biso   1.000  C
  H29      1.0000 0.24690  0.57700  0.35040  Biso   1.000  H
  H30      1.0000 0.25310  0.07700  0.14960  Biso   1.000  H
  H31      1.0000 0.75310  0.42300  0.64960  Biso   1.000  H
  H32      1.0000 0.74690  0.92300  0.85040  Biso   1.000  H
  C25      1.0000 0.27320  0.78020  0.36530  Biso   1.000  C
  C26      1.0000 0.22680  0.28020  0.13470  Biso   1.000  C
  C27      1.0000 0.72680  0.21980  0.63470  Biso   1.000  C
  C28      1.0000 0.77320  0.71980  0.86530  Biso   1.000  C
  C29      1.0000 0.32480  0.88230  0.34290  Biso   1.000  C
  C30      1.0000 0.17520  0.38230  0.15710  Biso   1.000  C
  C31      1.0000 0.67520  0.11770  0.65710  Biso   1.000  C
  C32      1.0000 0.82480  0.61770  0.84290  Biso   1.000  C
  H33      1.0000 0.32830  0.97010  0.36520  Biso   1.000  H
  H34      1.0000 0.17170  0.47010  0.13480  Biso   1.000  H
  H35      1.0000 0.67170  0.02990  0.63480  Biso   1.000  H
  H36      1.0000 0.82830  0.52990  0.86520  Biso   1.000  H
  C33      1.0000 0.37090  0.85620  0.28830  Biso   1.000  C
  C34      1.0000 0.12910  0.35620  0.21170  Biso   1.000  C
  C35      1.0000 0.62910  0.14380  0.71170  Biso   1.000  C
  C36      1.0000 0.87090  0.64380  0.78830  Biso   1.000  C
  H37      1.0000 0.40540  0.92790  0.27360  Biso   1.000  H
  H38      1.0000 0.09460  0.42790  0.22640  Biso   1.000  H
  H39      1.0000 0.59460  0.07210  0.72640  Biso   1.000  H
  H40      1.0000 0.90540  0.57210  0.77360  Biso   1.000  H
  C37      1.0000 0.21600  0.81030  0.41680  Biso   1.000  C
  C38      1.0000 0.28400  0.31030  0.08320  Biso   1.000  C
  C39      1.0000 0.78400  0.18970  0.58320  Biso   1.000  C
  C40      1.0000 0.71600  0.68970  0.91680  Biso   1.000  C
  H41      1.0000 0.23220  0.89160  0.44750  Biso   1.000  H
  H42      1.0000 0.26780  0.39160  0.05250  Biso   1.000  H
  H43      1.0000 0.76780  0.10840  0.55250  Biso   1.000  H
  H44      1.0000 0.73220  0.60840  0.94750  Biso   1.000  H
  C41      1.0000 0.14290  0.73170  0.42360  Biso   1.000  C
  C42      1.0000 0.35710  0.23170  0.07640  Biso   1.000  C
  C43      1.0000 0.85710  0.26830  0.57640  Biso   1.000  C
  C44      1.0000 0.64290  0.76830  0.92360  Biso   1.000  C
  H45      1.0000 0.12730  0.65030  0.39310  Biso   1.000  H
  H46      1.0000 0.37270  0.15030  0.10690  Biso   1.000  H
  H47      1.0000 0.87270  0.34970  0.60690  Biso   1.000  H
  H48      1.0000 0.62730  0.84970  0.89310  Biso   1.000  H
  C45      1.0000 0.94940  0.69840  0.52090  Biso   1.000  C
  C46      1.0000 0.55060  0.19840  0.97910  Biso   1.000  C
  C47      1.0000 0.05060  0.30160  0.47910  Biso   1.000  C
  C48      1.0000 0.44940  0.80160  0.02090  Biso   1.000  C
  H49      1.0000 0.89290  0.64100  0.51650  Biso   1.000  H
  H50      1.0000 0.60710  0.14100  0.98350  Biso   1.000  H
  H51      1.0000 0.10710  0.35900  0.48350  Biso   1.000  H
  H52      1.0000 0.39290  0.85900  0.01650  Biso   1.000  H
  C49      1.0000 0.00050  0.67760  0.46830  Biso   1.000  C
  C50      1.0000 0.49950  0.17760  0.03170  Biso   1.000  C
  C51      1.0000 0.99950  0.32240  0.53170  Biso   1.000  C
  C52      1.0000 0.50050  0.82240  0.96830  Biso   1.000  C
  H53      1.0000 0.97880  0.60770  0.42860  Biso   1.000  H
  H54      1.0000 0.52120  0.10770  0.07140  Biso   1.000  H
  H55      1.0000 0.02120  0.39230  0.57140  Biso   1.000  H
  H56      1.0000 0.47880  0.89230  0.92860  Biso   1.000  H
  C53      1.0000 0.08400  0.76070  0.47480  Biso   1.000  C
  C54      1.0000 0.41600  0.26070  0.02520  Biso   1.000  C
  C55      1.0000 0.91600  0.23930  0.52520  Biso   1.000  C
  C56      1.0000 0.58400  0.73930  0.97480  Biso   1.000  C
  C57      1.0000 0.10830  0.86420  0.53060  Biso   1.000  C
  C58      1.0000 0.39170  0.36420  0.96940  Biso   1.000  C
  C59      1.0000 0.89170  0.13580  0.46940  Biso   1.000  C
  C60      1.0000 0.60830  0.63580  0.03060  Biso   1.000  C
  H57      1.0000 0.16230  0.92580  0.53460  Biso   1.000  H
  H58      1.0000 0.33770  0.42580  0.96540  Biso   1.000  H
  H59      1.0000 0.83770  0.07420  0.46540  Biso   1.000  H
  H60      1.0000 0.66230  0.57420  0.03460  Biso   1.000  H
  C61      1.0000 0.05370  0.87870  0.58110  Biso   1.000  C
  C62      1.0000 0.44630  0.37870  0.91890  Biso   1.000  C
  C63      1.0000 0.94630  0.12130  0.41890  Biso   1.000  C
  C64      1.0000 0.55370  0.62130  0.08110  Biso   1.000  C
  H61      1.0000 0.07190  0.95030  0.61970  Biso   1.000  H
  H62      1.0000 0.42810  0.45030  0.88030  Biso   1.000  H
  H63      1.0000 0.92810  0.04970  0.38030  Biso   1.000  H
  H64      1.0000 0.57190  0.54970  0.11970  Biso   1.000  H
  C65      1.0000 0.22420  0.75030  0.05410  Biso   1.000  C
  C66      1.0000 0.27580  0.25030  0.44590  Biso   1.000  C
  C67      1.0000 0.77580  0.24970  0.94590  Biso   1.000  C
  C68      1.0000 0.72420  0.74970  0.55410  Biso   1.000  C
  C69      1.0000 0.58010  0.89610  0.22890  Biso   1.000  C
  C70      1.0000 0.91990  0.39610  0.27110  Biso   1.000  C
  C71      1.0000 0.41990  0.10390  0.77110  Biso   1.000  C
  C72      1.0000 0.08010  0.60390  0.72890  Biso   1.000  C
  C73      1.0000 0.54410  0.48690  0.28550  Biso   1.000  C
  C74      1.0000 0.95590  0.98690  0.21450  Biso   1.000  C
  C75      1.0000 0.45590  0.51310  0.71450  Biso   1.000  C
  C76      1.0000 0.04410  0.01310  0.78550  Biso   1.000  C
  H65      1.0000 0.58580  0.56350  0.30930  Biso   1.000  H
  H66      1.0000 0.91420  0.06350  0.19070  Biso   1.000  H
  H67      1.0000 0.41420  0.43650  0.69070  Biso   1.000  H
  H68      1.0000 0.08580  0.93650  0.80930  Biso   1.000  H
  F25      1.0000 0.05860  0.64130  0.03010  Biso   1.000  F
  F26      1.0000 0.44140  0.14130  0.46990  Biso   1.000  F
  F27      1.0000 0.94140  0.35870  0.96990  Biso   1.000  F
  F28      1.0000 0.55860  0.85870  0.53010  Biso   1.000  F
  F29      1.0000 0.12410  0.61870  0.93930  Biso   1.000  F
  F30      1.0000 0.37590  0.11870  0.56070  Biso   1.000  F
  F31      1.0000 0.87590  0.38130  0.06070  Biso   1.000  F
  F32      1.0000 0.62410  0.88130  0.43930  Biso   1.000  F
  F33      1.0000 0.05780  0.80900  0.95280  Biso   1.000  F
  F34      1.0000 0.44220  0.30900  0.54720  Biso   1.000  F
  F35      1.0000 0.94220  0.19100  0.04720  Biso   1.000  F
  F36      1.0000 0.55780  0.69100  0.45280  Biso   1.000  F
  C77      1.0000 0.69200  0.94280  0.26720  Biso   1.000  C
  C78      1.0000 0.80800  0.44280  0.23280  Biso   1.000  C
  C79      1.0000 0.30800  0.05720  0.73280  Biso   1.000  C
  C80      1.0000 0.19200  0.55720  0.76720  Biso   1.000  C
  F37      1.0000 0.69870  0.06390  0.30190  Biso   1.000  F
  F38      1.0000 0.80130  0.56390  0.19810  Biso   1.000  F
  F39      1.0000 0.30130  0.93610  0.69810  Biso   1.000  F
  F40      1.0000 0.19870  0.43610  0.80190  Biso   1.000  F
  F41      1.0000 0.75960  0.86390  0.32420  Biso   1.000  F
  F42      1.0000 0.74040  0.36390  0.17580  Biso   1.000  F
  F43      1.0000 0.24040  0.13610  0.67580  Biso   1.000  F
  F44      1.0000 0.25960  0.63610  0.82420  Biso   1.000  F
  F45      1.0000 0.73000  0.95810  0.20920  Biso   1.000  F
  F46      1.0000 0.77000  0.45810  0.29080  Biso   1.000  F
  F47      1.0000 0.27000  0.04190  0.79080  Biso   1.000  F
  F48      1.0000 0.23000  0.54190  0.70920  Biso   1.000  F
  C81      1.0000 0.52400  0.25080  0.28770  Biso   1.000  C
  C82      1.0000 0.97600  0.75080  0.21230  Biso   1.000  C
  C83      1.0000 0.47600  0.74920  0.71230  Biso   1.000  C
  C84      1.0000 0.02400  0.24920  0.78770  Biso   1.000  C
  H69      1.0000 0.52470  0.25500  0.23270  Biso   1.000  H
  H70      1.0000 0.97530  0.75500  0.26730  Biso   1.000  H
  H71      1.0000 0.47530  0.74500  0.76730  Biso   1.000  H
  H72      1.0000 0.02470  0.24500  0.73270  Biso   1.000  H
  H73      1.0000 0.45320  0.23310  0.28370  Biso   1.000  H
  H74      1.0000 0.04680  0.73310  0.21630  Biso   1.000  H
  H75      1.0000 0.54680  0.76690  0.71630  Biso   1.000  H
  H76      1.0000 0.95320  0.26690  0.78370  Biso   1.000  H
  H77      1.0000 0.57050  0.17840  0.31880  Biso   1.000  H
  H78      1.0000 0.92950  0.67840  0.18120  Biso   1.000  H
  H79      1.0000 0.42950  0.82160  0.68120  Biso   1.000  H
  H80      1.0000 0.07050  0.32160  0.81880  Biso   1.000  H
  C85      1.0000 0.63600  0.37600  0.41410  Biso   1.000  C
  C86      1.0000 0.86400  0.87600  0.08590  Biso   1.000  C
  C87      1.0000 0.36400  0.62400  0.58590  Biso   1.000  C
  C88      1.0000 0.13600  0.12400  0.91410  Biso   1.000  C
  H81      1.0000 0.68760  0.44790  0.42230  Biso   1.000  H
  H82      1.0000 0.81240  0.94790  0.07770  Biso   1.000  H
  H83      1.0000 0.31240  0.55210  0.57770  Biso   1.000  H
  H84      1.0000 0.18760  0.05210  0.92230  Biso   1.000  H
  H85      1.0000 0.67200  0.28850  0.42540  Biso   1.000  H
  H86      1.0000 0.82800  0.78850  0.07460  Biso   1.000  H
  H87      1.0000 0.32800  0.71150  0.57460  Biso   1.000  H
  H88      1.0000 0.17200  0.21150  0.92540  Biso   1.000  H
  H89      1.0000 0.60050  0.38930  0.45130  Biso   1.000  H
  H90      1.0000 0.89950  0.88930  0.04870  Biso   1.000  H
  H91      1.0000 0.39950  0.61070  0.54870  Biso   1.000  H
  H92      1.0000 0.10050  0.11070  0.95130  Biso   1.000  H
