data_image0
_cell_length_a       9.8105
_cell_length_b       9.7959
_cell_length_c       14.503
_cell_angle_alpha    90
_cell_angle_beta     95.226
_cell_angle_gamma    90

_symmetry_space_group_name_H-M    "P 1"
_symmetry_int_tables_number       1

loop_
  _symmetry_equiv_pos_as_xyz
  'x, y, z'

loop_
  _atom_site_label
  _atom_site_occupancy
  _atom_site_fract_x
  _atom_site_fract_y
  _atom_site_fract_z
  _atom_site_thermal_displace_type
  _atom_site_B_iso_or_equiv
  _atom_site_type_symbol
  C1       1.0000 0.22210  0.97220  0.15770  Biso   1.000  C
  C2       1.0000 0.77790  0.47220  0.34230  Biso   1.000  C
  C3       1.0000 0.77790  0.02780  0.84230  Biso   1.000  C
  C4       1.0000 0.22210  0.52780  0.65770  Biso   1.000  C
  H1       1.0000 0.18950  0.88510  0.16860  Biso   1.000  H
  H2       1.0000 0.81050  0.38510  0.33140  Biso   1.000  H
  H3       1.0000 0.81050  0.11490  0.83140  Biso   1.000  H
  H4       1.0000 0.18950  0.61490  0.66860  Biso   1.000  H
  C5       1.0000 0.33750  0.01790  0.21010  Biso   1.000  C
  C6       1.0000 0.66250  0.51790  0.28990  Biso   1.000  C
  C7       1.0000 0.66250  0.98210  0.78990  Biso   1.000  C
  C8       1.0000 0.33750  0.48210  0.71010  Biso   1.000  C
  H5       1.0000 0.38110  0.96140  0.25510  Biso   1.000  H
  H6       1.0000 0.61890  0.46140  0.24490  Biso   1.000  H
  H7       1.0000 0.61890  0.03860  0.74490  Biso   1.000  H
  H8       1.0000 0.38110  0.53860  0.75510  Biso   1.000  H
  C9       1.0000 0.38900  0.14700  0.19620  Biso   1.000  C
  C10      1.0000 0.61100  0.64700  0.30380  Biso   1.000  C
  C11      1.0000 0.61100  0.85300  0.80380  Biso   1.000  C
  C12      1.0000 0.38900  0.35300  0.69620  Biso   1.000  C
  H9       1.0000 0.46890  0.17760  0.22920  Biso   1.000  H
  H10      1.0000 0.53110  0.67760  0.27080  Biso   1.000  H
  H11      1.0000 0.53110  0.82240  0.77080  Biso   1.000  H
  H12      1.0000 0.46890  0.32240  0.72920  Biso   1.000  H
  C13      1.0000 0.31670  0.22860  0.13130  Biso   1.000  C
  C14      1.0000 0.68330  0.72860  0.36870  Biso   1.000  C
  C15      1.0000 0.68330  0.77140  0.86870  Biso   1.000  C
  C16      1.0000 0.31670  0.27140  0.63130  Biso   1.000  C
  C17      1.0000 0.33710  0.37060  0.09620  Biso   1.000  C
  C18      1.0000 0.66290  0.87060  0.40380  Biso   1.000  C
  C19      1.0000 0.66290  0.62940  0.90380  Biso   1.000  C
  C20      1.0000 0.33710  0.12940  0.59620  Biso   1.000  C
  C21      1.0000 0.22640  0.39130  0.01860  Biso   1.000  C
  C22      1.0000 0.77360  0.89130  0.48140  Biso   1.000  C
  C23      1.0000 0.77360  0.60870  0.98140  Biso   1.000  C
  C24      1.0000 0.22640  0.10870  0.51860  Biso   1.000  C
  C25      1.0000 0.19500  0.49450  0.95620  Biso   1.000  C
  C26      1.0000 0.80500  0.99450  0.54380  Biso   1.000  C
  C27      1.0000 0.80500  0.50550  0.04380  Biso   1.000  C
  C28      1.0000 0.19500  0.00550  0.45620  Biso   1.000  C
  H13      1.0000 0.24320  0.57630  0.95920  Biso   1.000  H
  H14      1.0000 0.75680  0.07630  0.54080  Biso   1.000  H
  H15      1.0000 0.75680  0.42370  0.04080  Biso   1.000  H
  H16      1.0000 0.24320  0.92370  0.45920  Biso   1.000  H
  C29      1.0000 0.08820  0.47130  0.88870  Biso   1.000  C
  C30      1.0000 0.91180  0.97130  0.61130  Biso   1.000  C
  C31      1.0000 0.91180  0.52870  0.11130  Biso   1.000  C
  C32      1.0000 0.08820  0.02870  0.38870  Biso   1.000  C
  H17      1.0000 0.06310  0.53870  0.84530  Biso   1.000  H
  H18      1.0000 0.93690  0.03870  0.65470  Biso   1.000  H
  H19      1.0000 0.93690  0.46130  0.15470  Biso   1.000  H
  H20      1.0000 0.06310  0.96130  0.34530  Biso   1.000  H
  C33      1.0000 0.01930  0.34890  0.88570  Biso   1.000  C
  C34      1.0000 0.98070  0.84890  0.61430  Biso   1.000  C
  C35      1.0000 0.98070  0.65110  0.11430  Biso   1.000  C
  C36      1.0000 0.01930  0.15110  0.38570  Biso   1.000  C
  H21      1.0000 0.94850  0.33660  0.83930  Biso   1.000  H
  H22      1.0000 0.05150  0.83660  0.66070  Biso   1.000  H
  H23      1.0000 0.05150  0.66340  0.16070  Biso   1.000  H
  H24      1.0000 0.94850  0.16340  0.33930  Biso   1.000  H
  C37      1.0000 0.14900  0.27220  0.01030  Biso   1.000  C
  C38      1.0000 0.85100  0.77220  0.48970  Biso   1.000  C
  C39      1.0000 0.85100  0.72780  0.98970  Biso   1.000  C
  C40      1.0000 0.14900  0.22780  0.51030  Biso   1.000  C
  C41      1.0000 0.20260  0.17500  0.08070  Biso   1.000  C
  C42      1.0000 0.79740  0.67500  0.41930  Biso   1.000  C
  C43      1.0000 0.79740  0.82500  0.91930  Biso   1.000  C
  C44      1.0000 0.20260  0.32500  0.58070  Biso   1.000  C
  C45      1.0000 0.62650  0.84820  0.11930  Biso   1.000  C
  C46      1.0000 0.37350  0.34820  0.38070  Biso   1.000  C
  C47      1.0000 0.37350  0.15180  0.88070  Biso   1.000  C
  C48      1.0000 0.62650  0.65180  0.61930  Biso   1.000  C
  H25      1.0000 0.68660  0.81000  0.16560  Biso   1.000  H
  H26      1.0000 0.31340  0.31000  0.33440  Biso   1.000  H
  H27      1.0000 0.31340  0.19000  0.83440  Biso   1.000  H
  H28      1.0000 0.68660  0.69000  0.66560  Biso   1.000  H
  C49      1.0000 0.64550  0.97960  0.09230  Biso   1.000  C
  C50      1.0000 0.35450  0.47960  0.40770  Biso   1.000  C
  C51      1.0000 0.35450  0.02040  0.90770  Biso   1.000  C
  C52      1.0000 0.64550  0.52040  0.59230  Biso   1.000  C
  C53      1.0000 0.55560  0.03990  0.02070  Biso   1.000  C
  C54      1.0000 0.44440  0.53990  0.47930  Biso   1.000  C
  C55      1.0000 0.44440  0.96010  0.97930  Biso   1.000  C
  C56      1.0000 0.55560  0.46010  0.52070  Biso   1.000  C
  C57      1.0000 0.57060  0.17510  0.98900  Biso   1.000  C
  C58      1.0000 0.42940  0.67510  0.51100  Biso   1.000  C
  C59      1.0000 0.42940  0.82490  0.01100  Biso   1.000  C
  C60      1.0000 0.57060  0.32490  0.48900  Biso   1.000  C
  H29      1.0000 0.64300  0.22780  0.01490  Biso   1.000  H
  H30      1.0000 0.35700  0.72780  0.48510  Biso   1.000  H
  H31      1.0000 0.35700  0.77220  0.98510  Biso   1.000  H
  H32      1.0000 0.64300  0.27220  0.51490  Biso   1.000  H
  C61      1.0000 0.48200  0.22980  0.92160  Biso   1.000  C
  C62      1.0000 0.51800  0.72980  0.57840  Biso   1.000  C
  C63      1.0000 0.51800  0.77020  0.07840  Biso   1.000  C
  C64      1.0000 0.48200  0.27020  0.42160  Biso   1.000  C
  H33      1.0000 0.49360  0.31950  0.90270  Biso   1.000  H
  H34      1.0000 0.50640  0.81950  0.59730  Biso   1.000  H
  H35      1.0000 0.50640  0.68050  0.09730  Biso   1.000  H
  H36      1.0000 0.49360  0.18050  0.40270  Biso   1.000  H
  Cu1      1.0000 0.00000  0.00000  0.00000  Biso   1.000  Cu
  Cu2      1.0000 0.00000  0.50000  0.50000  Biso   1.000  Cu
  N1       1.0000 0.15440  0.05010  0.09070  Biso   1.000  N
  N2       1.0000 0.84560  0.55010  0.40930  Biso   1.000  N
  N3       1.0000 0.84560  0.94990  0.90930  Biso   1.000  N
  N4       1.0000 0.15440  0.44990  0.59070  Biso   1.000  N
  N5       1.0000 0.04770  0.24620  0.94531  Biso   1.000  N
  N6       1.0000 0.95230  0.74620  0.55469  Biso   1.000  N
  N7       1.0000 0.95230  0.75380  0.05469  Biso   1.000  N
  N8       1.0000 0.04770  0.25380  0.44531  Biso   1.000  N
  O1       1.0000 0.42470  0.45130  0.12430  Biso   1.000  O
  O2       1.0000 0.57530  0.95130  0.37570  Biso   1.000  O
  O3       1.0000 0.57530  0.54870  0.87570  Biso   1.000  O
  O4       1.0000 0.42470  0.04870  0.62430  Biso   1.000  O
  O5       1.0000 0.87250  0.10720  0.07207  Biso   1.000  O
  O6       1.0000 0.12750  0.60720  0.42793  Biso   1.000  O
  O7       1.0000 0.12750  0.89280  0.92793  Biso   1.000  O
  O8       1.0000 0.87250  0.39280  0.57207  Biso   1.000  O
  O9       1.0000 0.73470  0.19300  0.18753  Biso   1.000  O
  O10      1.0000 0.26530  0.69300  0.31247  Biso   1.000  O
  O11      1.0000 0.26530  0.80700  0.81247  Biso   1.000  O
  O12      1.0000 0.73470  0.30700  0.68753  Biso   1.000  O
  O13      1.0000 0.85680  0.97780  0.21331  Biso   1.000  O
  O14      1.0000 0.14320  0.47780  0.28669  Biso   1.000  O
  O15      1.0000 0.14320  0.02220  0.78669  Biso   1.000  O
  O16      1.0000 0.85680  0.52220  0.71331  Biso   1.000  O
  S1       1.0000 0.78810  0.07114  0.14812  Biso   1.000  S
  S2       1.0000 0.21190  0.57114  0.35188  Biso   1.000  S
  S3       1.0000 0.21190  0.92886  0.85188  Biso   1.000  S
  S4       1.0000 0.78810  0.42886  0.64812  Biso   1.000  S
