data_image0
_cell_length_a       9.811
_cell_length_b       13.505
_cell_length_c       11.175
_cell_angle_alpha    90
_cell_angle_beta     96.602
_cell_angle_gamma    90

_symmetry_space_group_name_H-M    "P 1"
_symmetry_int_tables_number       1

loop_
  _symmetry_equiv_pos_as_xyz
  'x, y, z'

loop_
  _atom_site_label
  _atom_site_occupancy
  _atom_site_fract_x
  _atom_site_fract_y
  _atom_site_fract_z
  _atom_site_thermal_displace_type
  _atom_site_B_iso_or_equiv
  _atom_site_type_symbol
  Cu1      1.0000 0.90496  0.05021  0.55350  Biso   1.000  Cu
  Cu2      1.0000 0.59504  0.55021  0.94650  Biso   1.000  Cu
  Cu3      1.0000 0.09504  0.94979  0.44650  Biso   1.000  Cu
  Cu4      1.0000 0.40496  0.44979  0.05350  Biso   1.000  Cu
  O1       1.0000 0.46131  0.65906  0.91485  Biso   1.000  O
  O2       1.0000 0.03869  0.15906  0.58515  Biso   1.000  O
  O3       1.0000 0.53869  0.34094  0.08515  Biso   1.000  O
  O4       1.0000 0.96131  0.84094  0.41485  Biso   1.000  O
  O5       1.0000 0.15594  0.89004  0.60598  Biso   1.000  O
  O6       1.0000 0.34406  0.39004  0.89402  Biso   1.000  O
  O7       1.0000 0.84406  0.10996  0.39402  Biso   1.000  O
  O8       1.0000 0.65594  0.60996  0.10598  Biso   1.000  O
  O9       1.0000 0.00070  0.97797  0.69165  Biso   1.000  O
  O10      1.0000 0.49930  0.47797  0.80835  Biso   1.000  O
  O11      1.0000 0.99930  0.02203  0.30835  Biso   1.000  O
  O12      1.0000 0.50070  0.52203  0.19165  Biso   1.000  O
  N1       1.0000 0.59223  0.05927  0.78282  Biso   1.000  N
  N2       1.0000 0.90777  0.55927  0.71718  Biso   1.000  N
  N3       1.0000 0.40777  0.94073  0.21718  Biso   1.000  N
  N4       1.0000 0.09223  0.44073  0.28282  Biso   1.000  N
  O13      1.0000 0.30587  0.57383  0.00368  Biso   1.000  O
  O14      1.0000 0.19413  0.07383  0.49632  Biso   1.000  O
  O15      1.0000 0.69413  0.42617  0.99632  Biso   1.000  O
  O16      1.0000 0.80587  0.92617  0.50368  Biso   1.000  O
  C1       1.0000 0.72410  0.07067  0.76178  Biso   1.000  C
  C2       1.0000 0.77590  0.57067  0.73822  Biso   1.000  C
  C3       1.0000 0.27590  0.92933  0.23822  Biso   1.000  C
  C4       1.0000 0.22410  0.42933  0.26178  Biso   1.000  C
  H1       1.0000 0.79880  0.06500  0.82060  Biso   1.000  H
  H2       1.0000 0.70120  0.56500  0.67940  Biso   1.000  H
  H3       1.0000 0.20120  0.93500  0.17940  Biso   1.000  H
  H4       1.0000 0.29880  0.43500  0.32060  Biso   1.000  H
  C5       1.0000 0.12440  0.85811  0.81049  Biso   1.000  C
  C6       1.0000 0.37560  0.35811  0.68951  Biso   1.000  C
  C7       1.0000 0.87560  0.14189  0.18951  Biso   1.000  C
  C8       1.0000 0.62440  0.64189  0.31049  Biso   1.000  C
  C9       1.0000 0.22931  0.78843  0.82782  Biso   1.000  C
  C10      1.0000 0.27069  0.28843  0.67218  Biso   1.000  C
  C11      1.0000 0.77069  0.21157  0.17218  Biso   1.000  C
  C12      1.0000 0.72931  0.71157  0.32782  Biso   1.000  C
  H5       1.0000 0.28910  0.77960  0.76990  Biso   1.000  H
  H6       1.0000 0.21090  0.27960  0.73010  Biso   1.000  H
  H7       1.0000 0.71090  0.22040  0.23010  Biso   1.000  H
  H8       1.0000 0.78910  0.72040  0.26990  Biso   1.000  H
  C13      1.0000 0.09283  0.91349  0.69380  Biso   1.000  C
  C14      1.0000 0.40717  0.41349  0.80620  Biso   1.000  C
  C15      1.0000 0.90717  0.08651  0.30620  Biso   1.000  C
  C16      1.0000 0.59283  0.58651  0.19380  Biso   1.000  C
  N5       1.0000 0.73401  0.09061  0.64859  Biso   1.000  N
  N6       1.0000 0.76599  0.59061  0.85141  Biso   1.000  N
  N7       1.0000 0.26599  0.90939  0.35141  Biso   1.000  N
  N8       1.0000 0.23401  0.40939  0.14859  Biso   1.000  N
  C17      1.0000 0.24380  0.73195  0.93300  Biso   1.000  C
  C18      1.0000 0.25620  0.23195  0.56700  Biso   1.000  C
  C19      1.0000 0.75620  0.26805  0.06700  Biso   1.000  C
  C20      1.0000 0.74380  0.76805  0.43300  Biso   1.000  C
  C21      1.0000 0.54580  0.02809  0.89479  Biso   1.000  C
  C22      1.0000 0.95420  0.52809  0.60521  Biso   1.000  C
  C23      1.0000 0.45420  0.97191  0.10521  Biso   1.000  C
  C24      1.0000 0.04580  0.47191  0.39479  Biso   1.000  C
  C25      1.0000 0.03840  0.87273  0.90000  Biso   1.000  C
  C26      1.0000 0.46160  0.37273  0.60000  Biso   1.000  C
  C27      1.0000 0.96160  0.12727  0.10000  Biso   1.000  C
  C28      1.0000 0.53840  0.62727  0.40000  Biso   1.000  C
  H9       1.0000 0.97030  0.92090  0.88880  Biso   1.000  H
  H10      1.0000 0.52970  0.42090  0.61120  Biso   1.000  H
  H11      1.0000 0.02970  0.07910  0.11120  Biso   1.000  H
  H12      1.0000 0.47030  0.57910  0.38880  Biso   1.000  H
  C29      1.0000 0.34606  0.64905  0.95178  Biso   1.000  C
  C30      1.0000 0.15394  0.14905  0.54822  Biso   1.000  C
  C31      1.0000 0.65394  0.35095  0.04822  Biso   1.000  C
  C32      1.0000 0.84606  0.85095  0.45178  Biso   1.000  C
  C33      1.0000 0.15480  0.74649  0.01961  Biso   1.000  C
  C34      1.0000 0.34520  0.24649  0.48039  Biso   1.000  C
  C35      1.0000 0.84520  0.25351  0.98039  Biso   1.000  C
  C36      1.0000 0.65480  0.75351  0.51961  Biso   1.000  C
  H13      1.0000 0.16450  0.70780  0.08890  Biso   1.000  H
  H14      1.0000 0.33550  0.20780  0.41110  Biso   1.000  H
  H15      1.0000 0.83550  0.29220  0.91110  Biso   1.000  H
  H16      1.0000 0.66450  0.79220  0.58890  Biso   1.000  H
  C37      1.0000 0.05160  0.81740  0.00504  Biso   1.000  C
  C38      1.0000 0.44840  0.31740  0.49496  Biso   1.000  C
  C39      1.0000 0.94840  0.18260  0.99496  Biso   1.000  C
  C40      1.0000 0.55160  0.68260  0.50504  Biso   1.000  C
  C41      1.0000 0.47900  0.09614  0.96010  Biso   1.000  C
  C42      1.0000 0.02100  0.59614  0.53990  Biso   1.000  C
  C43      1.0000 0.52100  0.90386  0.03990  Biso   1.000  C
  C44      1.0000 0.97900  0.40386  0.46010  Biso   1.000  C
  H17      1.0000 0.46550  0.16040  0.93140  Biso   1.000  H
  H18      1.0000 0.03450  0.66040  0.56860  Biso   1.000  H
  H19      1.0000 0.53450  0.83960  0.06860  Biso   1.000  H
  H20      1.0000 0.96550  0.33960  0.43140  Biso   1.000  H
  C45      1.0000 0.60200  0.09100  0.59340  Biso   1.000  C
  C46      1.0000 0.89800  0.59100  0.90660  Biso   1.000  C
  C47      1.0000 0.39800  0.90900  0.40660  Biso   1.000  C
  C48      1.0000 0.10200  0.40900  0.09340  Biso   1.000  C
  H21      1.0000 0.57680  0.10320  0.51200  Biso   1.000  H
  H22      1.0000 0.92320  0.60320  0.98800  Biso   1.000  H
  H23      1.0000 0.42320  0.89680  0.48800  Biso   1.000  H
  H24      1.0000 0.07680  0.39680  0.01200  Biso   1.000  H
  C49      1.0000 0.36510  0.14419  0.14240  Biso   1.000  C
  C50      1.0000 0.13490  0.64419  0.35760  Biso   1.000  C
  C51      1.0000 0.63490  0.85581  0.85760  Biso   1.000  C
  C52      1.0000 0.86510  0.35581  0.64240  Biso   1.000  C
  H25      1.0000 0.26960  0.12840  0.14180  Biso   1.000  H
  H26      1.0000 0.23040  0.62840  0.35820  Biso   1.000  H
  H27      1.0000 0.73040  0.87160  0.85820  Biso   1.000  H
  H28      1.0000 0.76960  0.37160  0.64180  Biso   1.000  H
  H29      1.0000 0.37400  0.20900  0.10880  Biso   1.000  H
  H30      1.0000 0.12600  0.70900  0.39120  Biso   1.000  H
  H31      1.0000 0.62600  0.79100  0.89120  Biso   1.000  H
  H32      1.0000 0.87400  0.29100  0.60880  Biso   1.000  H
  H33      1.0000 0.40890  0.14310  0.22370  Biso   1.000  H
  H34      1.0000 0.09110  0.64310  0.27630  Biso   1.000  H
  H35      1.0000 0.59110  0.85690  0.77630  Biso   1.000  H
  H36      1.0000 0.90890  0.35690  0.72370  Biso   1.000  H
  C53      1.0000 0.43200  0.06918  0.06843  Biso   1.000  C
  C54      1.0000 0.06800  0.56918  0.43157  Biso   1.000  C
  C55      1.0000 0.56800  0.93082  0.93157  Biso   1.000  C
  C56      1.0000 0.93200  0.43082  0.56843  Biso   1.000  C
  C57      1.0000 0.95170  0.82936  0.09710  Biso   1.000  C
  C58      1.0000 0.54830  0.32936  0.40290  Biso   1.000  C
  C59      1.0000 0.04830  0.17064  0.90290  Biso   1.000  C
  C60      1.0000 0.45170  0.67064  0.59710  Biso   1.000  C
  H37      1.0000 0.91220  0.89440  0.09050  Biso   1.000  H
  H38      1.0000 0.58780  0.39440  0.40950  Biso   1.000  H
  H39      1.0000 0.08780  0.10560  0.90950  Biso   1.000  H
  H40      1.0000 0.41220  0.60560  0.59050  Biso   1.000  H
  H41      1.0000 0.99910  0.82050  0.17650  Biso   1.000  H
  H42      1.0000 0.50090  0.32050  0.32350  Biso   1.000  H
  H43      1.0000 0.00090  0.17950  0.82350  Biso   1.000  H
  H44      1.0000 0.49910  0.67950  0.67650  Biso   1.000  H
  H45      1.0000 0.88030  0.78070  0.08300  Biso   1.000  H
  H46      1.0000 0.61970  0.28070  0.41700  Biso   1.000  H
  H47      1.0000 0.11970  0.21930  0.91700  Biso   1.000  H
  H48      1.0000 0.38030  0.71930  0.58300  Biso   1.000  H
  C61      1.0000 0.51350  0.07100  0.67440  Biso   1.000  C
  C62      1.0000 0.98650  0.57100  0.82560  Biso   1.000  C
  C63      1.0000 0.48650  0.92900  0.32560  Biso   1.000  C
  C64      1.0000 0.01350  0.42900  0.17440  Biso   1.000  C
  H49      1.0000 0.41850  0.06610  0.65950  Biso   1.000  H
  H50      1.0000 0.08150  0.56610  0.84050  Biso   1.000  H
  H51      1.0000 0.58150  0.93390  0.34050  Biso   1.000  H
  H52      1.0000 0.91850  0.43390  0.15950  Biso   1.000  H
