data_image0
_cell_length_a       11.678
_cell_length_b       14.596
_cell_length_c       18.893
_cell_angle_alpha    90
_cell_angle_beta     104.11
_cell_angle_gamma    90

_symmetry_space_group_name_H-M    "P 1"
_symmetry_int_tables_number       1

loop_
  _symmetry_equiv_pos_as_xyz
  'x, y, z'

loop_
  _atom_site_label
  _atom_site_occupancy
  _atom_site_fract_x
  _atom_site_fract_y
  _atom_site_fract_z
  _atom_site_thermal_displace_type
  _atom_site_B_iso_or_equiv
  _atom_site_type_symbol
  Cu1      1.0000 0.38162  0.51473  0.99279  Biso   1.000  Cu
  Cu2      1.0000 0.11838  0.01473  0.50721  Biso   1.000  Cu
  Cu3      1.0000 0.61838  0.48527  0.00721  Biso   1.000  Cu
  Cu4      1.0000 0.88162  0.98527  0.49279  Biso   1.000  Cu
  Cu5      1.0000 0.54216  0.57475  0.54009  Biso   1.000  Cu
  Cu6      1.0000 0.95784  0.07475  0.95991  Biso   1.000  Cu
  Cu7      1.0000 0.45784  0.42525  0.45991  Biso   1.000  Cu
  Cu8      1.0000 0.04216  0.92525  0.04009  Biso   1.000  Cu
  C1       1.0000 0.70320  0.43026  0.53030  Biso   1.000  C
  C2       1.0000 0.79680  0.93026  0.96970  Biso   1.000  C
  C3       1.0000 0.29680  0.56974  0.46970  Biso   1.000  C
  C4       1.0000 0.20320  0.06974  0.03030  Biso   1.000  C
  C5       1.0000 0.82490  0.39020  0.54803  Biso   1.000  C
  C6       1.0000 0.67510  0.89020  0.95197  Biso   1.000  C
  C7       1.0000 0.17510  0.60980  0.45197  Biso   1.000  C
  C8       1.0000 0.32490  0.10980  0.04803  Biso   1.000  C
  N1       1.0000 0.00530  0.57103  0.92832  Biso   1.000  N
  N2       1.0000 0.49470  0.07103  0.57168  Biso   1.000  N
  N3       1.0000 0.99470  0.42897  0.07168  Biso   1.000  N
  N4       1.0000 0.50530  0.92897  0.42832  Biso   1.000  N
  O1       1.0000 0.42700  0.37206  0.54857  Biso   1.000  O
  O2       1.0000 0.07300  0.87206  0.95143  Biso   1.000  O
  O3       1.0000 0.57300  0.62794  0.45143  Biso   1.000  O
  O4       1.0000 0.92700  0.12794  0.04857  Biso   1.000  O
  O5       1.0000 0.07365  0.13690  0.53636  Biso   1.000  O
  O6       1.0000 0.42635  0.63690  0.96364  Biso   1.000  O
  O7       1.0000 0.92635  0.86310  0.46364  Biso   1.000  O
  O8       1.0000 0.57365  0.36310  0.03636  Biso   1.000  O
  O9       1.0000 0.88108  0.11231  0.52658  Biso   1.000  O
  O10      1.0000 0.61892  0.61231  0.97342  Biso   1.000  O
  O11      1.0000 0.11892  0.88769  0.47342  Biso   1.000  O
  O12      1.0000 0.38108  0.38769  0.02658  Biso   1.000  O
  C9       1.0000 0.84150  0.29833  0.53484  Biso   1.000  C
  C10      1.0000 0.65850  0.79833  0.96516  Biso   1.000  C
  C11      1.0000 0.15850  0.70167  0.46516  Biso   1.000  C
  C12      1.0000 0.34150  0.20167  0.03484  Biso   1.000  C
  H1       1.0000 0.77690  0.26120  0.51510  Biso   1.000  H
  H2       1.0000 0.72310  0.76120  0.98490  Biso   1.000  H
  H3       1.0000 0.22310  0.73880  0.48490  Biso   1.000  H
  H4       1.0000 0.27690  0.23880  0.01510  Biso   1.000  H
  N5       1.0000 0.19720  0.55054  0.97063  Biso   1.000  N
  N6       1.0000 0.30280  0.05054  0.52937  Biso   1.000  N
  N7       1.0000 0.80280  0.44946  0.02937  Biso   1.000  N
  N8       1.0000 0.69720  0.94946  0.47063  Biso   1.000  N
  O13      1.0000 0.62243  0.38306  0.49193  Biso   1.000  O
  O14      1.0000 0.87757  0.88306  0.00807  Biso   1.000  O
  O15      1.0000 0.37757  0.61694  0.50807  Biso   1.000  O
  O16      1.0000 0.12243  0.11694  0.99193  Biso   1.000  O
  N9       1.0000 0.69590  0.75130  0.71743  Biso   1.000  N
  N10      1.0000 0.80410  0.25130  0.78257  Biso   1.000  N
  N11      1.0000 0.30410  0.24870  0.28257  Biso   1.000  N
  N12      1.0000 0.19590  0.74870  0.21743  Biso   1.000  N
  O17      1.0000 0.49780  0.49549  0.61411  Biso   1.000  O
  O18      1.0000 0.00220  0.99549  0.88589  Biso   1.000  O
  O19      1.0000 0.50220  0.50451  0.38589  Biso   1.000  O
  O20      1.0000 0.99780  0.00451  0.11411  Biso   1.000  O
  O21      1.0000 0.69206  0.50816  0.55525  Biso   1.000  O
  O22      1.0000 0.80794  0.00816  0.94475  Biso   1.000  O
  O23      1.0000 0.30794  0.49184  0.44475  Biso   1.000  O
  O24      1.0000 0.19206  0.99184  0.05525  Biso   1.000  O
  O25      1.0000 0.56960  0.44155  0.90423  Biso   1.000  O
  O26      1.0000 0.93040  0.94155  0.59577  Biso   1.000  O
  O27      1.0000 0.43040  0.55845  0.09577  Biso   1.000  O
  O28      1.0000 0.06960  0.05845  0.40423  Biso   1.000  O
  C13      1.0000 0.42670  0.37553  0.67349  Biso   1.000  C
  C14      1.0000 0.07330  0.87553  0.82651  Biso   1.000  C
  C15      1.0000 0.57330  0.62447  0.32651  Biso   1.000  C
  C16      1.0000 0.92670  0.12447  0.17349  Biso   1.000  C
  C17      1.0000 0.95470  0.26176  0.55119  Biso   1.000  C
  C18      1.0000 0.54530  0.76176  0.94881  Biso   1.000  C
  C19      1.0000 0.04530  0.73824  0.44881  Biso   1.000  C
  C20      1.0000 0.45470  0.23824  0.05119  Biso   1.000  C
  N13      1.0000 0.59370  0.68025  0.62069  Biso   1.000  N
  N14      1.0000 0.90630  0.18025  0.87931  Biso   1.000  N
  N15      1.0000 0.40630  0.31975  0.37931  Biso   1.000  N
  N16      1.0000 0.09370  0.81975  0.12069  Biso   1.000  N
  C21      1.0000 0.43070  0.38540  0.80073  Biso   1.000  C
  C22      1.0000 0.06930  0.88540  0.69927  Biso   1.000  C
  C23      1.0000 0.56930  0.61460  0.19927  Biso   1.000  C
  C24      1.0000 0.93070  0.11460  0.30073  Biso   1.000  C
  O29      1.0000 0.37800  0.46367  0.89572  Biso   1.000  O
  O30      1.0000 0.12200  0.96367  0.60428  Biso   1.000  O
  O31      1.0000 0.62200  0.53633  0.10428  Biso   1.000  O
  O32      1.0000 0.87800  0.03633  0.39572  Biso   1.000  O
  C25      1.0000 0.45940  0.42168  0.73983  Biso   1.000  C
  C26      1.0000 0.04060  0.92168  0.76017  Biso   1.000  C
  C27      1.0000 0.54060  0.57832  0.26017  Biso   1.000  C
  C28      1.0000 0.95940  0.07832  0.23983  Biso   1.000  C
  H5       1.0000 0.50040  0.47670  0.74310  Biso   1.000  H
  H6       1.0000 0.99960  0.97670  0.75690  Biso   1.000  H
  H7       1.0000 0.49960  0.52330  0.25690  Biso   1.000  H
  H8       1.0000 0.00040  0.02330  0.24310  Biso   1.000  H
  C29      1.0000 0.33960  0.25430  0.73027  Biso   1.000  C
  C30      1.0000 0.16040  0.75430  0.76973  Biso   1.000  C
  C31      1.0000 0.66040  0.74570  0.26973  Biso   1.000  C
  C32      1.0000 0.83960  0.24570  0.23027  Biso   1.000  C
  C33      1.0000 0.85330  0.62240  0.81976  Biso   1.000  C
  C34      1.0000 0.64670  0.12240  0.68024  Biso   1.000  C
  C35      1.0000 0.14670  0.37760  0.18024  Biso   1.000  C
  C36      1.0000 0.35330  0.87760  0.31976  Biso   1.000  C
  H9       1.0000 0.91830  0.62320  0.79620  Biso   1.000  H
  H10      1.0000 0.58170  0.12320  0.70380  Biso   1.000  H
  H11      1.0000 0.08170  0.37680  0.20380  Biso   1.000  H
  H12      1.0000 0.41830  0.87680  0.29620  Biso   1.000  H
  H13      1.0000 0.78460  0.59840  0.78500  Biso   1.000  H
  H14      1.0000 0.71540  0.09840  0.71500  Biso   1.000  H
  H15      1.0000 0.21540  0.40160  0.21500  Biso   1.000  H
  H16      1.0000 0.28460  0.90160  0.28500  Biso   1.000  H
  C37      1.0000 0.69950  0.70919  0.65471  Biso   1.000  C
  C38      1.0000 0.80050  0.20919  0.84529  Biso   1.000  C
  C39      1.0000 0.30050  0.29081  0.34529  Biso   1.000  C
  C40      1.0000 0.19950  0.79081  0.15471  Biso   1.000  C
  C41      1.0000 0.10090  0.52030  0.92410  Biso   1.000  C
  C42      1.0000 0.39910  0.02030  0.57590  Biso   1.000  C
  C43      1.0000 0.89910  0.47970  0.07590  Biso   1.000  C
  C44      1.0000 0.60090  0.97970  0.42410  Biso   1.000  C
  C45      1.0000 0.97140  0.16175  0.53732  Biso   1.000  C
  C46      1.0000 0.52860  0.66175  0.96268  Biso   1.000  C
  C47      1.0000 0.02860  0.83825  0.46268  Biso   1.000  C
  C48      1.0000 0.47140  0.33825  0.03732  Biso   1.000  C
  C49      1.0000 0.82770  0.71950  0.83882  Biso   1.000  C
  C50      1.0000 0.67230  0.21950  0.66118  Biso   1.000  C
  C51      1.0000 0.17230  0.28050  0.16118  Biso   1.000  C
  C52      1.0000 0.32770  0.78050  0.33882  Biso   1.000  C
  H17      1.0000 0.89630  0.74330  0.87380  Biso   1.000  H
  H18      1.0000 0.60370  0.24330  0.62620  Biso   1.000  H
  H19      1.0000 0.10370  0.25670  0.12620  Biso   1.000  H
  H20      1.0000 0.39630  0.75670  0.37380  Biso   1.000  H
  H21      1.0000 0.76260  0.71870  0.86230  Biso   1.000  H
  H22      1.0000 0.73740  0.21870  0.63770  Biso   1.000  H
  H23      1.0000 0.23740  0.28130  0.13770  Biso   1.000  H
  H24      1.0000 0.26260  0.78130  0.36230  Biso   1.000  H
  C53      1.0000 0.05020  0.31820  0.57830  Biso   1.000  C
  C54      1.0000 0.44980  0.81820  0.92170  Biso   1.000  C
  C55      1.0000 0.94980  0.68180  0.42170  Biso   1.000  C
  C56      1.0000 0.55020  0.18180  0.07830  Biso   1.000  C
  H25      1.0000 0.12600  0.29400  0.58710  Biso   1.000  H
  H26      1.0000 0.37400  0.79400  0.91290  Biso   1.000  H
  H27      1.0000 0.87400  0.70600  0.41290  Biso   1.000  H
  H28      1.0000 0.62600  0.20600  0.08710  Biso   1.000  H
  C57      1.0000 0.37010  0.29135  0.66989  Biso   1.000  C
  C58      1.0000 0.12990  0.79135  0.83011  Biso   1.000  C
  C59      1.0000 0.62990  0.70865  0.33011  Biso   1.000  C
  C60      1.0000 0.87010  0.20865  0.16989  Biso   1.000  C
  H29      1.0000 0.35250  0.25920  0.62610  Biso   1.000  H
  H30      1.0000 0.14750  0.75920  0.87390  Biso   1.000  H
  H31      1.0000 0.64750  0.74080  0.37390  Biso   1.000  H
  H32      1.0000 0.85250  0.24080  0.12610  Biso   1.000  H
  C61      1.0000 0.92220  0.44500  0.57730  Biso   1.000  C
  C62      1.0000 0.57780  0.94500  0.92270  Biso   1.000  C
  C63      1.0000 0.07780  0.55500  0.42270  Biso   1.000  C
  C64      1.0000 0.42220  0.05500  0.07730  Biso   1.000  C
  H33      1.0000 0.91070  0.50640  0.58680  Biso   1.000  H
  H34      1.0000 0.58930  0.00640  0.91320  Biso   1.000  H
  H35      1.0000 0.08930  0.49360  0.41320  Biso   1.000  H
  H36      1.0000 0.41070  0.99360  0.08680  Biso   1.000  H
  C65      1.0000 0.45300  0.41750  0.60699  Biso   1.000  C
  C66      1.0000 0.04700  0.91750  0.89301  Biso   1.000  C
  C67      1.0000 0.54700  0.58250  0.39301  Biso   1.000  C
  C68      1.0000 0.95300  0.08250  0.10699  Biso   1.000  C
  C69      1.0000 0.04350  0.63660  0.98050  Biso   1.000  C
  C70      1.0000 0.45650  0.13660  0.51950  Biso   1.000  C
  C71      1.0000 0.95650  0.36340  0.01950  Biso   1.000  C
  C72      1.0000 0.54350  0.86340  0.48050  Biso   1.000  C
  H37      1.0000 0.99780  0.68140  0.99530  Biso   1.000  H
  H38      1.0000 0.50220  0.18140  0.50470  Biso   1.000  H
  H39      1.0000 0.00220  0.31860  0.00470  Biso   1.000  H
  H40      1.0000 0.49780  0.81860  0.49530  Biso   1.000  H
  C73      1.0000 0.58170  0.74700  0.72412  Biso   1.000  C
  C74      1.0000 0.91830  0.24700  0.77588  Biso   1.000  C
  C75      1.0000 0.41830  0.25300  0.27588  Biso   1.000  C
  C76      1.0000 0.08170  0.75300  0.22412  Biso   1.000  C
  H41      1.0000 0.55300  0.76950  0.76250  Biso   1.000  H
  H42      1.0000 0.94700  0.26950  0.73750  Biso   1.000  H
  H43      1.0000 0.44700  0.23050  0.23750  Biso   1.000  H
  H44      1.0000 0.05300  0.73050  0.26250  Biso   1.000  H
  C77      1.0000 0.88410  0.55860  0.88460  Biso   1.000  C
  C78      1.0000 0.61590  0.05860  0.61540  Biso   1.000  C
  C79      1.0000 0.11590  0.44140  0.11540  Biso   1.000  C
  C80      1.0000 0.38410  0.94140  0.38460  Biso   1.000  C
  H45      1.0000 0.82970  0.56900  0.91530  Biso   1.000  H
  H46      1.0000 0.67030  0.06900  0.58470  Biso   1.000  H
  H47      1.0000 0.17030  0.43100  0.08470  Biso   1.000  H
  H48      1.0000 0.32970  0.93100  0.41530  Biso   1.000  H
  H49      1.0000 0.87410  0.49580  0.86740  Biso   1.000  H
  H50      1.0000 0.62590  0.99580  0.63260  Biso   1.000  H
  H51      1.0000 0.12590  0.50420  0.13260  Biso   1.000  H
  H52      1.0000 0.37410  0.00420  0.36740  Biso   1.000  H
  C81      1.0000 0.03590  0.41010  0.59270  Biso   1.000  C
  C82      1.0000 0.46410  0.91010  0.90730  Biso   1.000  C
  C83      1.0000 0.96410  0.58990  0.40730  Biso   1.000  C
  C84      1.0000 0.53590  0.08990  0.09270  Biso   1.000  C
  C85      1.0000 0.46300  0.43474  0.87305  Biso   1.000  C
  C86      1.0000 0.03700  0.93474  0.62695  Biso   1.000  C
  C87      1.0000 0.53700  0.56526  0.12695  Biso   1.000  C
  C88      1.0000 0.96300  0.06526  0.37305  Biso   1.000  C
  C89      1.0000 0.37040  0.30280  0.79552  Biso   1.000  C
  C90      1.0000 0.12960  0.80280  0.70448  Biso   1.000  C
  C91      1.0000 0.62960  0.69720  0.20448  Biso   1.000  C
  C92      1.0000 0.87040  0.19720  0.29552  Biso   1.000  C
  H53      1.0000 0.35020  0.27930  0.83660  Biso   1.000  H
  H54      1.0000 0.14980  0.77930  0.66340  Biso   1.000  H
  H55      1.0000 0.64980  0.72070  0.16340  Biso   1.000  H
  H56      1.0000 0.85020  0.22070  0.33660  Biso   1.000  H
  C93      1.0000 0.80750  0.69760  0.62810  Biso   1.000  C
  C94      1.0000 0.69250  0.19760  0.87190  Biso   1.000  C
  C95      1.0000 0.19250  0.30240  0.37190  Biso   1.000  C
  C96      1.0000 0.30750  0.80240  0.12810  Biso   1.000  C
  H57      1.0000 0.78650  0.67690  0.57840  Biso   1.000  H
  H58      1.0000 0.71350  0.17690  0.92160  Biso   1.000  H
  H59      1.0000 0.21350  0.32310  0.42160  Biso   1.000  H
  H60      1.0000 0.28650  0.82310  0.07840  Biso   1.000  H
  H61      1.0000 0.85810  0.65330  0.65780  Biso   1.000  H
  H62      1.0000 0.64190  0.15330  0.84220  Biso   1.000  H
  H63      1.0000 0.14190  0.34670  0.34220  Biso   1.000  H
  H64      1.0000 0.35810  0.84670  0.15780  Biso   1.000  H
  H65      1.0000 0.84810  0.75520  0.63080  Biso   1.000  H
  H66      1.0000 0.65190  0.25520  0.86920  Biso   1.000  H
  H67      1.0000 0.15190  0.24480  0.36920  Biso   1.000  H
  H68      1.0000 0.34810  0.74480  0.13080  Biso   1.000  H
  C97      1.0000 0.79710  0.78410  0.77419  Biso   1.000  C
  C98      1.0000 0.70290  0.28410  0.72581  Biso   1.000  C
  C99      1.0000 0.20290  0.21590  0.22581  Biso   1.000  C
  C100     1.0000 0.29710  0.71590  0.27419  Biso   1.000  C
  H69      1.0000 0.77890  0.84410  0.79070  Biso   1.000  H
  H70      1.0000 0.72110  0.34410  0.70930  Biso   1.000  H
  H71      1.0000 0.22110  0.15590  0.20930  Biso   1.000  H
  H72      1.0000 0.27890  0.65590  0.29070  Biso   1.000  H
  H73      1.0000 0.86500  0.79050  0.75350  Biso   1.000  H
  H74      1.0000 0.63500  0.29050  0.74650  Biso   1.000  H
  H75      1.0000 0.13500  0.20950  0.24650  Biso   1.000  H
  H76      1.0000 0.36500  0.70950  0.25350  Biso   1.000  H
  C101     1.0000 0.09650  0.44130  0.87390  Biso   1.000  C
  C102     1.0000 0.40350  0.94130  0.62610  Biso   1.000  C
  C103     1.0000 0.90350  0.55870  0.12610  Biso   1.000  C
  C104     1.0000 0.59650  0.05870  0.37390  Biso   1.000  C
  H77      1.0000 0.17500  0.41830  0.87820  Biso   1.000  H
  H78      1.0000 0.32500  0.91830  0.62180  Biso   1.000  H
  H79      1.0000 0.82500  0.58170  0.12180  Biso   1.000  H
  H80      1.0000 0.67500  0.08170  0.37820  Biso   1.000  H
  H81      1.0000 0.06370  0.46070  0.82460  Biso   1.000  H
  H82      1.0000 0.43630  0.96070  0.67540  Biso   1.000  H
  H83      1.0000 0.93630  0.53930  0.17540  Biso   1.000  H
  H84      1.0000 0.56370  0.03930  0.32460  Biso   1.000  H
  H85      1.0000 0.04820  0.39380  0.88640  Biso   1.000  H
  H86      1.0000 0.45180  0.89380  0.61360  Biso   1.000  H
  H87      1.0000 0.95180  0.60620  0.11360  Biso   1.000  H
  H88      1.0000 0.54820  0.10620  0.38640  Biso   1.000  H
  C105     1.0000 0.51970  0.70400  0.66445  Biso   1.000  C
  C106     1.0000 0.98030  0.20400  0.83555  Biso   1.000  C
  C107     1.0000 0.48030  0.29600  0.33555  Biso   1.000  C
  C108     1.0000 0.01970  0.79600  0.16445  Biso   1.000  C
  H89      1.0000 0.43910  0.69210  0.65410  Biso   1.000  H
  H90      1.0000 0.06090  0.19210  0.84590  Biso   1.000  H
  H91      1.0000 0.56090  0.30790  0.34590  Biso   1.000  H
  H92      1.0000 0.93910  0.80790  0.15410  Biso   1.000  H
  C109     1.0000 0.16040  0.62360  0.00609  Biso   1.000  C
  C110     1.0000 0.33960  0.12360  0.49391  Biso   1.000  C
  C111     1.0000 0.83960  0.37640  0.99391  Biso   1.000  C
  C112     1.0000 0.66040  0.87640  0.50609  Biso   1.000  C
  H93      1.0000 0.20930  0.65860  0.04230  Biso   1.000  H
  H94      1.0000 0.29070  0.15860  0.45770  Biso   1.000  H
  H95      1.0000 0.79070  0.34140  0.95770  Biso   1.000  H
  H96      1.0000 0.70930  0.84140  0.54230  Biso   1.000  H
  C113     1.0000 0.27470  0.16340  0.72500  Biso   1.000  C
  C114     1.0000 0.22530  0.66340  0.77500  Biso   1.000  C
  C115     1.0000 0.72530  0.83660  0.27500  Biso   1.000  C
  C116     1.0000 0.77470  0.33660  0.22500  Biso   1.000  C
  H97      1.0000 0.21480  0.16690  0.75180  Biso   1.000  H
  H98      1.0000 0.28520  0.66690  0.74820  Biso   1.000  H
  H99      1.0000 0.78520  0.83310  0.24820  Biso   1.000  H
  H100     1.0000 0.71480  0.33310  0.25180  Biso   1.000  H
  H101     1.0000 0.32960  0.11570  0.74510  Biso   1.000  H
  H102     1.0000 0.17040  0.61570  0.75490  Biso   1.000  H
  H103     1.0000 0.67040  0.88430  0.25490  Biso   1.000  H
  H104     1.0000 0.82960  0.38430  0.24510  Biso   1.000  H
  H105     1.0000 0.23880  0.15000  0.67470  Biso   1.000  H
  H106     1.0000 0.26120  0.65000  0.82530  Biso   1.000  H
  H107     1.0000 0.76120  0.85000  0.32530  Biso   1.000  H
  H108     1.0000 0.73880  0.35000  0.17470  Biso   1.000  H
  C117     1.0000 0.14160  0.47200  0.62200  Biso   1.000  C
  C118     1.0000 0.35840  0.97200  0.87800  Biso   1.000  C
  C119     1.0000 0.85840  0.52800  0.37800  Biso   1.000  C
  C120     1.0000 0.64160  0.02800  0.12200  Biso   1.000  C
  H109     1.0000 0.17240  0.46040  0.67310  Biso   1.000  H
  H110     1.0000 0.32760  0.96040  0.82690  Biso   1.000  H
  H111     1.0000 0.82760  0.53960  0.32690  Biso   1.000  H
  H112     1.0000 0.67240  0.03960  0.17310  Biso   1.000  H
  H113     1.0000 0.11750  0.53500  0.61500  Biso   1.000  H
  H114     1.0000 0.38250  0.03500  0.88500  Biso   1.000  H
  H115     1.0000 0.88250  0.46500  0.38500  Biso   1.000  H
  H116     1.0000 0.61750  0.96500  0.11500  Biso   1.000  H
  H117     1.0000 0.20160  0.45980  0.59640  Biso   1.000  H
  H118     1.0000 0.29840  0.95980  0.90360  Biso   1.000  H
  H119     1.0000 0.79840  0.54020  0.40360  Biso   1.000  H
  H120     1.0000 0.70160  0.04020  0.09640  Biso   1.000  H
