data_image0
_cell_length_a       6.6211
_cell_length_b       24.283
_cell_length_c       16.819
_cell_angle_alpha    90
_cell_angle_beta     97.681
_cell_angle_gamma    90

_symmetry_space_group_name_H-M    "P 1"
_symmetry_int_tables_number       1

loop_
  _symmetry_equiv_pos_as_xyz
  'x, y, z'

loop_
  _atom_site_label
  _atom_site_occupancy
  _atom_site_fract_x
  _atom_site_fract_y
  _atom_site_fract_z
  _atom_site_thermal_displace_type
  _atom_site_B_iso_or_equiv
  _atom_site_type_symbol
  Cu1      1.0000 0.75000  0.25000  0.00000  Biso   1.000  Cu
  Cu2      1.0000 0.25000  0.25000  0.50000  Biso   1.000  Cu
  Cu3      1.0000 0.25000  0.75000  0.00000  Biso   1.000  Cu
  Cu4      1.0000 0.75000  0.75000  0.50000  Biso   1.000  Cu
  C1       1.0000 0.03640  0.21481  0.14719  Biso   1.000  C
  C2       1.0000 0.96360  0.21481  0.35281  Biso   1.000  C
  C3       1.0000 0.53640  0.71481  0.14719  Biso   1.000  C
  C4       1.0000 0.46360  0.71481  0.35281  Biso   1.000  C
  C5       1.0000 0.96360  0.78519  0.85281  Biso   1.000  C
  C6       1.0000 0.03640  0.78519  0.64719  Biso   1.000  C
  C7       1.0000 0.46360  0.28519  0.85281  Biso   1.000  C
  C8       1.0000 0.53640  0.28519  0.64719  Biso   1.000  C
  H1       1.0000 0.94490  0.18880  0.16170  Biso   1.000  H
  H2       1.0000 0.05510  0.18880  0.33830  Biso   1.000  H
  H3       1.0000 0.44490  0.68880  0.16170  Biso   1.000  H
  H4       1.0000 0.55510  0.68880  0.33830  Biso   1.000  H
  H5       1.0000 0.05510  0.81120  0.83830  Biso   1.000  H
  H6       1.0000 0.94490  0.81120  0.66170  Biso   1.000  H
  H7       1.0000 0.55510  0.31120  0.83830  Biso   1.000  H
  H8       1.0000 0.44490  0.31120  0.66170  Biso   1.000  H
  C9       1.0000 0.16300  0.27787  0.08355  Biso   1.000  C
  C10      1.0000 0.83700  0.27787  0.41645  Biso   1.000  C
  C11      1.0000 0.66300  0.77787  0.08355  Biso   1.000  C
  C12      1.0000 0.33700  0.77787  0.41645  Biso   1.000  C
  C13      1.0000 0.83700  0.72213  0.91645  Biso   1.000  C
  C14      1.0000 0.16300  0.72213  0.58355  Biso   1.000  C
  C15      1.0000 0.33700  0.22213  0.91645  Biso   1.000  C
  C16      1.0000 0.66300  0.22213  0.58355  Biso   1.000  C
  H9       1.0000 0.18490  0.30500  0.04660  Biso   1.000  H
  H10      1.0000 0.81510  0.30500  0.45340  Biso   1.000  H
  H11      1.0000 0.68490  0.80500  0.04660  Biso   1.000  H
  H12      1.0000 0.31510  0.80500  0.45340  Biso   1.000  H
  H13      1.0000 0.81510  0.69500  0.95340  Biso   1.000  H
  H14      1.0000 0.18490  0.69500  0.54660  Biso   1.000  H
  H15      1.0000 0.31510  0.19500  0.95340  Biso   1.000  H
  H16      1.0000 0.68490  0.19500  0.54660  Biso   1.000  H
  C17      1.0000 0.49710  0.28688  0.17323  Biso   1.000  C
  C18      1.0000 0.50290  0.28688  0.32677  Biso   1.000  C
  C19      1.0000 0.99710  0.78688  0.17323  Biso   1.000  C
  C20      1.0000 0.00290  0.78688  0.32677  Biso   1.000  C
  C21      1.0000 0.50290  0.71312  0.82677  Biso   1.000  C
  C22      1.0000 0.49710  0.71312  0.67323  Biso   1.000  C
  C23      1.0000 0.00290  0.21312  0.82677  Biso   1.000  C
  C24      1.0000 0.99710  0.21312  0.67323  Biso   1.000  C
  H17      1.0000 0.53670  0.31030  0.13120  Biso   1.000  H
  H18      1.0000 0.46330  0.31030  0.36880  Biso   1.000  H
  H19      1.0000 0.03670  0.81030  0.13120  Biso   1.000  H
  H20      1.0000 0.96330  0.81030  0.36880  Biso   1.000  H
  H21      1.0000 0.46330  0.68970  0.86880  Biso   1.000  H
  H22      1.0000 0.53670  0.68970  0.63120  Biso   1.000  H
  H23      1.0000 0.96330  0.18970  0.86880  Biso   1.000  H
  H24      1.0000 0.03670  0.18970  0.63120  Biso   1.000  H
  H25      1.0000 0.59610  0.25740  0.18250  Biso   1.000  H
  H26      1.0000 0.40390  0.25740  0.31750  Biso   1.000  H
  H27      1.0000 0.09610  0.75740  0.18250  Biso   1.000  H
  H28      1.0000 0.90390  0.75740  0.31750  Biso   1.000  H
  H29      1.0000 0.40390  0.74260  0.81750  Biso   1.000  H
  H30      1.0000 0.59610  0.74260  0.68250  Biso   1.000  H
  H31      1.0000 0.90390  0.24260  0.81750  Biso   1.000  H
  H32      1.0000 0.09610  0.24260  0.68250  Biso   1.000  H
  C25      1.0000 0.50000  0.32058  0.25000  Biso   1.000  C
  C26      1.0000 0.00000  0.82058  0.25000  Biso   1.000  C
  C27      1.0000 0.50000  0.67942  0.75000  Biso   1.000  C
  C28      1.0000 0.00000  0.17942  0.75000  Biso   1.000  C
  H33      1.0000 0.38630  0.34590  0.24410  Biso   1.000  H
  H34      1.0000 0.61370  0.34590  0.25590  Biso   1.000  H
  H35      1.0000 0.88630  0.84590  0.24410  Biso   1.000  H
  H36      1.0000 0.11370  0.84590  0.25590  Biso   1.000  H
  H37      1.0000 0.61370  0.65410  0.75590  Biso   1.000  H
  H38      1.0000 0.38630  0.65410  0.74410  Biso   1.000  H
  H39      1.0000 0.11370  0.15410  0.75590  Biso   1.000  H
  H40      1.0000 0.88630  0.15410  0.74410  Biso   1.000  H
  C29      1.0000 0.63340  0.09055  0.06981  Biso   1.000  C
  C30      1.0000 0.36660  0.09055  0.43019  Biso   1.000  C
  C31      1.0000 0.13340  0.59055  0.06981  Biso   1.000  C
  C32      1.0000 0.86660  0.59055  0.43019  Biso   1.000  C
  C33      1.0000 0.36660  0.90945  0.93019  Biso   1.000  C
  C34      1.0000 0.63340  0.90945  0.56981  Biso   1.000  C
  C35      1.0000 0.86660  0.40945  0.93019  Biso   1.000  C
  C36      1.0000 0.13340  0.40945  0.56981  Biso   1.000  C
  C37      1.0000 0.73010  0.04039  0.06159  Biso   1.000  C
  C38      1.0000 0.26990  0.04039  0.43841  Biso   1.000  C
  C39      1.0000 0.23010  0.54039  0.06159  Biso   1.000  C
  C40      1.0000 0.76990  0.54039  0.43841  Biso   1.000  C
  C41      1.0000 0.26990  0.95961  0.93841  Biso   1.000  C
  C42      1.0000 0.73010  0.95961  0.56159  Biso   1.000  C
  C43      1.0000 0.76990  0.45961  0.93841  Biso   1.000  C
  C44      1.0000 0.23010  0.45961  0.56159  Biso   1.000  C
  H41      1.0000 0.84290  0.03900  0.03410  Biso   1.000  H
  H42      1.0000 0.15710  0.03900  0.46590  Biso   1.000  H
  H43      1.0000 0.34290  0.53900  0.03410  Biso   1.000  H
  H44      1.0000 0.65710  0.53900  0.46590  Biso   1.000  H
  H45      1.0000 0.15710  0.96100  0.96590  Biso   1.000  H
  H46      1.0000 0.84290  0.96100  0.53410  Biso   1.000  H
  H47      1.0000 0.65710  0.46100  0.96590  Biso   1.000  H
  H48      1.0000 0.34290  0.46100  0.53410  Biso   1.000  H
  C45      1.0000 0.66130  0.99240  0.09358  Biso   1.000  C
  C46      1.0000 0.33870  0.99240  0.40642  Biso   1.000  C
  C47      1.0000 0.16130  0.49240  0.09358  Biso   1.000  C
  C48      1.0000 0.83870  0.49240  0.40642  Biso   1.000  C
  C49      1.0000 0.33870  0.00760  0.90642  Biso   1.000  C
  C50      1.0000 0.66130  0.00760  0.59358  Biso   1.000  C
  C51      1.0000 0.83870  0.50760  0.90642  Biso   1.000  C
  C52      1.0000 0.16130  0.50760  0.59358  Biso   1.000  C
  C53      1.0000 0.49290  0.99395  0.13376  Biso   1.000  C
  C54      1.0000 0.50710  0.99395  0.36624  Biso   1.000  C
  C55      1.0000 0.99290  0.49395  0.13376  Biso   1.000  C
  C56      1.0000 0.00710  0.49395  0.36624  Biso   1.000  C
  C57      1.0000 0.50710  0.00605  0.86624  Biso   1.000  C
  C58      1.0000 0.49290  0.00605  0.63376  Biso   1.000  C
  C59      1.0000 0.00710  0.50605  0.86624  Biso   1.000  C
  C60      1.0000 0.99290  0.50605  0.63376  Biso   1.000  C
  H49      1.0000 0.44400  0.96170  0.15420  Biso   1.000  H
  H50      1.0000 0.55600  0.96170  0.34580  Biso   1.000  H
  H51      1.0000 0.94400  0.46170  0.15420  Biso   1.000  H
  H52      1.0000 0.05600  0.46170  0.34580  Biso   1.000  H
  H53      1.0000 0.55600  0.03830  0.84580  Biso   1.000  H
  H54      1.0000 0.44400  0.03830  0.65420  Biso   1.000  H
  H55      1.0000 0.05600  0.53830  0.84580  Biso   1.000  H
  H56      1.0000 0.94400  0.53830  0.65420  Biso   1.000  H
  C61      1.0000 0.39700  0.04381  0.14360  Biso   1.000  C
  C62      1.0000 0.60300  0.04381  0.35640  Biso   1.000  C
  C63      1.0000 0.89700  0.54381  0.14360  Biso   1.000  C
  C64      1.0000 0.10300  0.54381  0.35640  Biso   1.000  C
  C65      1.0000 0.60300  0.95619  0.85640  Biso   1.000  C
  C66      1.0000 0.39700  0.95619  0.64360  Biso   1.000  C
  C67      1.0000 0.10300  0.45619  0.85640  Biso   1.000  C
  C68      1.0000 0.89700  0.45619  0.64360  Biso   1.000  C
  C69      1.0000 0.46760  0.09216  0.11254  Biso   1.000  C
  C70      1.0000 0.53240  0.09216  0.38746  Biso   1.000  C
  C71      1.0000 0.96760  0.59216  0.11254  Biso   1.000  C
  C72      1.0000 0.03240  0.59216  0.38746  Biso   1.000  C
  C73      1.0000 0.53240  0.90784  0.88746  Biso   1.000  C
  C74      1.0000 0.46760  0.90784  0.61254  Biso   1.000  C
  C75      1.0000 0.03240  0.40784  0.88746  Biso   1.000  C
  C76      1.0000 0.96760  0.40784  0.61254  Biso   1.000  C
  H57      1.0000 0.40410  0.12550  0.12040  Biso   1.000  H
  H58      1.0000 0.59590  0.12550  0.37960  Biso   1.000  H
  H59      1.0000 0.90410  0.62550  0.12040  Biso   1.000  H
  H60      1.0000 0.09590  0.62550  0.37960  Biso   1.000  H
  H61      1.0000 0.59590  0.87450  0.87960  Biso   1.000  H
  H62      1.0000 0.40410  0.87450  0.62040  Biso   1.000  H
  H63      1.0000 0.09590  0.37450  0.87960  Biso   1.000  H
  H64      1.0000 0.90410  0.37450  0.62040  Biso   1.000  H
  C77      1.0000 0.70920  0.14173  0.03299  Biso   1.000  C
  C78      1.0000 0.29080  0.14173  0.46701  Biso   1.000  C
  C79      1.0000 0.20920  0.64173  0.03299  Biso   1.000  C
  C80      1.0000 0.79080  0.64173  0.46701  Biso   1.000  C
  C81      1.0000 0.29080  0.85827  0.96701  Biso   1.000  C
  C82      1.0000 0.70920  0.85827  0.53299  Biso   1.000  C
  C83      1.0000 0.79080  0.35827  0.96701  Biso   1.000  C
  C84      1.0000 0.20920  0.35827  0.53299  Biso   1.000  C
  C85      1.0000 0.76650  0.93856  0.08629  Biso   1.000  C
  C86      1.0000 0.23350  0.93856  0.41371  Biso   1.000  C
  C87      1.0000 0.26650  0.43856  0.08629  Biso   1.000  C
  C88      1.0000 0.73350  0.43856  0.41371  Biso   1.000  C
  C89      1.0000 0.23350  0.06144  0.91371  Biso   1.000  C
  C90      1.0000 0.76650  0.06144  0.58629  Biso   1.000  C
  C91      1.0000 0.73350  0.56144  0.91371  Biso   1.000  C
  C92      1.0000 0.26650  0.56144  0.58629  Biso   1.000  C
  C93      1.0000 0.21870  0.04440  0.18853  Biso   1.000  C
  C94      1.0000 0.78130  0.04440  0.31147  Biso   1.000  C
  C95      1.0000 0.71870  0.54440  0.18853  Biso   1.000  C
  C96      1.0000 0.28130  0.54440  0.31147  Biso   1.000  C
  C97      1.0000 0.78130  0.95560  0.81147  Biso   1.000  C
  C98      1.0000 0.21870  0.95560  0.68853  Biso   1.000  C
  C99      1.0000 0.28130  0.45560  0.81147  Biso   1.000  C
  C100     1.0000 0.71870  0.45560  0.68853  Biso   1.000  C
  N1       1.0000 0.99400  0.24778  0.08149  Biso   1.000  N
  N2       1.0000 0.00600  0.24778  0.41851  Biso   1.000  N
  N3       1.0000 0.49400  0.74778  0.08149  Biso   1.000  N
  N4       1.0000 0.50600  0.74778  0.41851  Biso   1.000  N
  N5       1.0000 0.00600  0.75222  0.91851  Biso   1.000  N
  N6       1.0000 0.99400  0.75222  0.58149  Biso   1.000  N
  N7       1.0000 0.50600  0.25222  0.91851  Biso   1.000  N
  N8       1.0000 0.49400  0.25222  0.58149  Biso   1.000  N
  N9       1.0000 0.21670  0.22279  0.18829  Biso   1.000  N
  N10      1.0000 0.78330  0.22279  0.31171  Biso   1.000  N
  N11      1.0000 0.71670  0.72279  0.18829  Biso   1.000  N
  N12      1.0000 0.28330  0.72279  0.31171  Biso   1.000  N
  N13      1.0000 0.78330  0.77721  0.81171  Biso   1.000  N
  N14      1.0000 0.21670  0.77721  0.68829  Biso   1.000  N
  N15      1.0000 0.28330  0.27721  0.81171  Biso   1.000  N
  N16      1.0000 0.71670  0.27721  0.68829  Biso   1.000  N
  N17      1.0000 0.29540  0.26327  0.14635  Biso   1.000  N
  N18      1.0000 0.70460  0.26327  0.35365  Biso   1.000  N
  N19      1.0000 0.79540  0.76327  0.14635  Biso   1.000  N
  N20      1.0000 0.20460  0.76327  0.35365  Biso   1.000  N
  N21      1.0000 0.70460  0.73673  0.85365  Biso   1.000  N
  N22      1.0000 0.29540  0.73673  0.64635  Biso   1.000  N
  N23      1.0000 0.20460  0.23673  0.85365  Biso   1.000  N
  N24      1.0000 0.79540  0.23673  0.64635  Biso   1.000  N
  O1       1.0000 0.63070  0.18730  0.05131  Biso   1.000  O
  O2       1.0000 0.36930  0.18730  0.44869  Biso   1.000  O
  O3       1.0000 0.13070  0.68730  0.05131  Biso   1.000  O
  O4       1.0000 0.86930  0.68730  0.44869  Biso   1.000  O
  O5       1.0000 0.36930  0.81270  0.94869  Biso   1.000  O
  O6       1.0000 0.63070  0.81270  0.55131  Biso   1.000  O
  O7       1.0000 0.86930  0.31270  0.94869  Biso   1.000  O
  O8       1.0000 0.13070  0.31270  0.55131  Biso   1.000  O
  O9       1.0000 0.84230  0.13915  0.98731  Biso   1.000  O
  O10      1.0000 0.15770  0.13915  0.51269  Biso   1.000  O
  O11      1.0000 0.34230  0.63915  0.98731  Biso   1.000  O
  O12      1.0000 0.65770  0.63915  0.51269  Biso   1.000  O
  O13      1.0000 0.15770  0.86085  0.01269  Biso   1.000  O
  O14      1.0000 0.84230  0.86085  0.48731  Biso   1.000  O
  O15      1.0000 0.65770  0.36085  0.01269  Biso   1.000  O
  O16      1.0000 0.34230  0.36085  0.48731  Biso   1.000  O
  O17      1.0000 0.92100  0.94288  0.04475  Biso   1.000  O
  O18      1.0000 0.07900  0.94288  0.45525  Biso   1.000  O
  O19      1.0000 0.42100  0.44288  0.04475  Biso   1.000  O
  O20      1.0000 0.57900  0.44288  0.45525  Biso   1.000  O
  O21      1.0000 0.07900  0.05712  0.95525  Biso   1.000  O
  O22      1.0000 0.92100  0.05712  0.54475  Biso   1.000  O
  O23      1.0000 0.57900  0.55712  0.95525  Biso   1.000  O
  O24      1.0000 0.42100  0.55712  0.54475  Biso   1.000  O
  H65      1.0000 0.98800  0.91290  0.04090  Biso   1.000  H
  H66      1.0000 0.01200  0.91290  0.45910  Biso   1.000  H
  H67      1.0000 0.48800  0.41290  0.04090  Biso   1.000  H
  H68      1.0000 0.51200  0.41290  0.45910  Biso   1.000  H
  H69      1.0000 0.01200  0.08710  0.95910  Biso   1.000  H
  H70      1.0000 0.98800  0.08710  0.54090  Biso   1.000  H
  H71      1.0000 0.51200  0.58710  0.95910  Biso   1.000  H
  H72      1.0000 0.48800  0.58710  0.54090  Biso   1.000  H
  O25      1.0000 0.71540  0.89601  0.11405  Biso   1.000  O
  O26      1.0000 0.28460  0.89601  0.38595  Biso   1.000  O
  O27      1.0000 0.21540  0.39601  0.11405  Biso   1.000  O
  O28      1.0000 0.78460  0.39601  0.38595  Biso   1.000  O
  O29      1.0000 0.28460  0.10399  0.88595  Biso   1.000  O
  O30      1.0000 0.71540  0.10399  0.61405  Biso   1.000  O
  O31      1.0000 0.78460  0.60399  0.88595  Biso   1.000  O
  O32      1.0000 0.21540  0.60399  0.61405  Biso   1.000  O
  O33      1.0000 0.14310  0.09061  0.20354  Biso   1.000  O
  O34      1.0000 0.85690  0.09061  0.29646  Biso   1.000  O
  O35      1.0000 0.64310  0.59061  0.20354  Biso   1.000  O
  O36      1.0000 0.35690  0.59061  0.29646  Biso   1.000  O
  O37      1.0000 0.85690  0.90939  0.79646  Biso   1.000  O
  O38      1.0000 0.14310  0.90939  0.70354  Biso   1.000  O
  O39      1.0000 0.35690  0.40939  0.79646  Biso   1.000  O
  O40      1.0000 0.64310  0.40939  0.70354  Biso   1.000  O
  H73      1.0000 0.02790  0.08230  0.21590  Biso   1.000  H
  H74      1.0000 0.97210  0.08230  0.28410  Biso   1.000  H
  H75      1.0000 0.52790  0.58230  0.21590  Biso   1.000  H
  H76      1.0000 0.47210  0.58230  0.28410  Biso   1.000  H
  H77      1.0000 0.97210  0.91770  0.78410  Biso   1.000  H
  H78      1.0000 0.02790  0.91770  0.71590  Biso   1.000  H
  H79      1.0000 0.47210  0.41770  0.78410  Biso   1.000  H
  H80      1.0000 0.52790  0.41770  0.71590  Biso   1.000  H
  O41      1.0000 0.15190  0.99864  0.20961  Biso   1.000  O
  O42      1.0000 0.84810  0.99864  0.29039  Biso   1.000  O
  O43      1.0000 0.65190  0.49864  0.20961  Biso   1.000  O
  O44      1.0000 0.34810  0.49864  0.29039  Biso   1.000  O
  O45      1.0000 0.84810  0.00136  0.79039  Biso   1.000  O
  O46      1.0000 0.15190  0.00136  0.70961  Biso   1.000  O
  O47      1.0000 0.34810  0.50136  0.79039  Biso   1.000  O
  O48      1.0000 0.65190  0.50136  0.70961  Biso   1.000  O
  O49      1.0000 0.00000  0.34690  0.25000  Biso   1.000  O
  O50      1.0000 0.50000  0.84690  0.25000  Biso   1.000  O
  O51      1.0000 0.00000  0.65310  0.75000  Biso   1.000  O
  O52      1.0000 0.50000  0.15310  0.75000  Biso   1.000  O
