data_image0
_cell_length_a       7.1381
_cell_length_b       9.1179
_cell_length_c       10.5125
_cell_angle_alpha    77.258
_cell_angle_beta     70.672
_cell_angle_gamma    89.524

_symmetry_space_group_name_H-M    "P 1"
_symmetry_int_tables_number       1

loop_
  _symmetry_equiv_pos_as_xyz
  'x, y, z'

loop_
  _atom_site_label
  _atom_site_occupancy
  _atom_site_fract_x
  _atom_site_fract_y
  _atom_site_fract_z
  _atom_site_thermal_displace_type
  _atom_site_B_iso_or_equiv
  _atom_site_type_symbol
  Cu1      1.0000 0.50000  0.00000  0.50000  Biso   1.000  Cu
  C1       1.0000 0.18640  0.78130  0.51490  Biso   1.000  C
  C2       1.0000 0.81360  0.21870  0.48510  Biso   1.000  C
  H1       1.0000 0.11930  0.85520  0.47470  Biso   1.000  H
  H2       1.0000 0.88070  0.14480  0.52530  Biso   1.000  H
  C3       1.0000 0.39070  0.66560  0.60070  Biso   1.000  C
  C4       1.0000 0.60930  0.33440  0.39930  Biso   1.000  C
  H3       1.0000 0.49920  0.64770  0.63100  Biso   1.000  H
  H4       1.0000 0.50080  0.35230  0.36900  Biso   1.000  H
  C5       1.0000 0.96320  0.55690  0.54430  Biso   1.000  C
  C6       1.0000 0.03680  0.44310  0.45570  Biso   1.000  C
  H5       1.0000 0.88670  0.62890  0.50320  Biso   1.000  H
  H6       1.0000 0.11330  0.37110  0.49680  Biso   1.000  H
  H7       1.0000 0.87770  0.50570  0.63630  Biso   1.000  H
  H8       1.0000 0.12230  0.49430  0.36370  Biso   1.000  H
  C7       1.0000 0.14780  0.14660  0.83501  Biso   1.000  C
  C8       1.0000 0.85220  0.85340  0.16499  Biso   1.000  C
  C9       1.0000 0.97670  0.22570  0.85040  Biso   1.000  C
  C10      1.0000 0.02330  0.77430  0.14960  Biso   1.000  C
  H9       1.0000 0.91450  0.23640  0.78410  Biso   1.000  H
  H10      1.0000 0.08550  0.76360  0.21590  Biso   1.000  H
  C11      1.0000 0.89850  0.28890  0.96450  Biso   1.000  C
  C12      1.0000 0.10150  0.71110  0.03550  Biso   1.000  C
  C13      1.0000 0.98970  0.27260  0.06520  Biso   1.000  C
  C14      1.0000 0.01030  0.72740  0.93480  Biso   1.000  C
  H11      1.0000 0.93880  0.31630  0.14060  Biso   1.000  H
  H12      1.0000 0.06120  0.68370  0.85940  Biso   1.000  H
  C15      1.0000 0.15730  0.19050  0.05160  Biso   1.000  C
  C16      1.0000 0.84270  0.80950  0.94840  Biso   1.000  C
  C17      1.0000 0.23630  0.12900  0.93650  Biso   1.000  C
  C18      1.0000 0.76370  0.87100  0.06350  Biso   1.000  C
  H13      1.0000 0.34970  0.07560  0.92740  Biso   1.000  H
  H14      1.0000 0.65030  0.92440  0.07260  Biso   1.000  H
  C19      1.0000 0.23780  0.08810  0.70627  Biso   1.000  C
  C20      1.0000 0.76220  0.91190  0.29373  Biso   1.000  C
  C21      1.0000 0.72030  0.37790  0.98030  Biso   1.000  C
  C22      1.0000 0.27970  0.62210  0.01970  Biso   1.000  C
  C23      1.0000 0.25400  0.17160  0.15990  Biso   1.000  C
  C24      1.0000 0.74600  0.82840  0.84010  Biso   1.000  C
  N1       1.0000 0.35040  0.80563  0.54341  Biso   1.000  N
  N2       1.0000 0.64960  0.19437  0.45659  Biso   1.000  N
  N3       1.0000 0.13440  0.63499  0.55306  Biso   1.000  N
  N4       1.0000 0.86560  0.36501  0.44694  Biso   1.000  N
  N5       1.0000 0.26310  0.55790  0.60959  Biso   1.000  N
  N6       1.0000 0.73690  0.44210  0.39041  Biso   1.000  N
  O1       1.0000 0.16660  0.11485  0.61175  Biso   1.000  O
  O2       1.0000 0.83340  0.88515  0.38825  Biso   1.000  O
  O3       1.0000 0.39513  0.01310  0.69713  Biso   1.000  O
  O4       1.0000 0.60487  0.98690  0.30287  Biso   1.000  O
  O5       1.0000 0.64120  0.38810  0.88416  Biso   1.000  O
  O6       1.0000 0.35880  0.61190  0.11584  Biso   1.000  O
  H15      1.0000 0.54780  0.44230  0.89850  Biso   1.000  H
  H16      1.0000 0.45220  0.55770  0.10150  Biso   1.000  H
  O7       1.0000 0.65620  0.43768  0.08018  Biso   1.000  O
  O8       1.0000 0.34380  0.56232  0.91982  Biso   1.000  O
  O9       1.0000 0.21760  0.23976  0.24979  Biso   1.000  O
  O10      1.0000 0.78240  0.76024  0.75021  Biso   1.000  O
  O11      1.0000 0.38740  0.06910  0.14429  Biso   1.000  O
  O12      1.0000 0.61260  0.93090  0.85571  Biso   1.000  O
  H17      1.0000 0.44030  0.06230  0.20350  Biso   1.000  H
  H18      1.0000 0.55970  0.93770  0.79650  Biso   1.000  H
