data_image0
_cell_length_a       10.4082
_cell_length_b       17.8362
_cell_length_c       17.3477
_cell_angle_alpha    90
_cell_angle_beta     94.777
_cell_angle_gamma    90

_symmetry_space_group_name_H-M    "P 1"
_symmetry_int_tables_number       1

loop_
  _symmetry_equiv_pos_as_xyz
  'x, y, z'

loop_
  _atom_site_label
  _atom_site_occupancy
  _atom_site_fract_x
  _atom_site_fract_y
  _atom_site_fract_z
  _atom_site_thermal_displace_type
  _atom_site_B_iso_or_equiv
  _atom_site_type_symbol
  Cu1      1.0000 0.50000  0.30723  0.75000  Biso   1.000  Cu
  Cu2      1.0000 0.00000  0.80723  0.75000  Biso   1.000  Cu
  Cu3      1.0000 0.50000  0.69277  0.25000  Biso   1.000  Cu
  Cu4      1.0000 0.00000  0.19277  0.25000  Biso   1.000  Cu
  Cu5      1.0000 0.25000  0.25000  0.50000  Biso   1.000  Cu
  Cu6      1.0000 0.75000  0.25000  0.00000  Biso   1.000  Cu
  Cu7      1.0000 0.75000  0.75000  0.50000  Biso   1.000  Cu
  Cu8      1.0000 0.25000  0.75000  0.00000  Biso   1.000  Cu
  O1       1.0000 0.38759  0.27426  0.63201  Biso   1.000  O
  O2       1.0000 0.61241  0.27426  0.86799  Biso   1.000  O
  O3       1.0000 0.88759  0.77426  0.63201  Biso   1.000  O
  O4       1.0000 0.11241  0.77426  0.86799  Biso   1.000  O
  O5       1.0000 0.61241  0.72574  0.36799  Biso   1.000  O
  O6       1.0000 0.38759  0.72574  0.13201  Biso   1.000  O
  O7       1.0000 0.11241  0.22574  0.36799  Biso   1.000  O
  O8       1.0000 0.88759  0.22574  0.13201  Biso   1.000  O
  O9       1.0000 0.31070  0.17031  0.57344  Biso   1.000  O
  O10      1.0000 0.68930  0.17031  0.92656  Biso   1.000  O
  O11      1.0000 0.81070  0.67031  0.57344  Biso   1.000  O
  O12      1.0000 0.18930  0.67031  0.92656  Biso   1.000  O
  O13      1.0000 0.68930  0.82969  0.42656  Biso   1.000  O
  O14      1.0000 0.31070  0.82969  0.07344  Biso   1.000  O
  O15      1.0000 0.18930  0.32969  0.42656  Biso   1.000  O
  O16      1.0000 0.81070  0.32969  0.07344  Biso   1.000  O
  N1       1.0000 0.50000  0.19578  0.75000  Biso   1.000  N
  N2       1.0000 0.00000  0.69578  0.75000  Biso   1.000  N
  N3       1.0000 0.50000  0.80422  0.25000  Biso   1.000  N
  N4       1.0000 0.00000  0.30422  0.25000  Biso   1.000  N
  C1       1.0000 0.37410  0.20494  0.62828  Biso   1.000  C
  C2       1.0000 0.62590  0.20494  0.87172  Biso   1.000  C
  C3       1.0000 0.87410  0.70494  0.62828  Biso   1.000  C
  C4       1.0000 0.12590  0.70494  0.87172  Biso   1.000  C
  C5       1.0000 0.62590  0.79506  0.37172  Biso   1.000  C
  C6       1.0000 0.37410  0.79506  0.12828  Biso   1.000  C
  C7       1.0000 0.12590  0.29506  0.37172  Biso   1.000  C
  C8       1.0000 0.87410  0.29506  0.12828  Biso   1.000  C
  C9       1.0000 0.43840  0.15733  0.69132  Biso   1.000  C
  C10      1.0000 0.56160  0.15733  0.80868  Biso   1.000  C
  C11      1.0000 0.93840  0.65733  0.69132  Biso   1.000  C
  C12      1.0000 0.06160  0.65733  0.80868  Biso   1.000  C
  C13      1.0000 0.56160  0.84267  0.30868  Biso   1.000  C
  C14      1.0000 0.43840  0.84267  0.19132  Biso   1.000  C
  C15      1.0000 0.06160  0.34267  0.30868  Biso   1.000  C
  C16      1.0000 0.93840  0.34267  0.19132  Biso   1.000  C
  C17      1.0000 0.43560  0.07967  0.68977  Biso   1.000  C
  C18      1.0000 0.56440  0.07967  0.81023  Biso   1.000  C
  C19      1.0000 0.93560  0.57967  0.68977  Biso   1.000  C
  C20      1.0000 0.06440  0.57967  0.81023  Biso   1.000  C
  C21      1.0000 0.56440  0.92033  0.31023  Biso   1.000  C
  C22      1.0000 0.43560  0.92033  0.18977  Biso   1.000  C
  C23      1.0000 0.06440  0.42033  0.31023  Biso   1.000  C
  C24      1.0000 0.93560  0.42033  0.18977  Biso   1.000  C
  H1       1.0000 0.39026  0.05382  0.64805  Biso   1.000  H
  H2       1.0000 0.60974  0.05382  0.85195  Biso   1.000  H
  H3       1.0000 0.89026  0.55382  0.64805  Biso   1.000  H
  H4       1.0000 0.10974  0.55382  0.85195  Biso   1.000  H
  H5       1.0000 0.60974  0.94618  0.35195  Biso   1.000  H
  H6       1.0000 0.39026  0.94618  0.14805  Biso   1.000  H
  H7       1.0000 0.10974  0.44618  0.35195  Biso   1.000  H
  H8       1.0000 0.89026  0.44618  0.14805  Biso   1.000  H
  C25      1.0000 0.50000  0.04040  0.75000  Biso   1.000  C
  C26      1.0000 0.00000  0.54040  0.75000  Biso   1.000  C
  C27      1.0000 0.50000  0.95960  0.25000  Biso   1.000  C
  C28      1.0000 0.00000  0.45960  0.25000  Biso   1.000  C
  H9       1.0000 0.50000  0.98712  0.75000  Biso   1.000  H
  H10      1.0000 0.00000  0.48712  0.75000  Biso   1.000  H
  H11      1.0000 0.50000  0.01288  0.25000  Biso   1.000  H
  H12      1.0000 0.00000  0.51288  0.25000  Biso   1.000  H
  N5       1.0000 0.08500  0.25090  0.54830  Biso   1.000  N
  N6       1.0000 0.91500  0.25090  0.95170  Biso   1.000  N
  N7       1.0000 0.58500  0.75090  0.54830  Biso   1.000  N
  N8       1.0000 0.41500  0.75090  0.95170  Biso   1.000  N
  N9       1.0000 0.91500  0.74910  0.45170  Biso   1.000  N
  N10      1.0000 0.08500  0.74910  0.04830  Biso   1.000  N
  N11      1.0000 0.41500  0.24910  0.45170  Biso   1.000  N
  N12      1.0000 0.58500  0.24910  0.04830  Biso   1.000  N
  N13      1.0000 0.92420  0.29500  0.61650  Biso   1.000  N
  N14      1.0000 0.07580  0.29500  0.88350  Biso   1.000  N
  N15      1.0000 0.42420  0.79500  0.61650  Biso   1.000  N
  N16      1.0000 0.57580  0.79500  0.88350  Biso   1.000  N
  N17      1.0000 0.07580  0.70500  0.38350  Biso   1.000  N
  N18      1.0000 0.92420  0.70500  0.11650  Biso   1.000  N
  N19      1.0000 0.57580  0.20500  0.38350  Biso   1.000  N
  N20      1.0000 0.42420  0.20500  0.11650  Biso   1.000  N
  H13      1.0000 0.88100  0.32627  0.64386  Biso   1.000  H
  H14      1.0000 0.11900  0.32627  0.85614  Biso   1.000  H
  H15      1.0000 0.38100  0.82627  0.64386  Biso   1.000  H
  H16      1.0000 0.61900  0.82627  0.85614  Biso   1.000  H
  H17      1.0000 0.11900  0.67373  0.35614  Biso   1.000  H
  H18      1.0000 0.88100  0.67373  0.14386  Biso   1.000  H
  H19      1.0000 0.61900  0.17373  0.35614  Biso   1.000  H
  H20      1.0000 0.38100  0.17373  0.14386  Biso   1.000  H
  C29      1.0000 0.98070  0.20070  0.54390  Biso   1.000  C
  C30      1.0000 0.01930  0.20070  0.95610  Biso   1.000  C
  C31      1.0000 0.48070  0.70070  0.54390  Biso   1.000  C
  C32      1.0000 0.51930  0.70070  0.95610  Biso   1.000  C
  C33      1.0000 0.01930  0.79930  0.45610  Biso   1.000  C
  C34      1.0000 0.98070  0.79930  0.04390  Biso   1.000  C
  C35      1.0000 0.51930  0.29930  0.45610  Biso   1.000  C
  C36      1.0000 0.48070  0.29930  0.04390  Biso   1.000  C
  C37      1.0000 0.96540  0.13120  0.50590  Biso   1.000  C
  C38      1.0000 0.03460  0.13120  0.99410  Biso   1.000  C
  C39      1.0000 0.46540  0.63120  0.50590  Biso   1.000  C
  C40      1.0000 0.53460  0.63120  0.99410  Biso   1.000  C
  C41      1.0000 0.03460  0.86880  0.49410  Biso   1.000  C
  C42      1.0000 0.96540  0.86880  0.00590  Biso   1.000  C
  C43      1.0000 0.53460  0.36880  0.49410  Biso   1.000  C
  C44      1.0000 0.46540  0.36880  0.00590  Biso   1.000  C
  H21      1.0000 0.03303  0.11008  0.47937  Biso   1.000  H
  H22      1.0000 0.96697  0.11008  0.02063  Biso   1.000  H
  H23      1.0000 0.53303  0.61008  0.47937  Biso   1.000  H
  H24      1.0000 0.46697  0.61008  0.02063  Biso   1.000  H
  H25      1.0000 0.96697  0.88992  0.52063  Biso   1.000  H
  H26      1.0000 0.03303  0.88992  0.97937  Biso   1.000  H
  H27      1.0000 0.46697  0.38992  0.52063  Biso   1.000  H
  H28      1.0000 0.53303  0.38992  0.97937  Biso   1.000  H
  C45      1.0000 0.84710  0.09400  0.50860  Biso   1.000  C
  C46      1.0000 0.15290  0.09400  0.99140  Biso   1.000  C
  C47      1.0000 0.34710  0.59400  0.50860  Biso   1.000  C
  C48      1.0000 0.65290  0.59400  0.99140  Biso   1.000  C
  C49      1.0000 0.15290  0.90600  0.49140  Biso   1.000  C
  C50      1.0000 0.84710  0.90600  0.00860  Biso   1.000  C
  C51      1.0000 0.65290  0.40600  0.49140  Biso   1.000  C
  C52      1.0000 0.34710  0.40600  0.00860  Biso   1.000  C
  H29      1.0000 0.83570  0.04645  0.48428  Biso   1.000  H
  H30      1.0000 0.16430  0.04645  0.01572  Biso   1.000  H
  H31      1.0000 0.33570  0.54645  0.48428  Biso   1.000  H
  H32      1.0000 0.66430  0.54645  0.01572  Biso   1.000  H
  H33      1.0000 0.16430  0.95355  0.51572  Biso   1.000  H
  H34      1.0000 0.83570  0.95355  0.98428  Biso   1.000  H
  H35      1.0000 0.66430  0.45355  0.51572  Biso   1.000  H
  H36      1.0000 0.33570  0.45355  0.98428  Biso   1.000  H
  C53      1.0000 0.74350  0.12530  0.54680  Biso   1.000  C
  C54      1.0000 0.25650  0.12530  0.95320  Biso   1.000  C
  C55      1.0000 0.24350  0.62530  0.54680  Biso   1.000  C
  C56      1.0000 0.75650  0.62530  0.95320  Biso   1.000  C
  C57      1.0000 0.25650  0.87470  0.45320  Biso   1.000  C
  C58      1.0000 0.74350  0.87470  0.04680  Biso   1.000  C
  C59      1.0000 0.75650  0.37470  0.45320  Biso   1.000  C
  C60      1.0000 0.24350  0.37470  0.04680  Biso   1.000  C
  H37      1.0000 0.66165  0.10136  0.54237  Biso   1.000  H
  H38      1.0000 0.33835  0.10136  0.95763  Biso   1.000  H
  H39      1.0000 0.16165  0.60136  0.54237  Biso   1.000  H
  H40      1.0000 0.83835  0.60136  0.95763  Biso   1.000  H
  H41      1.0000 0.33835  0.89864  0.45763  Biso   1.000  H
  H42      1.0000 0.66165  0.89864  0.04237  Biso   1.000  H
  H43      1.0000 0.83835  0.39864  0.45763  Biso   1.000  H
  H44      1.0000 0.16165  0.39864  0.04237  Biso   1.000  H
  C61      1.0000 0.76120  0.19070  0.59050  Biso   1.000  C
  C62      1.0000 0.23880  0.19070  0.90950  Biso   1.000  C
  C63      1.0000 0.26120  0.69070  0.59050  Biso   1.000  C
  C64      1.0000 0.73880  0.69070  0.90950  Biso   1.000  C
  C65      1.0000 0.23880  0.80930  0.40950  Biso   1.000  C
  C66      1.0000 0.76120  0.80930  0.09050  Biso   1.000  C
  C67      1.0000 0.73880  0.30930  0.40950  Biso   1.000  C
  C68      1.0000 0.26120  0.30930  0.09050  Biso   1.000  C
  H45      1.0000 0.69536  0.21034  0.61955  Biso   1.000  H
  H46      1.0000 0.30464  0.21034  0.88045  Biso   1.000  H
  H47      1.0000 0.19536  0.71034  0.61955  Biso   1.000  H
  H48      1.0000 0.80464  0.71034  0.88045  Biso   1.000  H
  H49      1.0000 0.30464  0.78966  0.38045  Biso   1.000  H
  H50      1.0000 0.69536  0.78966  0.11955  Biso   1.000  H
  H51      1.0000 0.80464  0.28966  0.38045  Biso   1.000  H
  H52      1.0000 0.19536  0.28966  0.11955  Biso   1.000  H
  C69      1.0000 0.88240  0.22600  0.58920  Biso   1.000  C
  C70      1.0000 0.11760  0.22600  0.91080  Biso   1.000  C
  C71      1.0000 0.38240  0.72600  0.58920  Biso   1.000  C
  C72      1.0000 0.61760  0.72600  0.91080  Biso   1.000  C
  C73      1.0000 0.11760  0.77400  0.41080  Biso   1.000  C
  C74      1.0000 0.88240  0.77400  0.08920  Biso   1.000  C
  C75      1.0000 0.61760  0.27400  0.41080  Biso   1.000  C
  C76      1.0000 0.38240  0.27400  0.08920  Biso   1.000  C
  C77      1.0000 0.04250  0.30600  0.59370  Biso   1.000  C
  C78      1.0000 0.95750  0.30600  0.90630  Biso   1.000  C
  C79      1.0000 0.54250  0.80600  0.59370  Biso   1.000  C
  C80      1.0000 0.45750  0.80600  0.90630  Biso   1.000  C
  C81      1.0000 0.95750  0.69400  0.40630  Biso   1.000  C
  C82      1.0000 0.04250  0.69400  0.09370  Biso   1.000  C
  C83      1.0000 0.45750  0.19400  0.40630  Biso   1.000  C
  C84      1.0000 0.54250  0.19400  0.09370  Biso   1.000  C
  C85      1.0000 0.11760  0.37420  0.61640  Biso   1.000  C
  C86      1.0000 0.88240  0.37420  0.88360  Biso   1.000  C
  C87      1.0000 0.61760  0.87420  0.61640  Biso   1.000  C
  C88      1.0000 0.38240  0.87420  0.88360  Biso   1.000  C
  C89      1.0000 0.88240  0.62580  0.38360  Biso   1.000  C
  C90      1.0000 0.11760  0.62580  0.11640  Biso   1.000  C
  C91      1.0000 0.38240  0.12580  0.38360  Biso   1.000  C
  C92      1.0000 0.61760  0.12580  0.11640  Biso   1.000  C
  H53      1.0000 0.21026  0.36470  0.61147  Biso   1.000  H
  H54      1.0000 0.78974  0.36470  0.88853  Biso   1.000  H
  H55      1.0000 0.71026  0.86470  0.61147  Biso   1.000  H
  H56      1.0000 0.28974  0.86470  0.88853  Biso   1.000  H
  H57      1.0000 0.78974  0.63530  0.38853  Biso   1.000  H
  H58      1.0000 0.21026  0.63530  0.11147  Biso   1.000  H
  H59      1.0000 0.28974  0.13530  0.38853  Biso   1.000  H
  H60      1.0000 0.71026  0.13530  0.11147  Biso   1.000  H
  H61      1.0000 0.10691  0.38604  0.67131  Biso   1.000  H
  H62      1.0000 0.89309  0.38604  0.82869  Biso   1.000  H
  H63      1.0000 0.60691  0.88604  0.67131  Biso   1.000  H
  H64      1.0000 0.39309  0.88604  0.82869  Biso   1.000  H
  H65      1.0000 0.89309  0.61396  0.32869  Biso   1.000  H
  H66      1.0000 0.10691  0.61396  0.17131  Biso   1.000  H
  H67      1.0000 0.39309  0.11396  0.32869  Biso   1.000  H
  H68      1.0000 0.60691  0.11396  0.17131  Biso   1.000  H
  C93      1.0000 0.07430  0.44060  0.56660  Biso   1.000  C
  C94      1.0000 0.92570  0.44060  0.93340  Biso   1.000  C
  C95      1.0000 0.57430  0.94060  0.56660  Biso   1.000  C
  C96      1.0000 0.42570  0.94060  0.93340  Biso   1.000  C
  C97      1.0000 0.92570  0.55940  0.43340  Biso   1.000  C
  C98      1.0000 0.07430  0.55940  0.06660  Biso   1.000  C
  C99      1.0000 0.42570  0.05940  0.43340  Biso   1.000  C
  C100     1.0000 0.57430  0.05940  0.06660  Biso   1.000  C
  H69      1.0000 0.12558  0.48472  0.58302  Biso   1.000  H
  H70      1.0000 0.87442  0.48472  0.91698  Biso   1.000  H
  H71      1.0000 0.62558  0.98472  0.58302  Biso   1.000  H
  H72      1.0000 0.37442  0.98472  0.91698  Biso   1.000  H
  H73      1.0000 0.87442  0.51528  0.41698  Biso   1.000  H
  H74      1.0000 0.12558  0.51528  0.08302  Biso   1.000  H
  H75      1.0000 0.37442  0.01528  0.41698  Biso   1.000  H
  H76      1.0000 0.62558  0.01528  0.08302  Biso   1.000  H
  H77      1.0000 0.08622  0.42935  0.51238  Biso   1.000  H
  H78      1.0000 0.91378  0.42935  0.98762  Biso   1.000  H
  H79      1.0000 0.58622  0.92935  0.51238  Biso   1.000  H
  H80      1.0000 0.41378  0.92935  0.98762  Biso   1.000  H
  H81      1.0000 0.91378  0.57065  0.48762  Biso   1.000  H
  H82      1.0000 0.08622  0.57065  0.01238  Biso   1.000  H
  H83      1.0000 0.41378  0.07065  0.48762  Biso   1.000  H
  H84      1.0000 0.58622  0.07065  0.01238  Biso   1.000  H
  H85      1.0000 0.98296  0.45067  0.57217  Biso   1.000  H
  H86      1.0000 0.01704  0.45067  0.92783  Biso   1.000  H
  H87      1.0000 0.48296  0.95067  0.57217  Biso   1.000  H
  H88      1.0000 0.51704  0.95067  0.92783  Biso   1.000  H
  H89      1.0000 0.01704  0.54933  0.42783  Biso   1.000  H
  H90      1.0000 0.98296  0.54933  0.07217  Biso   1.000  H
  H91      1.0000 0.51704  0.04933  0.42783  Biso   1.000  H
  H92      1.0000 0.48296  0.04933  0.07217  Biso   1.000  H
  O17      1.0000 0.67300  0.32500  0.70600  Biso   1.000  O
  O18      1.0000 0.32700  0.32500  0.79400  Biso   1.000  O
  O19      1.0000 0.17300  0.82500  0.70600  Biso   1.000  O
  O20      1.0000 0.82700  0.82500  0.79400  Biso   1.000  O
  O21      1.0000 0.32700  0.67500  0.29400  Biso   1.000  O
  O22      1.0000 0.67300  0.67500  0.20600  Biso   1.000  O
  O23      1.0000 0.82700  0.17500  0.29400  Biso   1.000  O
  O24      1.0000 0.17300  0.17500  0.20600  Biso   1.000  O
  O25      1.0000 0.80030  0.42090  0.68010  Biso   1.000  O
  O26      1.0000 0.19970  0.42090  0.81990  Biso   1.000  O
  O27      1.0000 0.30030  0.92090  0.68010  Biso   1.000  O
  O28      1.0000 0.69970  0.92090  0.81990  Biso   1.000  O
  O29      1.0000 0.19970  0.57910  0.31990  Biso   1.000  O
  O30      1.0000 0.80030  0.57910  0.18010  Biso   1.000  O
  O31      1.0000 0.69970  0.07910  0.31990  Biso   1.000  O
  O32      1.0000 0.30030  0.07910  0.18010  Biso   1.000  O
  C101     1.0000 0.69930  0.39590  0.70510  Biso   1.000  C
  C102     1.0000 0.30070  0.39590  0.79490  Biso   1.000  C
  C103     1.0000 0.19930  0.89590  0.70510  Biso   1.000  C
  C104     1.0000 0.80070  0.89590  0.79490  Biso   1.000  C
  C105     1.0000 0.30070  0.60410  0.29490  Biso   1.000  C
  C106     1.0000 0.69930  0.60410  0.20510  Biso   1.000  C
  C107     1.0000 0.80070  0.10410  0.29490  Biso   1.000  C
  C108     1.0000 0.19930  0.10410  0.20510  Biso   1.000  C
  N21      1.0000 0.50320  0.41171  0.76130  Biso   1.000  N
  N22      1.0000 0.49680  0.41171  0.73870  Biso   1.000  N
  N23      1.0000 0.00320  0.91171  0.76130  Biso   1.000  N
  N24      1.0000 0.99680  0.91171  0.73870  Biso   1.000  N
  N25      1.0000 0.49680  0.58829  0.23870  Biso   1.000  N
  N26      1.0000 0.50320  0.58829  0.26130  Biso   1.000  N
  N27      1.0000 0.99680  0.08829  0.23870  Biso   1.000  N
  N28      1.0000 0.00320  0.08829  0.26130  Biso   1.000  N
  C109     1.0000 0.60760  0.45030  0.73570  Biso   1.000  C
  C110     1.0000 0.39240  0.45030  0.76430  Biso   1.000  C
  C111     1.0000 0.10760  0.95030  0.73570  Biso   1.000  C
  C112     1.0000 0.89240  0.95030  0.76430  Biso   1.000  C
  C113     1.0000 0.39240  0.54970  0.26430  Biso   1.000  C
  C114     1.0000 0.60760  0.54970  0.23570  Biso   1.000  C
  C115     1.0000 0.89240  0.04970  0.26430  Biso   1.000  C
  C116     1.0000 0.10760  0.04970  0.23570  Biso   1.000  C
  C117     1.0000 0.61830  0.52730  0.74690  Biso   1.000  C
  C118     1.0000 0.38170  0.52730  0.75310  Biso   1.000  C
  C119     1.0000 0.11830  0.02730  0.74690  Biso   1.000  C
  C120     1.0000 0.88170  0.02730  0.75310  Biso   1.000  C
  C121     1.0000 0.38170  0.47270  0.25310  Biso   1.000  C
  C122     1.0000 0.61830  0.47270  0.24690  Biso   1.000  C
  C123     1.0000 0.88170  0.97270  0.25310  Biso   1.000  C
  C124     1.0000 0.11830  0.97270  0.24690  Biso   1.000  C
  C125     1.0000 0.52460  0.56568  0.78370  Biso   1.000  C
  C126     1.0000 0.47540  0.56568  0.71630  Biso   1.000  C
  C127     1.0000 0.02460  0.06568  0.78370  Biso   1.000  C
  C128     1.0000 0.97540  0.06568  0.71630  Biso   1.000  C
  C129     1.0000 0.47540  0.43432  0.21630  Biso   1.000  C
  C130     1.0000 0.52460  0.43432  0.28370  Biso   1.000  C
  C131     1.0000 0.97540  0.93432  0.21630  Biso   1.000  C
  C132     1.0000 0.02460  0.93432  0.28370  Biso   1.000  C
  C133     1.0000 0.42020  0.52710  0.80930  Biso   1.000  C
  C134     1.0000 0.57980  0.52710  0.69070  Biso   1.000  C
  C135     1.0000 0.92020  0.02710  0.80930  Biso   1.000  C
  C136     1.0000 0.07980  0.02710  0.69070  Biso   1.000  C
  C137     1.0000 0.57980  0.47290  0.19070  Biso   1.000  C
  C138     1.0000 0.42020  0.47290  0.30930  Biso   1.000  C
  C139     1.0000 0.07980  0.97290  0.19070  Biso   1.000  C
  C140     1.0000 0.92020  0.97290  0.30930  Biso   1.000  C
  C141     1.0000 0.40950  0.45010  0.79810  Biso   1.000  C
  C142     1.0000 0.59050  0.45010  0.70190  Biso   1.000  C
  C143     1.0000 0.90950  0.95010  0.79810  Biso   1.000  C
  C144     1.0000 0.09050  0.95010  0.70190  Biso   1.000  C
  C145     1.0000 0.59050  0.54990  0.20190  Biso   1.000  C
  C146     1.0000 0.40950  0.54990  0.29810  Biso   1.000  C
  C147     1.0000 0.09050  0.04990  0.20190  Biso   1.000  C
  C148     1.0000 0.90950  0.04990  0.29810  Biso   1.000  C
  C149     1.0000 0.30840  0.39530  0.81850  Biso   1.000  C
  C150     1.0000 0.69160  0.39530  0.68150  Biso   1.000  C
  C151     1.0000 0.80840  0.89530  0.81850  Biso   1.000  C
  C152     1.0000 0.19160  0.89530  0.68150  Biso   1.000  C
  C153     1.0000 0.69160  0.60470  0.18150  Biso   1.000  C
  C154     1.0000 0.30840  0.60470  0.31850  Biso   1.000  C
  C155     1.0000 0.19160  0.10470  0.18150  Biso   1.000  C
  C156     1.0000 0.80840  0.10470  0.31850  Biso   1.000  C
  O33      1.0000 0.21470  0.42070  0.84770  Biso   1.000  O
  O34      1.0000 0.78530  0.42070  0.65230  Biso   1.000  O
  O35      1.0000 0.71470  0.92070  0.84770  Biso   1.000  O
  O36      1.0000 0.28530  0.92070  0.65230  Biso   1.000  O
  O37      1.0000 0.78530  0.57930  0.15230  Biso   1.000  O
  O38      1.0000 0.21470  0.57930  0.34770  Biso   1.000  O
  O39      1.0000 0.28530  0.07930  0.15230  Biso   1.000  O
  O40      1.0000 0.71470  0.07930  0.34770  Biso   1.000  O
  O41      1.0000 0.33700  0.32900  0.80400  Biso   1.000  O
  O42      1.0000 0.66300  0.32900  0.69600  Biso   1.000  O
  O43      1.0000 0.83700  0.82900  0.80400  Biso   1.000  O
  O44      1.0000 0.16300  0.82900  0.69600  Biso   1.000  O
  O45      1.0000 0.66300  0.67100  0.19600  Biso   1.000  O
  O46      1.0000 0.33700  0.67100  0.30400  Biso   1.000  O
  O47      1.0000 0.16300  0.17100  0.19600  Biso   1.000  O
  O48      1.0000 0.83700  0.17100  0.30400  Biso   1.000  O
  O49      1.0000 0.85970  0.22660  0.77020  Biso   1.000  O
  O50      1.0000 0.14030  0.22660  0.72980  Biso   1.000  O
  O51      1.0000 0.35970  0.72660  0.77020  Biso   1.000  O
  O52      1.0000 0.64030  0.72660  0.72980  Biso   1.000  O
  O53      1.0000 0.14030  0.77340  0.22980  Biso   1.000  O
  O54      1.0000 0.85970  0.77340  0.27020  Biso   1.000  O
  O55      1.0000 0.64030  0.27340  0.22980  Biso   1.000  O
  O56      1.0000 0.35970  0.27340  0.27020  Biso   1.000  O
  H93      1.0000 0.81097  0.26512  0.75800  Biso   1.000  H
  H94      1.0000 0.18903  0.26512  0.74200  Biso   1.000  H
  H95      1.0000 0.31097  0.76512  0.75800  Biso   1.000  H
  H96      1.0000 0.68903  0.76512  0.74200  Biso   1.000  H
  H97      1.0000 0.18903  0.73488  0.24200  Biso   1.000  H
  H98      1.0000 0.81097  0.73488  0.25800  Biso   1.000  H
  H99      1.0000 0.68903  0.23488  0.24200  Biso   1.000  H
  H100     1.0000 0.31097  0.23488  0.25800  Biso   1.000  H
  H101     1.0000 0.92372  0.22561  0.74101  Biso   1.000  H
  H102     1.0000 0.07628  0.22561  0.75899  Biso   1.000  H
  H103     1.0000 0.42372  0.72561  0.74101  Biso   1.000  H
  H104     1.0000 0.57628  0.72561  0.75899  Biso   1.000  H
  H105     1.0000 0.07628  0.77439  0.25899  Biso   1.000  H
  H106     1.0000 0.92372  0.77439  0.24101  Biso   1.000  H
  H107     1.0000 0.57628  0.27439  0.25899  Biso   1.000  H
  H108     1.0000 0.42372  0.27439  0.24101  Biso   1.000  H
  N29      1.0000 0.08790  0.26230  0.54900  Biso   1.000  N
  N30      1.0000 0.91210  0.26230  0.95100  Biso   1.000  N
  N31      1.0000 0.58790  0.76230  0.54900  Biso   1.000  N
  N32      1.0000 0.41210  0.76230  0.95100  Biso   1.000  N
  N33      1.0000 0.91210  0.73770  0.45100  Biso   1.000  N
  N34      1.0000 0.08790  0.73770  0.04900  Biso   1.000  N
  N35      1.0000 0.41210  0.23770  0.45100  Biso   1.000  N
  N36      1.0000 0.58790  0.23770  0.04900  Biso   1.000  N
  N37      1.0000 0.91660  0.30930  0.58520  Biso   1.000  N
  N38      1.0000 0.08340  0.30930  0.91480  Biso   1.000  N
  N39      1.0000 0.41660  0.80930  0.58520  Biso   1.000  N
  N40      1.0000 0.58340  0.80930  0.91480  Biso   1.000  N
  N41      1.0000 0.08340  0.69070  0.41480  Biso   1.000  N
  N42      1.0000 0.91660  0.69070  0.08520  Biso   1.000  N
  N43      1.0000 0.58340  0.19070  0.41480  Biso   1.000  N
  N44      1.0000 0.41660  0.19070  0.08520  Biso   1.000  N
  H109     1.0000 0.86463  0.34029  0.60688  Biso   1.000  H
  H110     1.0000 0.13537  0.34029  0.89312  Biso   1.000  H
  H111     1.0000 0.36463  0.84029  0.60688  Biso   1.000  H
  H112     1.0000 0.63537  0.84029  0.89312  Biso   1.000  H
  H113     1.0000 0.13537  0.65971  0.39312  Biso   1.000  H
  H114     1.0000 0.86463  0.65971  0.10688  Biso   1.000  H
  H115     1.0000 0.63537  0.15971  0.39312  Biso   1.000  H
  H116     1.0000 0.36463  0.15971  0.10688  Biso   1.000  H
  C157     1.0000 0.00360  0.20260  0.54740  Biso   1.000  C
  C158     1.0000 0.99640  0.20260  0.95260  Biso   1.000  C
  C159     1.0000 0.50360  0.70260  0.54740  Biso   1.000  C
  C160     1.0000 0.49640  0.70260  0.95260  Biso   1.000  C
  C161     1.0000 0.99640  0.79740  0.45260  Biso   1.000  C
  C162     1.0000 0.00360  0.79740  0.04740  Biso   1.000  C
  C163     1.0000 0.49640  0.29740  0.45260  Biso   1.000  C
  C164     1.0000 0.50360  0.29740  0.04740  Biso   1.000  C
  C165     1.0000 0.02070  0.12830  0.52490  Biso   1.000  C
  C166     1.0000 0.97930  0.12830  0.97510  Biso   1.000  C
  C167     1.0000 0.52070  0.62830  0.52490  Biso   1.000  C
  C168     1.0000 0.47930  0.62830  0.97510  Biso   1.000  C
  C169     1.0000 0.97930  0.87170  0.47510  Biso   1.000  C
  C170     1.0000 0.02070  0.87170  0.02490  Biso   1.000  C
  C171     1.0000 0.47930  0.37170  0.47510  Biso   1.000  C
  C172     1.0000 0.52070  0.37170  0.02490  Biso   1.000  C
  H117     1.0000 0.09928  0.10933  0.50861  Biso   1.000  H
  H118     1.0000 0.90072  0.10933  0.99139  Biso   1.000  H
  H119     1.0000 0.59928  0.60933  0.50861  Biso   1.000  H
  H120     1.0000 0.40072  0.60933  0.99139  Biso   1.000  H
  H121     1.0000 0.90072  0.89067  0.49139  Biso   1.000  H
  H122     1.0000 0.09928  0.89067  0.00861  Biso   1.000  H
  H123     1.0000 0.40072  0.39067  0.49139  Biso   1.000  H
  H124     1.0000 0.59928  0.39067  0.00861  Biso   1.000  H
  C173     1.0000 0.90910  0.08480  0.52900  Biso   1.000  C
  C174     1.0000 0.09090  0.08480  0.97100  Biso   1.000  C
  C175     1.0000 0.40910  0.58480  0.52900  Biso   1.000  C
  C176     1.0000 0.59090  0.58480  0.97100  Biso   1.000  C
  C177     1.0000 0.09090  0.91520  0.47100  Biso   1.000  C
  C178     1.0000 0.90910  0.91520  0.02900  Biso   1.000  C
  C179     1.0000 0.59090  0.41520  0.47100  Biso   1.000  C
  C180     1.0000 0.40910  0.41520  0.02900  Biso   1.000  C
  H125     1.0000 0.90913  0.03431  0.51146  Biso   1.000  H
  H126     1.0000 0.09087  0.03431  0.98854  Biso   1.000  H
  H127     1.0000 0.40913  0.53431  0.51146  Biso   1.000  H
  H128     1.0000 0.59087  0.53431  0.98854  Biso   1.000  H
  H129     1.0000 0.09087  0.96569  0.48854  Biso   1.000  H
  H130     1.0000 0.90913  0.96569  0.01146  Biso   1.000  H
  H131     1.0000 0.59087  0.46569  0.48854  Biso   1.000  H
  H132     1.0000 0.40913  0.46569  0.01146  Biso   1.000  H
  C181     1.0000 0.79600  0.11420  0.55870  Biso   1.000  C
  C182     1.0000 0.20400  0.11420  0.94130  Biso   1.000  C
  C183     1.0000 0.29600  0.61420  0.55870  Biso   1.000  C
  C184     1.0000 0.70400  0.61420  0.94130  Biso   1.000  C
  C185     1.0000 0.20400  0.88580  0.44130  Biso   1.000  C
  C186     1.0000 0.79600  0.88580  0.05870  Biso   1.000  C
  C187     1.0000 0.70400  0.38580  0.44130  Biso   1.000  C
  C188     1.0000 0.29600  0.38580  0.05870  Biso   1.000  C
  H133     1.0000 0.72828  0.08036  0.56774  Biso   1.000  H
  H134     1.0000 0.27172  0.08036  0.93226  Biso   1.000  H
  H135     1.0000 0.22828  0.58036  0.56774  Biso   1.000  H
  H136     1.0000 0.77172  0.58036  0.93226  Biso   1.000  H
  H137     1.0000 0.27172  0.91964  0.43226  Biso   1.000  H
  H138     1.0000 0.72828  0.91964  0.06774  Biso   1.000  H
  H139     1.0000 0.77172  0.41964  0.43226  Biso   1.000  H
  H140     1.0000 0.22828  0.41964  0.06774  Biso   1.000  H
  C189     1.0000 0.77910  0.19020  0.57520  Biso   1.000  C
  C190     1.0000 0.22090  0.19020  0.92480  Biso   1.000  C
  C191     1.0000 0.27910  0.69020  0.57520  Biso   1.000  C
  C192     1.0000 0.72090  0.69020  0.92480  Biso   1.000  C
  C193     1.0000 0.22090  0.80980  0.42480  Biso   1.000  C
  C194     1.0000 0.77910  0.80980  0.07520  Biso   1.000  C
  C195     1.0000 0.72090  0.30980  0.42480  Biso   1.000  C
  C196     1.0000 0.27910  0.30980  0.07520  Biso   1.000  C
  H141     1.0000 0.70067  0.20950  0.59142  Biso   1.000  H
  H142     1.0000 0.29933  0.20950  0.90858  Biso   1.000  H
  H143     1.0000 0.20067  0.70950  0.59142  Biso   1.000  H
  H144     1.0000 0.79933  0.70950  0.90858  Biso   1.000  H
  H145     1.0000 0.29933  0.79050  0.40858  Biso   1.000  H
  H146     1.0000 0.70067  0.79050  0.09142  Biso   1.000  H
  H147     1.0000 0.79933  0.29050  0.40858  Biso   1.000  H
  H148     1.0000 0.20067  0.29050  0.09142  Biso   1.000  H
  C197     1.0000 0.88750  0.23600  0.56610  Biso   1.000  C
  C198     1.0000 0.11250  0.23600  0.93390  Biso   1.000  C
  C199     1.0000 0.38750  0.73600  0.56610  Biso   1.000  C
  C200     1.0000 0.61250  0.73600  0.93390  Biso   1.000  C
  C201     1.0000 0.11250  0.76400  0.43390  Biso   1.000  C
  C202     1.0000 0.88750  0.76400  0.06610  Biso   1.000  C
  C203     1.0000 0.61250  0.26400  0.43390  Biso   1.000  C
  C204     1.0000 0.38750  0.26400  0.06610  Biso   1.000  C
  C205     1.0000 0.03440  0.32680  0.56630  Biso   1.000  C
  C206     1.0000 0.96560  0.32680  0.93370  Biso   1.000  C
  C207     1.0000 0.53440  0.82680  0.56630  Biso   1.000  C
  C208     1.0000 0.46560  0.82680  0.93370  Biso   1.000  C
  C209     1.0000 0.96560  0.67320  0.43370  Biso   1.000  C
  C210     1.0000 0.03440  0.67320  0.06630  Biso   1.000  C
  C211     1.0000 0.46560  0.17320  0.43370  Biso   1.000  C
  C212     1.0000 0.53440  0.17320  0.06630  Biso   1.000  C
  C213     1.0000 0.09140  0.40240  0.57130  Biso   1.000  C
  C214     1.0000 0.90860  0.40240  0.92870  Biso   1.000  C
  C215     1.0000 0.59140  0.90240  0.57130  Biso   1.000  C
  C216     1.0000 0.40860  0.90240  0.92870  Biso   1.000  C
  C217     1.0000 0.90860  0.59760  0.42870  Biso   1.000  C
  C218     1.0000 0.09140  0.59760  0.07130  Biso   1.000  C
  C219     1.0000 0.40860  0.09760  0.42870  Biso   1.000  C
  C220     1.0000 0.59140  0.09760  0.07130  Biso   1.000  C
  H149     1.0000 0.02073  0.43964  0.57058  Biso   1.000  H
  H150     1.0000 0.97927  0.43964  0.92942  Biso   1.000  H
  H151     1.0000 0.52073  0.93964  0.57058  Biso   1.000  H
  H152     1.0000 0.47927  0.93964  0.92942  Biso   1.000  H
  H153     1.0000 0.97927  0.56036  0.42942  Biso   1.000  H
  H154     1.0000 0.02073  0.56036  0.07058  Biso   1.000  H
  H155     1.0000 0.47927  0.06036  0.42942  Biso   1.000  H
  H156     1.0000 0.52073  0.06036  0.07058  Biso   1.000  H
  H157     1.0000 0.13831  0.41110  0.52473  Biso   1.000  H
  H158     1.0000 0.86169  0.41110  0.97527  Biso   1.000  H
  H159     1.0000 0.63831  0.91110  0.52473  Biso   1.000  H
  H160     1.0000 0.36169  0.91110  0.97527  Biso   1.000  H
  H161     1.0000 0.86169  0.58890  0.47527  Biso   1.000  H
  H162     1.0000 0.13831  0.58890  0.02473  Biso   1.000  H
  H163     1.0000 0.36169  0.08890  0.47527  Biso   1.000  H
  H164     1.0000 0.63831  0.08890  0.02473  Biso   1.000  H
  C221     1.0000 0.18260  0.41600  0.64210  Biso   1.000  C
  C222     1.0000 0.81740  0.41600  0.85790  Biso   1.000  C
  C223     1.0000 0.68260  0.91600  0.64210  Biso   1.000  C
  C224     1.0000 0.31740  0.91600  0.85790  Biso   1.000  C
  C225     1.0000 0.81740  0.58400  0.35790  Biso   1.000  C
  C226     1.0000 0.18260  0.58400  0.14210  Biso   1.000  C
  C227     1.0000 0.31740  0.08400  0.35790  Biso   1.000  C
  C228     1.0000 0.68260  0.08400  0.14210  Biso   1.000  C
  H165     1.0000 0.21602  0.46728  0.64094  Biso   1.000  H
  H166     1.0000 0.78398  0.46728  0.85906  Biso   1.000  H
  H167     1.0000 0.71602  0.96728  0.64094  Biso   1.000  H
  H168     1.0000 0.28398  0.96728  0.85906  Biso   1.000  H
  H169     1.0000 0.78398  0.53272  0.35906  Biso   1.000  H
  H170     1.0000 0.21602  0.53272  0.14094  Biso   1.000  H
  H171     1.0000 0.28398  0.03272  0.35906  Biso   1.000  H
  H172     1.0000 0.71602  0.03272  0.14094  Biso   1.000  H
  H173     1.0000 0.13669  0.40899  0.68863  Biso   1.000  H
  H174     1.0000 0.86331  0.40899  0.81137  Biso   1.000  H
  H175     1.0000 0.63669  0.90899  0.68863  Biso   1.000  H
  H176     1.0000 0.36331  0.90899  0.81137  Biso   1.000  H
  H177     1.0000 0.86331  0.59101  0.31137  Biso   1.000  H
  H178     1.0000 0.13669  0.59101  0.18863  Biso   1.000  H
  H179     1.0000 0.36331  0.09101  0.31137  Biso   1.000  H
  H180     1.0000 0.63669  0.09101  0.18863  Biso   1.000  H
  H181     1.0000 0.25449  0.38039  0.64270  Biso   1.000  H
  H182     1.0000 0.74551  0.38039  0.85730  Biso   1.000  H
  H183     1.0000 0.75449  0.88039  0.64270  Biso   1.000  H
  H184     1.0000 0.24551  0.88039  0.85730  Biso   1.000  H
  H185     1.0000 0.74551  0.61961  0.35730  Biso   1.000  H
  H186     1.0000 0.25449  0.61961  0.14270  Biso   1.000  H
  H187     1.0000 0.24551  0.11961  0.35730  Biso   1.000  H
  H188     1.0000 0.75449  0.11961  0.14270  Biso   1.000  H
  H189     1.0000 0.53190  0.61830  0.79137  Biso   1.000  H
  H190     1.0000 0.46810  0.61830  0.70863  Biso   1.000  H
  H191     1.0000 0.03190  0.11830  0.79137  Biso   1.000  H
  H192     1.0000 0.96810  0.11830  0.70863  Biso   1.000  H
  H193     1.0000 0.46810  0.38170  0.20863  Biso   1.000  H
  H194     1.0000 0.53190  0.38170  0.29137  Biso   1.000  H
  H195     1.0000 0.96810  0.88170  0.20863  Biso   1.000  H
  H196     1.0000 0.03190  0.88170  0.29137  Biso   1.000  H
  H197     1.0000 0.35611  0.55335  0.83444  Biso   1.000  H
  H198     1.0000 0.64389  0.55335  0.66556  Biso   1.000  H
  H199     1.0000 0.85611  0.05335  0.83444  Biso   1.000  H
  H200     1.0000 0.14389  0.05335  0.66556  Biso   1.000  H
  H201     1.0000 0.64389  0.44665  0.16556  Biso   1.000  H
  H202     1.0000 0.35611  0.44665  0.33444  Biso   1.000  H
  H203     1.0000 0.14389  0.94665  0.16556  Biso   1.000  H
  H204     1.0000 0.85611  0.94665  0.33444  Biso   1.000  H
  H205     1.0000 0.68969  0.55365  0.72943  Biso   1.000  H
  H206     1.0000 0.31031  0.55365  0.77057  Biso   1.000  H
  H207     1.0000 0.18969  0.05365  0.72943  Biso   1.000  H
  H208     1.0000 0.81031  0.05365  0.77057  Biso   1.000  H
  H209     1.0000 0.31031  0.44635  0.27057  Biso   1.000  H
  H210     1.0000 0.68969  0.44635  0.22943  Biso   1.000  H
  H211     1.0000 0.81031  0.94635  0.27057  Biso   1.000  H
  H212     1.0000 0.18969  0.94635  0.22943  Biso   1.000  H
