data_image0
_cell_length_a       10.3374
_cell_length_b       18.0741
_cell_length_c       17.9011
_cell_angle_alpha    90
_cell_angle_beta     92.401
_cell_angle_gamma    90

_symmetry_space_group_name_H-M    "P 1"
_symmetry_int_tables_number       1

loop_
  _symmetry_equiv_pos_as_xyz
  'x, y, z'

loop_
  _atom_site_label
  _atom_site_occupancy
  _atom_site_fract_x
  _atom_site_fract_y
  _atom_site_fract_z
  _atom_site_thermal_displace_type
  _atom_site_B_iso_or_equiv
  _atom_site_type_symbol
  Cu1      1.0000 0.51353  0.77712  0.61953  Biso   1.000  Cu
  Cu2      1.0000 0.51353  0.22288  0.11953  Biso   1.000  Cu
  Cu3      1.0000 0.01353  0.27712  0.61953  Biso   1.000  Cu
  Cu4      1.0000 0.01353  0.72288  0.11953  Biso   1.000  Cu
  Cu5      1.0000 0.26479  0.67327  0.37900  Biso   1.000  Cu
  Cu6      1.0000 0.26479  0.32673  0.87900  Biso   1.000  Cu
  Cu7      1.0000 0.76479  0.17327  0.37900  Biso   1.000  Cu
  Cu8      1.0000 0.76479  0.82673  0.87900  Biso   1.000  Cu
  O1       1.0000 0.38650  0.71930  0.48490  Biso   1.000  O
  O2       1.0000 0.38650  0.28070  0.98490  Biso   1.000  O
  O3       1.0000 0.88650  0.21930  0.48490  Biso   1.000  O
  O4       1.0000 0.88650  0.78070  0.98490  Biso   1.000  O
  O5       1.0000 0.44960  0.83050  0.52970  Biso   1.000  O
  O6       1.0000 0.44960  0.16950  0.02970  Biso   1.000  O
  O7       1.0000 0.94960  0.33050  0.52970  Biso   1.000  O
  O8       1.0000 0.94960  0.66950  0.02970  Biso   1.000  O
  O9       1.0000 0.15050  0.69360  0.26340  Biso   1.000  O
  O10      1.0000 0.15050  0.30640  0.76340  Biso   1.000  O
  O11      1.0000 0.65050  0.19360  0.26340  Biso   1.000  O
  O12      1.0000 0.65050  0.80640  0.76340  Biso   1.000  O
  O13      1.0000 0.06510  0.79080  0.20110  Biso   1.000  O
  O14      1.0000 0.06510  0.20920  0.70110  Biso   1.000  O
  O15      1.0000 0.56510  0.29080  0.20110  Biso   1.000  O
  O16      1.0000 0.56510  0.70920  0.70110  Biso   1.000  O
  O17      1.0000 0.42300  0.64720  0.32120  Biso   1.000  O
  O18      1.0000 0.42300  0.35280  0.82120  Biso   1.000  O
  O19      1.0000 0.92300  0.14720  0.32120  Biso   1.000  O
  O20      1.0000 0.92300  0.85280  0.82120  Biso   1.000  O
  O21      1.0000 0.53120  0.54890  0.27890  Biso   1.000  O
  O22      1.0000 0.53120  0.45110  0.77890  Biso   1.000  O
  O23      1.0000 0.03120  0.04890  0.27890  Biso   1.000  O
  O24      1.0000 0.03120  0.95110  0.77890  Biso   1.000  O
  O25      1.0000 0.10450  0.66130  0.43920  Biso   1.000  O
  O26      1.0000 0.10450  0.33870  0.93920  Biso   1.000  O
  O27      1.0000 0.60450  0.16130  0.43920  Biso   1.000  O
  O28      1.0000 0.60450  0.83870  0.93920  Biso   1.000  O
  O29      1.0000 0.97800  0.57350  0.48770  Biso   1.000  O
  O30      1.0000 0.97800  0.42650  0.98770  Biso   1.000  O
  O31      1.0000 0.47800  0.07350  0.48770  Biso   1.000  O
  O32      1.0000 0.47800  0.92650  0.98770  Biso   1.000  O
  N1       1.0000 0.25830  0.78310  0.36870  Biso   1.000  N
  N2       1.0000 0.25830  0.21690  0.86870  Biso   1.000  N
  N3       1.0000 0.75830  0.28310  0.36870  Biso   1.000  N
  N4       1.0000 0.75830  0.71690  0.86870  Biso   1.000  N
  N5       1.0000 0.25880  0.56720  0.38600  Biso   1.000  N
  N6       1.0000 0.25880  0.43280  0.88600  Biso   1.000  N
  N7       1.0000 0.75880  0.06720  0.38600  Biso   1.000  N
  N8       1.0000 0.75880  0.93280  0.88600  Biso   1.000  N
  N9       1.0000 0.34320  0.78910  0.66430  Biso   1.000  N
  N10      1.0000 0.34320  0.21090  0.16430  Biso   1.000  N
  N11      1.0000 0.84320  0.28910  0.66430  Biso   1.000  N
  N12      1.0000 0.84320  0.71090  0.16430  Biso   1.000  N
  N13      1.0000 0.17330  0.83330  0.72150  Biso   1.000  N
  N14      1.0000 0.17330  0.16670  0.22150  Biso   1.000  N
  N15      1.0000 0.67330  0.33330  0.72150  Biso   1.000  N
  N16      1.0000 0.67330  0.66670  0.22150  Biso   1.000  N
  H1       1.0000 0.12261  0.86457  0.74412  Biso   1.000  H
  H2       1.0000 0.12261  0.13543  0.24412  Biso   1.000  H
  H3       1.0000 0.62261  0.36457  0.74412  Biso   1.000  H
  H4       1.0000 0.62261  0.63543  0.24412  Biso   1.000  H
  N17      1.0000 0.68560  0.76340  0.57840  Biso   1.000  N
  N18      1.0000 0.68560  0.23660  0.07840  Biso   1.000  N
  N19      1.0000 0.18560  0.26340  0.57840  Biso   1.000  N
  N20      1.0000 0.18560  0.73660  0.07840  Biso   1.000  N
  N21      1.0000 0.84900  0.70410  0.52900  Biso   1.000  N
  N22      1.0000 0.84900  0.29590  0.02900  Biso   1.000  N
  N23      1.0000 0.34900  0.20410  0.52900  Biso   1.000  N
  N24      1.0000 0.34900  0.79590  0.02900  Biso   1.000  N
  H5       1.0000 0.89369  0.66807  0.50936  Biso   1.000  H
  H6       1.0000 0.89369  0.33193  0.00936  Biso   1.000  H
  H7       1.0000 0.39369  0.16807  0.50936  Biso   1.000  H
  H8       1.0000 0.39369  0.83193  0.00936  Biso   1.000  H
  C1       1.0000 0.38970  0.78850  0.48300  Biso   1.000  C
  C2       1.0000 0.38970  0.21150  0.98300  Biso   1.000  C
  C3       1.0000 0.88970  0.28850  0.48300  Biso   1.000  C
  C4       1.0000 0.88970  0.71150  0.98300  Biso   1.000  C
  C5       1.0000 0.31500  0.82690  0.42090  Biso   1.000  C
  C6       1.0000 0.31500  0.17310  0.92090  Biso   1.000  C
  C7       1.0000 0.81500  0.32690  0.42090  Biso   1.000  C
  C8       1.0000 0.81500  0.67310  0.92090  Biso   1.000  C
  C9       1.0000 0.29870  0.90390  0.41930  Biso   1.000  C
  C10      1.0000 0.29870  0.09610  0.91930  Biso   1.000  C
  C11      1.0000 0.79870  0.40390  0.41930  Biso   1.000  C
  C12      1.0000 0.79870  0.59610  0.91930  Biso   1.000  C
  H9       1.0000 0.33952  0.93417  0.45667  Biso   1.000  H
  H10      1.0000 0.33952  0.06583  0.95667  Biso   1.000  H
  H11      1.0000 0.83952  0.43417  0.45667  Biso   1.000  H
  H12      1.0000 0.83952  0.56583  0.95667  Biso   1.000  H
  C13      1.0000 0.22230  0.93490  0.36250  Biso   1.000  C
  C14      1.0000 0.22230  0.06510  0.86250  Biso   1.000  C
  C15      1.0000 0.72230  0.43490  0.36250  Biso   1.000  C
  C16      1.0000 0.72230  0.56510  0.86250  Biso   1.000  C
  H13      1.0000 0.20897  0.98689  0.36087  Biso   1.000  H
  H14      1.0000 0.20897  0.01311  0.86087  Biso   1.000  H
  H15      1.0000 0.70897  0.48689  0.36087  Biso   1.000  H
  H16      1.0000 0.70897  0.51311  0.86087  Biso   1.000  H
  C17      1.0000 0.16510  0.88980  0.30800  Biso   1.000  C
  C18      1.0000 0.16510  0.11020  0.80800  Biso   1.000  C
  C19      1.0000 0.66510  0.38980  0.30800  Biso   1.000  C
  C20      1.0000 0.66510  0.61020  0.80800  Biso   1.000  C
  H17      1.0000 0.11299  0.91034  0.26825  Biso   1.000  H
  H18      1.0000 0.11299  0.08966  0.76825  Biso   1.000  H
  H19      1.0000 0.61299  0.41034  0.26825  Biso   1.000  H
  H20      1.0000 0.61299  0.58966  0.76825  Biso   1.000  H
  C21      1.0000 0.18560  0.81320  0.31250  Biso   1.000  C
  C22      1.0000 0.18560  0.18680  0.81250  Biso   1.000  C
  C23      1.0000 0.68560  0.31320  0.31250  Biso   1.000  C
  C24      1.0000 0.68560  0.68680  0.81250  Biso   1.000  C
  C25      1.0000 0.12830  0.76110  0.25470  Biso   1.000  C
  C26      1.0000 0.12830  0.23890  0.75470  Biso   1.000  C
  C27      1.0000 0.62830  0.26110  0.25470  Biso   1.000  C
  C28      1.0000 0.62830  0.73890  0.75470  Biso   1.000  C
  C29      1.0000 0.44200  0.57680  0.31220  Biso   1.000  C
  C30      1.0000 0.44200  0.42320  0.81220  Biso   1.000  C
  C31      1.0000 0.94200  0.07680  0.31220  Biso   1.000  C
  C32      1.0000 0.94200  0.92320  0.81220  Biso   1.000  C
  C33      1.0000 0.34470  0.52750  0.35020  Biso   1.000  C
  C34      1.0000 0.34470  0.47250  0.85020  Biso   1.000  C
  C35      1.0000 0.84470  0.02750  0.35020  Biso   1.000  C
  C36      1.0000 0.84470  0.97250  0.85020  Biso   1.000  C
  C37      1.0000 0.33800  0.45140  0.34980  Biso   1.000  C
  C38      1.0000 0.33800  0.54860  0.84980  Biso   1.000  C
  C39      1.0000 0.83800  0.95140  0.34980  Biso   1.000  C
  C40      1.0000 0.83800  0.04860  0.84980  Biso   1.000  C
  H21      1.0000 0.39688  0.42281  0.32253  Biso   1.000  H
  H22      1.0000 0.39688  0.57719  0.82253  Biso   1.000  H
  H23      1.0000 0.89688  0.92281  0.32253  Biso   1.000  H
  H24      1.0000 0.89688  0.07719  0.82253  Biso   1.000  H
  C41      1.0000 0.24240  0.41750  0.39050  Biso   1.000  C
  C42      1.0000 0.24240  0.58250  0.89050  Biso   1.000  C
  C43      1.0000 0.74240  0.91750  0.39050  Biso   1.000  C
  C44      1.0000 0.74240  0.08250  0.89050  Biso   1.000  C
  H25      1.0000 0.23761  0.36503  0.39273  Biso   1.000  H
  H26      1.0000 0.23761  0.63497  0.89273  Biso   1.000  H
  H27      1.0000 0.73761  0.86503  0.39273  Biso   1.000  H
  H28      1.0000 0.73761  0.13497  0.89273  Biso   1.000  H
  C45      1.0000 0.15530  0.45980  0.42750  Biso   1.000  C
  C46      1.0000 0.15530  0.54020  0.92750  Biso   1.000  C
  C47      1.0000 0.65530  0.95980  0.42750  Biso   1.000  C
  C48      1.0000 0.65530  0.04020  0.92750  Biso   1.000  C
  H29      1.0000 0.09026  0.43696  0.45555  Biso   1.000  H
  H30      1.0000 0.09026  0.56304  0.95555  Biso   1.000  H
  H31      1.0000 0.59026  0.93696  0.45555  Biso   1.000  H
  H32      1.0000 0.59026  0.06304  0.95555  Biso   1.000  H
  C49      1.0000 0.16330  0.53650  0.42330  Biso   1.000  C
  C50      1.0000 0.16330  0.46350  0.92330  Biso   1.000  C
  C51      1.0000 0.66330  0.03650  0.42330  Biso   1.000  C
  C52      1.0000 0.66330  0.96350  0.92330  Biso   1.000  C
  C53      1.0000 0.07370  0.59390  0.45390  Biso   1.000  C
  C54      1.0000 0.07370  0.40610  0.95390  Biso   1.000  C
  C55      1.0000 0.57370  0.09390  0.45390  Biso   1.000  C
  C56      1.0000 0.57370  0.90610  0.95390  Biso   1.000  C
  C57      1.0000 0.25430  0.73320  0.66790  Biso   1.000  C
  C58      1.0000 0.25430  0.26680  0.16790  Biso   1.000  C
  C59      1.0000 0.75430  0.23320  0.66790  Biso   1.000  C
  C60      1.0000 0.75430  0.76680  0.16790  Biso   1.000  C
  C61      1.0000 0.25430  0.66100  0.64210  Biso   1.000  C
  C62      1.0000 0.25430  0.33900  0.14210  Biso   1.000  C
  C63      1.0000 0.75430  0.16100  0.64210  Biso   1.000  C
  C64      1.0000 0.75430  0.83900  0.14210  Biso   1.000  C
  H33      1.0000 0.32660  0.64179  0.61736  Biso   1.000  H
  H34      1.0000 0.32660  0.35821  0.11736  Biso   1.000  H
  H35      1.0000 0.82660  0.14179  0.61736  Biso   1.000  H
  H36      1.0000 0.82660  0.85821  0.11736  Biso   1.000  H
  C65      1.0000 0.14710  0.61760  0.65320  Biso   1.000  C
  C66      1.0000 0.14710  0.38240  0.15320  Biso   1.000  C
  C67      1.0000 0.64710  0.11760  0.65320  Biso   1.000  C
  C68      1.0000 0.64710  0.88240  0.15320  Biso   1.000  C
  H37      1.0000 0.14603  0.56802  0.63559  Biso   1.000  H
  H38      1.0000 0.14603  0.43198  0.13559  Biso   1.000  H
  H39      1.0000 0.64603  0.06802  0.63559  Biso   1.000  H
  H40      1.0000 0.64603  0.93198  0.13559  Biso   1.000  H
  C69      1.0000 0.03960  0.64490  0.68970  Biso   1.000  C
  C70      1.0000 0.03960  0.35510  0.18970  Biso   1.000  C
  C71      1.0000 0.53960  0.14490  0.68970  Biso   1.000  C
  C72      1.0000 0.53960  0.85510  0.18970  Biso   1.000  C
  H41      1.0000 0.96840  0.61304  0.69738  Biso   1.000  H
  H42      1.0000 0.96840  0.38696  0.19738  Biso   1.000  H
  H43      1.0000 0.46840  0.11304  0.69738  Biso   1.000  H
  H44      1.0000 0.46840  0.88696  0.19738  Biso   1.000  H
  C73      1.0000 0.03480  0.71830  0.71510  Biso   1.000  C
  C74      1.0000 0.03480  0.28170  0.21510  Biso   1.000  C
  C75      1.0000 0.53480  0.21830  0.71510  Biso   1.000  C
  C76      1.0000 0.53480  0.78170  0.21510  Biso   1.000  C
  H45      1.0000 0.96119  0.73772  0.73833  Biso   1.000  H
  H46      1.0000 0.96119  0.26228  0.23833  Biso   1.000  H
  H47      1.0000 0.46119  0.23772  0.73833  Biso   1.000  H
  H48      1.0000 0.46119  0.76228  0.23833  Biso   1.000  H
  C77      1.0000 0.14300  0.76020  0.70430  Biso   1.000  C
  C78      1.0000 0.14300  0.23980  0.20430  Biso   1.000  C
  C79      1.0000 0.64300  0.26020  0.70430  Biso   1.000  C
  C80      1.0000 0.64300  0.73980  0.20430  Biso   1.000  C
  C81      1.0000 0.29320  0.84890  0.69800  Biso   1.000  C
  C82      1.0000 0.29320  0.15110  0.19800  Biso   1.000  C
  C83      1.0000 0.79320  0.34890  0.69800  Biso   1.000  C
  C84      1.0000 0.79320  0.65110  0.19800  Biso   1.000  C
  C85      1.0000 0.35540  0.92160  0.71590  Biso   1.000  C
  C86      1.0000 0.35540  0.07840  0.21590  Biso   1.000  C
  C87      1.0000 0.85540  0.42160  0.71590  Biso   1.000  C
  C88      1.0000 0.85540  0.57840  0.21590  Biso   1.000  C
  H49      1.0000 0.28825  0.96118  0.70949  Biso   1.000  H
  H50      1.0000 0.28825  0.03882  0.20949  Biso   1.000  H
  H51      1.0000 0.78825  0.46118  0.70949  Biso   1.000  H
  H52      1.0000 0.78825  0.53882  0.20949  Biso   1.000  H
  C89      1.0000 0.46730  0.94060  0.66730  Biso   1.000  C
  C90      1.0000 0.46730  0.05940  0.16730  Biso   1.000  C
  C91      1.0000 0.96730  0.44060  0.66730  Biso   1.000  C
  C92      1.0000 0.96730  0.55940  0.16730  Biso   1.000  C
  H53      1.0000 0.50097  0.98968  0.68100  Biso   1.000  H
  H54      1.0000 0.50097  0.01032  0.18100  Biso   1.000  H
  H55      1.0000 0.00097  0.48968  0.68100  Biso   1.000  H
  H56      1.0000 0.00097  0.51032  0.18100  Biso   1.000  H
  H57      1.0000 0.43727  0.94070  0.61469  Biso   1.000  H
  H58      1.0000 0.43727  0.05930  0.11469  Biso   1.000  H
  H59      1.0000 0.93727  0.44070  0.61469  Biso   1.000  H
  H60      1.0000 0.93727  0.55930  0.11469  Biso   1.000  H
  H61      1.0000 0.53612  0.90372  0.67492  Biso   1.000  H
  H62      1.0000 0.53612  0.09628  0.17492  Biso   1.000  H
  H63      1.0000 0.03612  0.40372  0.67492  Biso   1.000  H
  H64      1.0000 0.03612  0.59628  0.17492  Biso   1.000  H
  C93      1.0000 0.40220  0.91990  0.79830  Biso   1.000  C
  C94      1.0000 0.40220  0.08010  0.29830  Biso   1.000  C
  C95      1.0000 0.90220  0.41990  0.79830  Biso   1.000  C
  C96      1.0000 0.90220  0.58010  0.29830  Biso   1.000  C
  H65      1.0000 0.47191  0.88348  0.80508  Biso   1.000  H
  H66      1.0000 0.47191  0.11652  0.30508  Biso   1.000  H
  H67      1.0000 0.97191  0.38348  0.80508  Biso   1.000  H
  H68      1.0000 0.97191  0.61652  0.30508  Biso   1.000  H
  H69      1.0000 0.33009  0.90626  0.82934  Biso   1.000  H
  H70      1.0000 0.33009  0.09374  0.32934  Biso   1.000  H
  H71      1.0000 0.83009  0.40626  0.82934  Biso   1.000  H
  H72      1.0000 0.83009  0.59374  0.32934  Biso   1.000  H
  H73      1.0000 0.43459  0.96895  0.81314  Biso   1.000  H
  H74      1.0000 0.43459  0.03105  0.31314  Biso   1.000  H
  H75      1.0000 0.93459  0.46895  0.81314  Biso   1.000  H
  H76      1.0000 0.93459  0.53105  0.31314  Biso   1.000  H
  C97      1.0000 0.78800  0.81340  0.57160  Biso   1.000  C
  C98      1.0000 0.78800  0.18660  0.07160  Biso   1.000  C
  C99      1.0000 0.28800  0.31340  0.57160  Biso   1.000  C
  C100     1.0000 0.28800  0.68660  0.07160  Biso   1.000  C
  C101     1.0000 0.79980  0.88780  0.59070  Biso   1.000  C
  C102     1.0000 0.79980  0.11220  0.09070  Biso   1.000  C
  C103     1.0000 0.29980  0.38780  0.59070  Biso   1.000  C
  C104     1.0000 0.29980  0.61220  0.09070  Biso   1.000  C
  H77      1.0000 0.73010  0.91386  0.61156  Biso   1.000  H
  H78      1.0000 0.73010  0.08614  0.11156  Biso   1.000  H
  H79      1.0000 0.23010  0.41386  0.61156  Biso   1.000  H
  H80      1.0000 0.23010  0.58614  0.11156  Biso   1.000  H
  C105     1.0000 0.91620  0.92260  0.57850  Biso   1.000  C
  C106     1.0000 0.91620  0.07740  0.07850  Biso   1.000  C
  C107     1.0000 0.41620  0.42260  0.57850  Biso   1.000  C
  C108     1.0000 0.41620  0.57740  0.07850  Biso   1.000  C
  H81      1.0000 0.92640  0.97348  0.59075  Biso   1.000  H
  H82      1.0000 0.92640  0.02652  0.09075  Biso   1.000  H
  H83      1.0000 0.42640  0.47348  0.59075  Biso   1.000  H
  H84      1.0000 0.42640  0.52652  0.09075  Biso   1.000  H
  C109     1.0000 0.02080  0.88350  0.54770  Biso   1.000  C
  C110     1.0000 0.02080  0.11650  0.04770  Biso   1.000  C
  C111     1.0000 0.52080  0.38350  0.54770  Biso   1.000  C
  C112     1.0000 0.52080  0.61650  0.04770  Biso   1.000  C
  H85      1.0000 0.10046  0.90823  0.54073  Biso   1.000  H
  H86      1.0000 0.10046  0.09177  0.04073  Biso   1.000  H
  H87      1.0000 0.60046  0.40823  0.54073  Biso   1.000  H
  H88      1.0000 0.60046  0.59177  0.04073  Biso   1.000  H
  C113     1.0000 0.00800  0.80950  0.52780  Biso   1.000  C
  C114     1.0000 0.00800  0.19050  0.02780  Biso   1.000  C
  C115     1.0000 0.50800  0.30950  0.52780  Biso   1.000  C
  C116     1.0000 0.50800  0.69050  0.02780  Biso   1.000  C
  H89      1.0000 0.07664  0.78312  0.50629  Biso   1.000  H
  H90      1.0000 0.07664  0.21688  0.00629  Biso   1.000  H
  H91      1.0000 0.57664  0.28312  0.50629  Biso   1.000  H
  H92      1.0000 0.57664  0.71688  0.00629  Biso   1.000  H
  C117     1.0000 0.89170  0.77630  0.54070  Biso   1.000  C
  C118     1.0000 0.89170  0.22370  0.04070  Biso   1.000  C
  C119     1.0000 0.39170  0.27630  0.54070  Biso   1.000  C
  C120     1.0000 0.39170  0.72370  0.04070  Biso   1.000  C
  C121     1.0000 0.72700  0.69860  0.55290  Biso   1.000  C
  C122     1.0000 0.72700  0.30140  0.05290  Biso   1.000  C
  C123     1.0000 0.22700  0.19860  0.55290  Biso   1.000  C
  C124     1.0000 0.22700  0.80140  0.05290  Biso   1.000  C
  C125     1.0000 0.65040  0.62890  0.55050  Biso   1.000  C
  C126     1.0000 0.65040  0.37110  0.05050  Biso   1.000  C
  C127     1.0000 0.15040  0.12890  0.55050  Biso   1.000  C
  C128     1.0000 0.15040  0.87110  0.05050  Biso   1.000  C
  H93      1.0000 0.56218  0.64014  0.56839  Biso   1.000  H
  H94      1.0000 0.56218  0.35986  0.06839  Biso   1.000  H
  H95      1.0000 0.06218  0.14014  0.56839  Biso   1.000  H
  H96      1.0000 0.06218  0.85986  0.06839  Biso   1.000  H
  C129     1.0000 0.63530  0.59950  0.47080  Biso   1.000  C
  C130     1.0000 0.63530  0.40050  0.97080  Biso   1.000  C
  C131     1.0000 0.13530  0.09950  0.47080  Biso   1.000  C
  C132     1.0000 0.13530  0.90050  0.97080  Biso   1.000  C
  H97      1.0000 0.60086  0.63870  0.43780  Biso   1.000  H
  H98      1.0000 0.60086  0.36130  0.93780  Biso   1.000  H
  H99      1.0000 0.10086  0.13870  0.43780  Biso   1.000  H
  H100     1.0000 0.10086  0.86130  0.93780  Biso   1.000  H
  H101     1.0000 0.57554  0.55743  0.46952  Biso   1.000  H
  H102     1.0000 0.57554  0.44257  0.96952  Biso   1.000  H
  H103     1.0000 0.07554  0.05743  0.46952  Biso   1.000  H
  H104     1.0000 0.07554  0.94257  0.96952  Biso   1.000  H
  H105     1.0000 0.71987  0.58356  0.45399  Biso   1.000  H
  H106     1.0000 0.71987  0.41644  0.95399  Biso   1.000  H
  H107     1.0000 0.21987  0.08356  0.45399  Biso   1.000  H
  H108     1.0000 0.21987  0.91644  0.95399  Biso   1.000  H
  C133     1.0000 0.71280  0.57050  0.60260  Biso   1.000  C
  C134     1.0000 0.71280  0.42950  0.10260  Biso   1.000  C
  C135     1.0000 0.21280  0.07050  0.60260  Biso   1.000  C
  C136     1.0000 0.21280  0.92950  0.10260  Biso   1.000  C
  H109     1.0000 0.79883  0.55792  0.58544  Biso   1.000  H
  H110     1.0000 0.79883  0.44208  0.08544  Biso   1.000  H
  H111     1.0000 0.29883  0.05792  0.58544  Biso   1.000  H
  H112     1.0000 0.29883  0.94208  0.08544  Biso   1.000  H
  H113     1.0000 0.65852  0.52607  0.60214  Biso   1.000  H
  H114     1.0000 0.65852  0.47393  0.10214  Biso   1.000  H
  H115     1.0000 0.15852  0.02607  0.60214  Biso   1.000  H
  H116     1.0000 0.15852  0.97393  0.10214  Biso   1.000  H
  H117     1.0000 0.72093  0.59027  0.65359  Biso   1.000  H
  H118     1.0000 0.72093  0.40973  0.15359  Biso   1.000  H
  H119     1.0000 0.22093  0.09027  0.65359  Biso   1.000  H
  H120     1.0000 0.22093  0.90973  0.15359  Biso   1.000  H
