data_image0
_cell_length_a       10.658
_cell_length_b       25.615
_cell_length_c       7.541
_cell_angle_alpha    90
_cell_angle_beta     121.702
_cell_angle_gamma    90

_symmetry_space_group_name_H-M    "P 1"
_symmetry_int_tables_number       1

loop_
  _symmetry_equiv_pos_as_xyz
  'x, y, z'

loop_
  _atom_site_label
  _atom_site_occupancy
  _atom_site_fract_x
  _atom_site_fract_y
  _atom_site_fract_z
  _atom_site_thermal_displace_type
  _atom_site_B_iso_or_equiv
  _atom_site_type_symbol
  Cu1      1.0000 0.41549  0.99297  0.16522  Biso   1.000  Cu
  Cu2      1.0000 0.41549  0.00703  0.66522  Biso   1.000  Cu
  Cu3      1.0000 0.91549  0.49297  0.16522  Biso   1.000  Cu
  Cu4      1.0000 0.91549  0.50703  0.66522  Biso   1.000  Cu
  Br1      1.0000 0.59780  0.99670  0.58090  Biso   1.000  Br
  Br2      1.0000 0.59780  0.00330  0.08090  Biso   1.000  Br
  Br3      1.0000 0.09780  0.49670  0.58090  Biso   1.000  Br
  Br4      1.0000 0.09780  0.50330  0.08090  Biso   1.000  Br
  N1       1.0000 0.34420  0.06990  0.13720  Biso   1.000  N
  N2       1.0000 0.34420  0.93010  0.63720  Biso   1.000  N
  N3       1.0000 0.84420  0.56990  0.13720  Biso   1.000  N
  N4       1.0000 0.84420  0.43010  0.63720  Biso   1.000  N
  N5       1.0000 0.22290  0.98180  0.12900  Biso   1.000  N
  N6       1.0000 0.22290  0.01820  0.62900  Biso   1.000  N
  N7       1.0000 0.72290  0.48180  0.12900  Biso   1.000  N
  N8       1.0000 0.72290  0.51820  0.62900  Biso   1.000  N
  N9       1.0000 0.26440  0.89580  0.12810  Biso   1.000  N
  N10      1.0000 0.26440  0.10420  0.62810  Biso   1.000  N
  N11      1.0000 0.76440  0.39580  0.12810  Biso   1.000  N
  N12      1.0000 0.76440  0.60420  0.62810  Biso   1.000  N
  N13      1.0000 0.39230  0.91270  0.14210  Biso   1.000  N
  N14      1.0000 0.39230  0.08730  0.64210  Biso   1.000  N
  N15      1.0000 0.89230  0.41270  0.14210  Biso   1.000  N
  N16      1.0000 0.89230  0.58730  0.64210  Biso   1.000  N
  C1       1.0000 0.41050  0.11420  0.14110  Biso   1.000  C
  C2       1.0000 0.41050  0.88580  0.64110  Biso   1.000  C
  C3       1.0000 0.91050  0.61420  0.14110  Biso   1.000  C
  C4       1.0000 0.91050  0.38580  0.64110  Biso   1.000  C
  H1       1.0000 0.50270  0.11310  0.15580  Biso   1.000  H
  H2       1.0000 0.50270  0.88690  0.65580  Biso   1.000  H
  H3       1.0000 0.00270  0.61310  0.15580  Biso   1.000  H
  H4       1.0000 0.00270  0.38690  0.65580  Biso   1.000  H
  C5       1.0000 0.34300  0.16270  0.12340  Biso   1.000  C
  C6       1.0000 0.34300  0.83730  0.62340  Biso   1.000  C
  C7       1.0000 0.84300  0.66270  0.12340  Biso   1.000  C
  C8       1.0000 0.84300  0.33730  0.62340  Biso   1.000  C
  H5       1.0000 0.39290  0.19350  0.13380  Biso   1.000  H
  H6       1.0000 0.39290  0.80650  0.63380  Biso   1.000  H
  H7       1.0000 0.89290  0.69350  0.13380  Biso   1.000  H
  H8       1.0000 0.89290  0.30650  0.63380  Biso   1.000  H
  C9       1.0000 0.20800  0.16470  0.09200  Biso   1.000  C
  C10      1.0000 0.20800  0.83530  0.59200  Biso   1.000  C
  C11      1.0000 0.70800  0.66470  0.09200  Biso   1.000  C
  C12      1.0000 0.70800  0.33530  0.59200  Biso   1.000  C
  H9       1.0000 0.16230  0.19690  0.07210  Biso   1.000  H
  H10      1.0000 0.16230  0.80310  0.57210  Biso   1.000  H
  H11      1.0000 0.66230  0.69690  0.07210  Biso   1.000  H
  H12      1.0000 0.66230  0.30310  0.57210  Biso   1.000  H
  C13      1.0000 0.13390  0.11960  0.08740  Biso   1.000  C
  C14      1.0000 0.13390  0.88040  0.58740  Biso   1.000  C
  C15      1.0000 0.63390  0.61960  0.08740  Biso   1.000  C
  C16      1.0000 0.63390  0.38040  0.58740  Biso   1.000  C
  C17      1.0000 0.20940  0.07300  0.11410  Biso   1.000  C
  C18      1.0000 0.20940  0.92700  0.61410  Biso   1.000  C
  C19      1.0000 0.70940  0.57300  0.11410  Biso   1.000  C
  C20      1.0000 0.70940  0.42700  0.61410  Biso   1.000  C
  C21      1.0000 0.99200  0.11620  0.06730  Biso   1.000  C
  C22      1.0000 0.99200  0.88380  0.56730  Biso   1.000  C
  C23      1.0000 0.49200  0.61620  0.06730  Biso   1.000  C
  C24      1.0000 0.49200  0.38380  0.56730  Biso   1.000  C
  H13      1.0000 0.94250  0.14690  0.05870  Biso   1.000  H
  H14      1.0000 0.94250  0.85310  0.55870  Biso   1.000  H
  H15      1.0000 0.44250  0.64690  0.05870  Biso   1.000  H
  H16      1.0000 0.44250  0.35310  0.55870  Biso   1.000  H
  C25      1.0000 0.92870  0.07010  0.06050  Biso   1.000  C
  C26      1.0000 0.92870  0.92990  0.56050  Biso   1.000  C
  C27      1.0000 0.42870  0.57010  0.06050  Biso   1.000  C
  C28      1.0000 0.42870  0.42990  0.56050  Biso   1.000  C
  H17      1.0000 0.83530  0.06960  0.04230  Biso   1.000  H
  H18      1.0000 0.83530  0.93040  0.54230  Biso   1.000  H
  H19      1.0000 0.33530  0.56960  0.04230  Biso   1.000  H
  H20      1.0000 0.33530  0.43040  0.54230  Biso   1.000  H
  C29      1.0000 0.00420  0.02140  0.08120  Biso   1.000  C
  C30      1.0000 0.00420  0.97860  0.58120  Biso   1.000  C
  C31      1.0000 0.50420  0.52140  0.08120  Biso   1.000  C
  C32      1.0000 0.50420  0.47860  0.58120  Biso   1.000  C
  C33      1.0000 0.14300  0.02430  0.11050  Biso   1.000  C
  C34      1.0000 0.14300  0.97570  0.61050  Biso   1.000  C
  C35      1.0000 0.64300  0.52430  0.11050  Biso   1.000  C
  C36      1.0000 0.64300  0.47570  0.61050  Biso   1.000  C
  C37      1.0000 0.94790  0.97040  0.07160  Biso   1.000  C
  C38      1.0000 0.94790  0.02960  0.57160  Biso   1.000  C
  C39      1.0000 0.44790  0.47040  0.07160  Biso   1.000  C
  C40      1.0000 0.44790  0.52960  0.57160  Biso   1.000  C
  H21      1.0000 0.85620  0.96630  0.05670  Biso   1.000  H
  H22      1.0000 0.85620  0.03370  0.55670  Biso   1.000  H
  H23      1.0000 0.35620  0.46630  0.05670  Biso   1.000  H
  H24      1.0000 0.35620  0.53370  0.55670  Biso   1.000  H
  C41      1.0000 0.02990  0.92670  0.08460  Biso   1.000  C
  C42      1.0000 0.02990  0.07330  0.58460  Biso   1.000  C
  C43      1.0000 0.52990  0.42670  0.08460  Biso   1.000  C
  C44      1.0000 0.52990  0.57330  0.58460  Biso   1.000  C
  H25      1.0000 0.99290  0.89310  0.07220  Biso   1.000  H
  H26      1.0000 0.99290  0.10690  0.57220  Biso   1.000  H
  H27      1.0000 0.49290  0.39310  0.07220  Biso   1.000  H
  H28      1.0000 0.49290  0.60690  0.57220  Biso   1.000  H
  C45      1.0000 0.16850  0.93510  0.11670  Biso   1.000  C
  C46      1.0000 0.16850  0.06490  0.61670  Biso   1.000  C
  C47      1.0000 0.66850  0.43510  0.11670  Biso   1.000  C
  C48      1.0000 0.66850  0.56490  0.61670  Biso   1.000  C
  C49      1.0000 0.46430  0.87090  0.15300  Biso   1.000  C
  C50      1.0000 0.46430  0.12910  0.65300  Biso   1.000  C
  C51      1.0000 0.96430  0.37090  0.15300  Biso   1.000  C
  C52      1.0000 0.96430  0.62910  0.65300  Biso   1.000  C
  H29      1.0000 0.55460  0.87050  0.16180  Biso   1.000  H
  H30      1.0000 0.55460  0.12950  0.66180  Biso   1.000  H
  H31      1.0000 0.05460  0.37050  0.16180  Biso   1.000  H
  H32      1.0000 0.05460  0.62950  0.66180  Biso   1.000  H
  C53      1.0000 0.38430  0.82470  0.15000  Biso   1.000  C
  C54      1.0000 0.38430  0.17530  0.65000  Biso   1.000  C
  C55      1.0000 0.88430  0.32470  0.15000  Biso   1.000  C
  C56      1.0000 0.88430  0.67530  0.65000  Biso   1.000  C
  C57      1.0000 0.26070  0.84350  0.12840  Biso   1.000  C
  C58      1.0000 0.26070  0.15650  0.62840  Biso   1.000  C
  C59      1.0000 0.76070  0.34350  0.12840  Biso   1.000  C
  C60      1.0000 0.76070  0.65650  0.62840  Biso   1.000  C
  H33      1.0000 0.18370  0.82340  0.11580  Biso   1.000  H
  H34      1.0000 0.18370  0.17660  0.61580  Biso   1.000  H
  H35      1.0000 0.68370  0.32340  0.11580  Biso   1.000  H
  H36      1.0000 0.68370  0.67660  0.61580  Biso   1.000  H
  C61      1.0000 0.43240  0.76850  0.15900  Biso   1.000  C
  C62      1.0000 0.43240  0.23150  0.65900  Biso   1.000  C
  C63      1.0000 0.93240  0.26850  0.15900  Biso   1.000  C
  C64      1.0000 0.93240  0.73150  0.65900  Biso   1.000  C
  H37      1.0000 0.41500  0.74920  0.25290  Biso   1.000  H
  H38      1.0000 0.41500  0.25080  0.75290  Biso   1.000  H
  H39      1.0000 0.91500  0.24920  0.25290  Biso   1.000  H
  H40      1.0000 0.91500  0.75080  0.75290  Biso   1.000  H
  H41      1.0000 0.53550  0.76760  0.20720  Biso   1.000  H
  H42      1.0000 0.53550  0.23240  0.70720  Biso   1.000  H
  H43      1.0000 0.03550  0.26760  0.20720  Biso   1.000  H
  H44      1.0000 0.03550  0.73240  0.70720  Biso   1.000  H
  H45      1.0000 0.37690  0.75330  0.02230  Biso   1.000  H
  H46      1.0000 0.37690  0.24670  0.52230  Biso   1.000  H
  H47      1.0000 0.87690  0.25330  0.02230  Biso   1.000  H
  H48      1.0000 0.87690  0.74670  0.52230  Biso   1.000  H
  Cl1      1.0000 0.77460  0.81427  0.99190  Biso   1.000  Cl
  Cl2      1.0000 0.77460  0.18573  0.49190  Biso   1.000  Cl
  Cl3      1.0000 0.27460  0.31427  0.99190  Biso   1.000  Cl
  Cl4      1.0000 0.27460  0.68573  0.49190  Biso   1.000  Cl
  O1       1.0000 0.91870  0.80470  0.08340  Biso   1.000  O
  O2       1.0000 0.91870  0.19530  0.58340  Biso   1.000  O
  O3       1.0000 0.41870  0.30470  0.08340  Biso   1.000  O
  O4       1.0000 0.41870  0.69530  0.58340  Biso   1.000  O
  O5       1.0000 0.72340  0.78680  0.09100  Biso   1.000  O
  O6       1.0000 0.72340  0.21320  0.59100  Biso   1.000  O
  O7       1.0000 0.22340  0.28680  0.09100  Biso   1.000  O
  O8       1.0000 0.22340  0.71320  0.59100  Biso   1.000  O
  O9       1.0000 0.70510  0.79940  0.79650  Biso   1.000  O
  O10      1.0000 0.70510  0.20060  0.29650  Biso   1.000  O
  O11      1.0000 0.20510  0.29940  0.79650  Biso   1.000  O
  O12      1.0000 0.20510  0.70060  0.29650  Biso   1.000  O
  O13      1.0000 0.74820  0.86410  0.00500  Biso   1.000  O
  O14      1.0000 0.74820  0.13590  0.50500  Biso   1.000  O
  O15      1.0000 0.24820  0.36410  0.00500  Biso   1.000  O
  O16      1.0000 0.24820  0.63590  0.50500  Biso   1.000  O
