data_image0
_cell_length_a       12.012
_cell_length_b       13.225
_cell_length_c       14.402
_cell_angle_alpha    99.751
_cell_angle_beta     110.223
_cell_angle_gamma    106.204

_symmetry_space_group_name_H-M    "P 1"
_symmetry_int_tables_number       1

loop_
  _symmetry_equiv_pos_as_xyz
  'x, y, z'

loop_
  _atom_site_label
  _atom_site_occupancy
  _atom_site_fract_x
  _atom_site_fract_y
  _atom_site_fract_z
  _atom_site_thermal_displace_type
  _atom_site_B_iso_or_equiv
  _atom_site_type_symbol
  C1       1.0000 0.93810  0.82080  0.52640  Biso   1.000  C
  C2       1.0000 0.06190  0.17920  0.47360  Biso   1.000  C
  H1       1.0000 0.86790  0.84350  0.50060  Biso   1.000  H
  H2       1.0000 0.13210  0.15650  0.49940  Biso   1.000  H
  C3       1.0000 0.05430  0.89950  0.59240  Biso   1.000  C
  C4       1.0000 0.94570  0.10050  0.40760  Biso   1.000  C
  H3       1.0000 0.06370  0.97480  0.61170  Biso   1.000  H
  H4       1.0000 0.93630  0.02520  0.38830  Biso   1.000  H
  C5       1.0000 0.15810  0.86850  0.63090  Biso   1.000  C
  C6       1.0000 0.84190  0.13150  0.36910  Biso   1.000  C
  C7       1.0000 0.13820  0.75780  0.60010  Biso   1.000  C
  C8       1.0000 0.86180  0.24220  0.39990  Biso   1.000  C
  H5       1.0000 0.20730  0.73340  0.62400  Biso   1.000  H
  H6       1.0000 0.79270  0.26660  0.37600  Biso   1.000  H
  C9       1.0000 0.01920  0.68370  0.53540  Biso   1.000  C
  C10      1.0000 0.98080  0.31630  0.46460  Biso   1.000  C
  H7       1.0000 0.00710  0.60770  0.51730  Biso   1.000  H
  H8       1.0000 0.99290  0.39230  0.48270  Biso   1.000  H
  C11      1.0000 0.28850  0.95280  0.69670  Biso   1.000  C
  C12      1.0000 0.71150  0.04720  0.30330  Biso   1.000  C
  H9       1.0000 0.34650  0.91530  0.72720  Biso   1.000  H
  H10      1.0000 0.65350  0.08470  0.27280  Biso   1.000  H
  H11      1.0000 0.28510  0.00290  0.75430  Biso   1.000  H
  H12      1.0000 0.71490  0.99710  0.24570  Biso   1.000  H
  C13      1.0000 0.34120  0.01970  0.63570  Biso   1.000  C
  C14      1.0000 0.65880  0.98030  0.36430  Biso   1.000  C
  H13      1.0000 0.28530  0.05980  0.60760  Biso   1.000  H
  H14      1.0000 0.71470  0.94020  0.39240  Biso   1.000  H
  H15      1.0000 0.42690  0.07490  0.68240  Biso   1.000  H
  H16      1.0000 0.57310  0.92510  0.31760  Biso   1.000  H
  C15      1.0000 0.27480  0.91800  0.44940  Biso   1.000  C
  C16      1.0000 0.72520  0.08200  0.55060  Biso   1.000  C
  C17      1.0000 0.41940  0.84350  0.48270  Biso   1.000  C
  C18      1.0000 0.58060  0.15650  0.51730  Biso   1.000  C
  C19      1.0000 0.49320  0.77970  0.46060  Biso   1.000  C
  C20      1.0000 0.50680  0.22030  0.53940  Biso   1.000  C
  C21      1.0000 0.58590  0.76600  0.53900  Biso   1.000  C
  C22      1.0000 0.41410  0.23400  0.46100  Biso   1.000  C
  H17      1.0000 0.60000  0.79460  0.60890  Biso   1.000  H
  H18      1.0000 0.40000  0.20540  0.39110  Biso   1.000  H
  C23      1.0000 0.65870  0.71050  0.51610  Biso   1.000  C
  C24      1.0000 0.34130  0.28950  0.48390  Biso   1.000  C
  H19      1.0000 0.72150  0.69970  0.57100  Biso   1.000  H
  H20      1.0000 0.27850  0.30030  0.42900  Biso   1.000  H
  C25      1.0000 0.55120  0.68380  0.34250  Biso   1.000  C
  C26      1.0000 0.44880  0.31620  0.65750  Biso   1.000  C
  H21      1.0000 0.53980  0.65590  0.27320  Biso   1.000  H
  H22      1.0000 0.46020  0.34410  0.72680  Biso   1.000  H
  C27      1.0000 0.47170  0.73460  0.35890  Biso   1.000  C
  C28      1.0000 0.52830  0.26540  0.64110  Biso   1.000  C
  H23      1.0000 0.40430  0.73890  0.30260  Biso   1.000  H
  H24      1.0000 0.59570  0.26110  0.69740  Biso   1.000  H
  C29      1.0000 0.94710  0.64540  0.29220  Biso   1.000  C
  C30      1.0000 0.05290  0.35460  0.70780  Biso   1.000  C
  H25      1.0000 0.95630  0.71960  0.31850  Biso   1.000  H
  H26      1.0000 0.04370  0.28040  0.68150  Biso   1.000  H
  C31      1.0000 0.01970  0.62490  0.24110  Biso   1.000  C
  C32      1.0000 0.98030  0.37510  0.75890  Biso   1.000  C
  H27      1.0000 0.07860  0.68360  0.23260  Biso   1.000  H
  H28      1.0000 0.92140  0.31640  0.76740  Biso   1.000  H
  C33      1.0000 0.00510  0.51690  0.20230  Biso   1.000  C
  C34      1.0000 0.99490  0.48310  0.79770  Biso   1.000  C
  C35      1.0000 0.92070  0.43340  0.21700  Biso   1.000  C
  C36      1.0000 0.07930  0.56660  0.78300  Biso   1.000  C
  H29      1.0000 0.90980  0.35860  0.19130  Biso   1.000  H
  H30      1.0000 0.09020  0.64140  0.80870  Biso   1.000  H
  C37      1.0000 0.85310  0.46110  0.26970  Biso   1.000  C
  C38      1.0000 0.14690  0.53890  0.73030  Biso   1.000  C
  H31      1.0000 0.79560  0.40360  0.28070  Biso   1.000  H
  H32      1.0000 0.20440  0.59640  0.71930  Biso   1.000  H
  C39      1.0000 0.07590  0.49120  0.14280  Biso   1.000  C
  C40      1.0000 0.92410  0.50880  0.85720  Biso   1.000  C
  C41      1.0000 0.21090  0.52540  0.07220  Biso   1.000  C
  C42      1.0000 0.78910  0.47460  0.92780  Biso   1.000  C
  C43      1.0000 0.15880  0.32680  0.98420  Biso   1.000  C
  C44      1.0000 0.84120  0.67320  0.01580  Biso   1.000  C
  H33      1.0000 0.20790  0.35650  0.94570  Biso   1.000  H
  H34      1.0000 0.79210  0.64350  0.05430  Biso   1.000  H
  H35      1.0000 0.07340  0.27490  0.93290  Biso   1.000  H
  H36      1.0000 0.92660  0.72510  0.06710  Biso   1.000  H
  C45      1.0000 0.22550  0.26530  0.04860  Biso   1.000  C
  C46      1.0000 0.77450  0.73470  0.95140  Biso   1.000  C
  H37      1.0000 0.17460  0.23340  0.08500  Biso   1.000  H
  H38      1.0000 0.82540  0.76660  0.91500  Biso   1.000  H
  H39      1.0000 0.23020  0.20370  0.00230  Biso   1.000  H
  H40      1.0000 0.76980  0.79630  0.99770  Biso   1.000  H
  C47      1.0000 0.35710  0.33670  0.12660  Biso   1.000  C
  C48      1.0000 0.64290  0.66330  0.87340  Biso   1.000  C
  C49      1.0000 0.38780  0.35930  0.23200  Biso   1.000  C
  C50      1.0000 0.61220  0.64070  0.76800  Biso   1.000  C
  H41      1.0000 0.32620  0.32630  0.25590  Biso   1.000  H
  H42      1.0000 0.67380  0.67370  0.74410  Biso   1.000  H
  C51      1.0000 0.50740  0.42940  0.30130  Biso   1.000  C
  C52      1.0000 0.49260  0.57060  0.69870  Biso   1.000  C
  H43      1.0000 0.52730  0.44240  0.37320  Biso   1.000  H
  H44      1.0000 0.47270  0.55760  0.62680  Biso   1.000  H
  C53      1.0000 0.56810  0.45820  0.17110  Biso   1.000  C
  C54      1.0000 0.43190  0.54180  0.82890  Biso   1.000  C
  H45      1.0000 0.63090  0.49290  0.14900  Biso   1.000  H
  H46      1.0000 0.36910  0.50710  0.85100  Biso   1.000  H
  C55      1.0000 0.45090  0.38710  0.09730  Biso   1.000  C
  C56      1.0000 0.54910  0.61290  0.90270  Biso   1.000  C
  H47      1.0000 0.43450  0.37260  0.02600  Biso   1.000  H
  H48      1.0000 0.56550  0.62740  0.97400  Biso   1.000  H
  Cu1      1.0000 0.75779  0.59940  0.38295  Biso   1.000  Cu
  Cu2      1.0000 0.24221  0.40060  0.61705  Biso   1.000  Cu
  N1       1.0000 0.91820  0.71330  0.49620  Biso   1.000  N
  N2       1.0000 0.08180  0.28670  0.50380  Biso   1.000  N
  N3       1.0000 0.35010  0.94950  0.55040  Biso   1.000  N
  N4       1.0000 0.64990  0.05050  0.44960  Biso   1.000  N
  N5       1.0000 0.44240  0.90280  0.57280  Biso   1.000  N
  N6       1.0000 0.55760  0.09720  0.42720  Biso   1.000  N
  N7       1.0000 0.64380  0.67120  0.41860  Biso   1.000  N
  N8       1.0000 0.35620  0.32880  0.58140  Biso   1.000  N
  N9       1.0000 0.86330  0.56490  0.30670  Biso   1.000  N
  N10      1.0000 0.13670  0.43510  0.69330  Biso   1.000  N
  N11      1.0000 0.05990  0.39440  0.09150  Biso   1.000  N
  N12      1.0000 0.94010  0.60560  0.90850  Biso   1.000  N
  N13      1.0000 0.14490  0.41700  0.04710  Biso   1.000  N
  N14      1.0000 0.85510  0.58300  0.95290  Biso   1.000  N
  N15      1.0000 0.59820  0.48090  0.27290  Biso   1.000  N
  N16      1.0000 0.40180  0.51910  0.72710  Biso   1.000  N
  N17      1.0000 0.75670  0.45130  0.53250  Biso   1.000  N
  N18      1.0000 0.24330  0.54870  0.46750  Biso   1.000  N
  O1       1.0000 0.32150  0.84979  0.40484  Biso   1.000  O
  O2       1.0000 0.67850  0.15021  0.59516  Biso   1.000  O
  O3       1.0000 0.16470  0.57440  0.13520  Biso   1.000  O
  O4       1.0000 0.83530  0.42560  0.86480  Biso   1.000  O
  O5       1.0000 0.78710  0.46700  0.45860  Biso   1.000  O
  O6       1.0000 0.21290  0.53300  0.54140  Biso   1.000  O
  O7       1.0000 0.76890  0.37300  0.56480  Biso   1.000  O
  O8       1.0000 0.23110  0.62700  0.43520  Biso   1.000  O
  O9       1.0000 0.70960  0.51040  0.56680  Biso   1.000  O
  O10      1.0000 0.29040  0.48960  0.43320  Biso   1.000  O
  S1       1.0000 0.15509  0.94974  0.38462  Biso   1.000  S
  S2       1.0000 0.84491  0.05026  0.61538  Biso   1.000  S
  S3       1.0000 0.32176  0.59376  0.04184  Biso   1.000  S
  S4       1.0000 0.67824  0.40624  0.95816  Biso   1.000  S
  C57      1.0000 0.40480  0.82840  0.94300  Biso   1.000  C
  C58      1.0000 0.59520  0.17160  0.05700  Biso   1.000  C
  C59      1.0000 0.50980  0.86110  0.04240  Biso   1.000  C
  C60      1.0000 0.49020  0.13890  0.95760  Biso   1.000  C
  H49      1.0000 0.55530  0.94100  0.06390  Biso   1.000  H
  H50      1.0000 0.44470  0.05900  0.93610  Biso   1.000  H
  H51      1.0000 0.56800  0.82330  0.03770  Biso   1.000  H
  H52      1.0000 0.43200  0.17670  0.96230  Biso   1.000  H
  H53      1.0000 0.47770  0.84140  0.09340  Biso   1.000  H
  H54      1.0000 0.52230  0.15860  0.90660  Biso   1.000  H
  N19      1.0000 0.32320  0.80350  0.86580  Biso   1.000  N
  N20      1.0000 0.67680  0.19650  0.13420  Biso   1.000  N
  C61      1.0000 0.27570  0.97670  0.19430  Biso   1.000  C
  C62      1.0000 0.72430  0.02330  0.80570  Biso   1.000  C
  H55      1.0000 0.31880  0.99320  0.27040  Biso   1.000  H
  H56      1.0000 0.68120  0.00680  0.72960  Biso   1.000  H
  H57      1.0000 0.19310  0.98690  0.17770  Biso   1.000  H
  H58      1.0000 0.80690  0.01310  0.82230  Biso   1.000  H
  Cl1      1.0000 0.24799  0.83986  0.13530  Biso   1.000  Cl
  Cl2      1.0000 0.75201  0.16014  0.86470  Biso   1.000  Cl
  Cl3      1.0000 0.36992  0.06891  0.15306  Biso   1.000  Cl
  Cl4      1.0000 0.63008  0.93109  0.84694  Biso   1.000  Cl
  C63      1.0000 0.93300  0.08600  0.14360  Biso   1.000  C
  C64      1.0000 0.06700  0.91400  0.85640  Biso   1.000  C
  H59      1.0000 0.86080  0.10590  0.10520  Biso   1.000  H
  H60      1.0000 0.13920  0.89410  0.89480  Biso   1.000  H
  H61      1.0000 0.90440  0.03450  0.18020  Biso   1.000  H
  H62      1.0000 0.09560  0.96550  0.81980  Biso   1.000  H
  Cl5      1.0000 0.05810  0.20490  0.23430  Biso   1.000  Cl
  Cl6      1.0000 0.94190  0.79510  0.76570  Biso   1.000  Cl
  Cl7      1.0000 0.98100  0.02050  0.05570  Biso   1.000  Cl
  Cl8      1.0000 0.01900  0.97950  0.94430  Biso   1.000  Cl
  N21      1.0000 0.75460  0.78750  0.21670  Biso   1.000  N
  N22      1.0000 0.24540  0.21250  0.78330  Biso   1.000  N
  O11      1.0000 0.79400  0.80940  0.31240  Biso   1.000  O
  O12      1.0000 0.20600  0.19060  0.68760  Biso   1.000  O
  O13      1.0000 0.67840  0.69440  0.16130  Biso   1.000  O
  O14      1.0000 0.32160  0.30560  0.83870  Biso   1.000  O
  O15      1.0000 0.79360  0.85800  0.17860  Biso   1.000  O
  O16      1.0000 0.20640  0.14200  0.82140  Biso   1.000  O
  C65      1.0000 0.88700  0.08500  0.12700  Biso   1.000  C
  C66      1.0000 0.11300  0.91500  0.87300  Biso   1.000  C
  H63      1.0000 0.85020  0.01160  0.13380  Biso   1.000  H
  H64      1.0000 0.14980  0.98840  0.86620  Biso   1.000  H
  H65      1.0000 0.87060  0.07860  0.05460  Biso   1.000  H
  H66      1.0000 0.12940  0.92140  0.94540  Biso   1.000  H
  H67      1.0000 0.84850  0.13390  0.15120  Biso   1.000  H
  H68      1.0000 0.15150  0.86610  0.84880  Biso   1.000  H
  C67      1.0000 0.02590  0.12990  0.19080  Biso   1.000  C
  C68      1.0000 0.97410  0.87010  0.80920  Biso   1.000  C
  N23      1.0000 0.12930  0.15980  0.24200  Biso   1.000  N
  N24      1.0000 0.87070  0.84020  0.75800  Biso   1.000  N
