data_image0
_cell_length_a       7.9048
_cell_length_b       9.8328
_cell_length_c       9.9409
_cell_angle_alpha    69.955
_cell_angle_beta     89.052
_cell_angle_gamma    82.159

_symmetry_space_group_name_H-M    "P 1"
_symmetry_int_tables_number       1

loop_
  _symmetry_equiv_pos_as_xyz
  'x, y, z'

loop_
  _atom_site_label
  _atom_site_occupancy
  _atom_site_fract_x
  _atom_site_fract_y
  _atom_site_fract_z
  _atom_site_thermal_displace_type
  _atom_site_B_iso_or_equiv
  _atom_site_type_symbol
  Cu1      1.0000 0.50000  0.00000  0.50000  Biso   1.000  Cu
  N1       1.0000 0.41840  0.20000  0.35390  Biso   1.000  N
  N2       1.0000 0.58160  0.80000  0.64610  Biso   1.000  N
  N3       1.0000 0.09950  0.87810  0.84000  Biso   1.000  N
  N4       1.0000 0.90050  0.12190  0.16000  Biso   1.000  N
  O1       1.0000 0.07780  0.15860  0.49310  Biso   1.000  O
  O2       1.0000 0.92220  0.84140  0.50690  Biso   1.000  O
  C1       1.0000 0.02990  0.01700  0.72910  Biso   1.000  C
  C2       1.0000 0.97010  0.98300  0.27090  Biso   1.000  C
  H1       1.0000 0.02200  0.09300  0.77800  Biso   1.000  H
  H2       1.0000 0.97800  0.90700  0.22200  Biso   1.000  H
  C3       1.0000 0.23350  0.61200  0.03940  Biso   1.000  C
  C4       1.0000 0.76650  0.38800  0.96060  Biso   1.000  C
  C5       1.0000 0.25220  0.74450  0.05720  Biso   1.000  C
  C6       1.0000 0.74780  0.25550  0.94280  Biso   1.000  C
  H3       1.0000 0.31020  0.74440  0.13780  Biso   1.000  H
  H4       1.0000 0.68980  0.25560  0.86220  Biso   1.000  H
  C7       1.0000 0.29990  0.47050  0.14860  Biso   1.000  C
  C8       1.0000 0.70010  0.52950  0.85140  Biso   1.000  C
  C9       1.0000 0.14370  0.06060  0.59820  Biso   1.000  C
  C10      1.0000 0.85630  0.93940  0.40180  Biso   1.000  C
  C11      1.0000 0.36180  0.31560  0.39090  Biso   1.000  C
  C12      1.0000 0.63820  0.68440  0.60910  Biso   1.000  C
  H5       1.0000 0.36140  0.30410  0.48770  Biso   1.000  H
  H6       1.0000 0.63860  0.69590  0.51230  Biso   1.000  H
  C13      1.0000 0.18550  0.87360  0.95650  Biso   1.000  C
  C14      1.0000 0.81450  0.12640  0.04350  Biso   1.000  C
  H7       1.0000 0.20020  0.96080  0.96910  Biso   1.000  H
  H8       1.0000 0.79980  0.03920  0.03090  Biso   1.000  H
  C15      1.0000 0.35960  0.34930  0.10970  Biso   1.000  C
  C16      1.0000 0.64040  0.65070  0.89030  Biso   1.000  C
  H9       1.0000 0.36000  0.35740  0.01370  Biso   1.000  H
  H10      1.0000 0.64000  0.64260  0.98630  Biso   1.000  H
  C17      1.0000 0.30370  0.45180  0.29260  Biso   1.000  C
  C18      1.0000 0.69630  0.54820  0.70740  Biso   1.000  C
  H11      1.0000 0.26750  0.53010  0.32320  Biso   1.000  H
  H12      1.0000 0.73250  0.46990  0.67680  Biso   1.000  H
  C19      1.0000 0.08080  0.75270  0.81860  Biso   1.000  C
  C20      1.0000 0.91920  0.24730  0.18140  Biso   1.000  C
  H13      1.0000 0.02190  0.75700  0.73670  Biso   1.000  H
  H14      1.0000 0.97810  0.24300  0.26330  Biso   1.000  H
  C21      1.0000 0.14680  0.61860  0.91510  Biso   1.000  C
  C22      1.0000 0.85320  0.38140  0.08490  Biso   1.000  C
  H15      1.0000 0.13390  0.53330  0.89800  Biso   1.000  H
  H16      1.0000 0.86610  0.46670  0.10200  Biso   1.000  H
  C23      1.0000 0.41800  0.21790  0.21410  Biso   1.000  C
  C24      1.0000 0.58200  0.78210  0.78590  Biso   1.000  C
  H17      1.0000 0.45870  0.13850  0.18650  Biso   1.000  H
  H18      1.0000 0.54130  0.86150  0.81350  Biso   1.000  H
  O3       1.0000 0.29010  0.98870  0.61440  Biso   1.000  O
  O4       1.0000 0.70990  0.01130  0.38560  Biso   1.000  O
  O5       1.0000 0.38590  0.88610  0.34540  Biso   1.000  O
  O6       1.0000 0.61410  0.11390  0.65460  Biso   1.000  O
  H19      1.0000 0.46050  0.86600  0.29000  Biso   1.000  H
  H20      1.0000 0.53950  0.13400  0.71000  Biso   1.000  H
  H21      1.0000 0.33800  0.81120  0.38780  Biso   1.000  H
  H22      1.0000 0.66200  0.18880  0.61220  Biso   1.000  H
  H23      1.0000 0.89800  0.99900  0.69400  Biso   1.000  H
  H24      1.0000 0.10200  0.00100  0.30600  Biso   1.000  H
  O7       1.0000 0.87440  0.69460  0.16910  Biso   1.000  O
  O8       1.0000 0.12560  0.30540  0.83090  Biso   1.000  O
  O9       1.0000 0.64580  0.83790  0.15440  Biso   1.000  O
  O10      1.0000 0.35420  0.16210  0.84560  Biso   1.000  O
  O11      1.0000 0.64800  0.61640  0.27380  Biso   1.000  O
  O12      1.0000 0.35200  0.38360  0.72620  Biso   1.000  O
  N5       1.0000 0.73000  0.71260  0.20280  Biso   1.000  N
  N6       1.0000 0.27000  0.28740  0.79720  Biso   1.000  N
  O13      1.0000 0.22190  0.65520  0.50160  Biso   1.000  O
  O14      1.0000 0.77810  0.34480  0.49840  Biso   1.000  O
  H25      1.0000 0.25000  0.59960  0.58690  Biso   1.000  H
  H26      1.0000 0.75000  0.40040  0.41310  Biso   1.000  H
  H27      1.0000 0.11590  0.68700  0.49630  Biso   1.000  H
  H28      1.0000 0.88410  0.31300  0.50370  Biso   1.000  H
