data_image0
_cell_length_a       8.7872
_cell_length_b       16.3287
_cell_length_c       15.0239
_cell_angle_alpha    90
_cell_angle_beta     91.013
_cell_angle_gamma    90

_symmetry_space_group_name_H-M    "P 1"
_symmetry_int_tables_number       1

loop_
  _symmetry_equiv_pos_as_xyz
  'x, y, z'

loop_
  _atom_site_label
  _atom_site_occupancy
  _atom_site_fract_x
  _atom_site_fract_y
  _atom_site_fract_z
  _atom_site_thermal_displace_type
  _atom_site_B_iso_or_equiv
  _atom_site_type_symbol
  Cu1      1.0000 0.61608  0.08094  0.98093  Biso   1.000  Cu
  Cu2      1.0000 0.38392  0.58094  0.51907  Biso   1.000  Cu
  Cu3      1.0000 0.38392  0.91906  0.01907  Biso   1.000  Cu
  Cu4      1.0000 0.61608  0.41906  0.48093  Biso   1.000  Cu
  O1       1.0000 0.54655  0.01848  0.08350  Biso   1.000  O
  O2       1.0000 0.45345  0.51848  0.41650  Biso   1.000  O
  O3       1.0000 0.45345  0.98152  0.91650  Biso   1.000  O
  O4       1.0000 0.54655  0.48152  0.58350  Biso   1.000  O
  O5       1.0000 0.79880  0.01257  0.97699  Biso   1.000  O
  O6       1.0000 0.20120  0.51257  0.52301  Biso   1.000  O
  O7       1.0000 0.20120  0.98743  0.02301  Biso   1.000  O
  O8       1.0000 0.79880  0.48743  0.47699  Biso   1.000  O
  H1       1.0000 0.83390  0.00300  0.03040  Biso   1.000  H
  H2       1.0000 0.16610  0.50300  0.46960  Biso   1.000  H
  H3       1.0000 0.16610  0.99700  0.96960  Biso   1.000  H
  H4       1.0000 0.83390  0.49700  0.53040  Biso   1.000  H
  H5       1.0000 0.86920  0.03710  0.94740  Biso   1.000  H
  H6       1.0000 0.13080  0.53710  0.55260  Biso   1.000  H
  H7       1.0000 0.13080  0.96290  0.05260  Biso   1.000  H
  H8       1.0000 0.86920  0.46290  0.44740  Biso   1.000  H
  O9       1.0000 0.44990  0.16074  0.99277  Biso   1.000  O
  O10      1.0000 0.55010  0.66074  0.50723  Biso   1.000  O
  O11      1.0000 0.55010  0.83926  0.00723  Biso   1.000  O
  O12      1.0000 0.44990  0.33926  0.49277  Biso   1.000  O
  H9       1.0000 0.39250  0.16080  0.94530  Biso   1.000  H
  H10      1.0000 0.60750  0.66080  0.55470  Biso   1.000  H
  H11      1.0000 0.60750  0.83920  0.05470  Biso   1.000  H
  H12      1.0000 0.39250  0.33920  0.44530  Biso   1.000  H
  H13      1.0000 0.48590  0.20970  0.00050  Biso   1.000  H
  H14      1.0000 0.51410  0.70970  0.49950  Biso   1.000  H
  H15      1.0000 0.51410  0.79030  0.99950  Biso   1.000  H
  H16      1.0000 0.48590  0.29030  0.50050  Biso   1.000  H
  O13      1.0000 0.68365  0.13861  0.87570  Biso   1.000  O
  O14      1.0000 0.31635  0.63861  0.62430  Biso   1.000  O
  O15      1.0000 0.31635  0.86139  0.12430  Biso   1.000  O
  O16      1.0000 0.68365  0.36139  0.37570  Biso   1.000  O
  N1       1.0000 0.54550  0.02941  0.32287  Biso   1.000  N
  N2       1.0000 0.45450  0.52941  0.17713  Biso   1.000  N
  N3       1.0000 0.45450  0.97059  0.67713  Biso   1.000  N
  N4       1.0000 0.54550  0.47059  0.82287  Biso   1.000  N
  N5       1.0000 0.78410  0.20546  0.72398  Biso   1.000  N
  N6       1.0000 0.21590  0.70546  0.77602  Biso   1.000  N
  N7       1.0000 0.21590  0.79454  0.27602  Biso   1.000  N
  N8       1.0000 0.78410  0.29454  0.22398  Biso   1.000  N
  O17      1.0000 0.64830  0.10923  0.17761  Biso   1.000  O
  O18      1.0000 0.35170  0.60923  0.32239  Biso   1.000  O
  O19      1.0000 0.35170  0.89077  0.82239  Biso   1.000  O
  O20      1.0000 0.64830  0.39077  0.67761  Biso   1.000  O
  C1       1.0000 0.57420  0.04799  0.16088  Biso   1.000  C
  C2       1.0000 0.42580  0.54799  0.33912  Biso   1.000  C
  C3       1.0000 0.42580  0.95201  0.83912  Biso   1.000  C
  C4       1.0000 0.57420  0.45201  0.66088  Biso   1.000  C
  C5       1.0000 0.58670  0.17685  0.61993  Biso   1.000  C
  C6       1.0000 0.41330  0.67685  0.88007  Biso   1.000  C
  C7       1.0000 0.41330  0.82315  0.38007  Biso   1.000  C
  C8       1.0000 0.58670  0.32315  0.11993  Biso   1.000  C
  H17      1.0000 0.48520  0.18180  0.60220  Biso   1.000  H
  H18      1.0000 0.51480  0.68180  0.89780  Biso   1.000  H
  H19      1.0000 0.51480  0.81820  0.39780  Biso   1.000  H
  H20      1.0000 0.48520  0.31820  0.10220  Biso   1.000  H
  C9       1.0000 0.63760  0.21144  0.69871  Biso   1.000  C
  C10      1.0000 0.36240  0.71144  0.80129  Biso   1.000  C
  C11      1.0000 0.36240  0.78856  0.30129  Biso   1.000  C
  C12      1.0000 0.63760  0.28856  0.19871  Biso   1.000  C
  H21      1.0000 0.56960  0.23920  0.73460  Biso   1.000  H
  H22      1.0000 0.43040  0.73920  0.76540  Biso   1.000  H
  H23      1.0000 0.43040  0.76080  0.26540  Biso   1.000  H
  H24      1.0000 0.56960  0.26080  0.23460  Biso   1.000  H
  C13      1.0000 0.68880  0.13449  0.56726  Biso   1.000  C
  C14      1.0000 0.31120  0.63449  0.93274  Biso   1.000  C
  C15      1.0000 0.31120  0.86551  0.43274  Biso   1.000  C
  C16      1.0000 0.68880  0.36551  0.06726  Biso   1.000  C
  C17      1.0000 0.88590  0.16570  0.67377  Biso   1.000  C
  C18      1.0000 0.11410  0.66570  0.82623  Biso   1.000  C
  C19      1.0000 0.11410  0.83430  0.32623  Biso   1.000  C
  C20      1.0000 0.88590  0.33430  0.17377  Biso   1.000  C
  H25      1.0000 0.98730  0.16300  0.69220  Biso   1.000  H
  H26      1.0000 0.01270  0.66300  0.80780  Biso   1.000  H
  H27      1.0000 0.01270  0.83700  0.30780  Biso   1.000  H
  H28      1.0000 0.98730  0.33700  0.19220  Biso   1.000  H
  C21      1.0000 0.83410  0.24322  0.80894  Biso   1.000  C
  C22      1.0000 0.16590  0.74322  0.69106  Biso   1.000  C
  C23      1.0000 0.16590  0.75678  0.19106  Biso   1.000  C
  C24      1.0000 0.83410  0.25678  0.30894  Biso   1.000  C
  H29      1.0000 0.79580  0.29890  0.81150  Biso   1.000  H
  H30      1.0000 0.20420  0.79890  0.68850  Biso   1.000  H
  H31      1.0000 0.20420  0.70110  0.18850  Biso   1.000  H
  H32      1.0000 0.79580  0.20110  0.31150  Biso   1.000  H
  H33      1.0000 0.94440  0.24570  0.81110  Biso   1.000  H
  H34      1.0000 0.05560  0.74570  0.68890  Biso   1.000  H
  H35      1.0000 0.05560  0.75430  0.18890  Biso   1.000  H
  H36      1.0000 0.94440  0.25430  0.31110  Biso   1.000  H
  C25      1.0000 0.84000  0.12903  0.59540  Biso   1.000  C
  C26      1.0000 0.16000  0.62903  0.90460  Biso   1.000  C
  C27      1.0000 0.16000  0.87097  0.40460  Biso   1.000  C
  C28      1.0000 0.84000  0.37097  0.09540  Biso   1.000  C
  H37      1.0000 0.91000  0.10070  0.56130  Biso   1.000  H
  H38      1.0000 0.09000  0.60070  0.93870  Biso   1.000  H
  H39      1.0000 0.09000  0.89930  0.43870  Biso   1.000  H
  H40      1.0000 0.91000  0.39930  0.06130  Biso   1.000  H
  O21      1.0000 0.82840  0.21778  0.96244  Biso   1.000  O
  O22      1.0000 0.17160  0.71778  0.53756  Biso   1.000  O
  O23      1.0000 0.17160  0.78222  0.03756  Biso   1.000  O
  O24      1.0000 0.82840  0.28222  0.46244  Biso   1.000  O
  C29      1.0000 0.65380  0.99192  0.37194  Biso   1.000  C
  C30      1.0000 0.34620  0.49192  0.12806  Biso   1.000  C
  C31      1.0000 0.34620  0.00808  0.62806  Biso   1.000  C
  C32      1.0000 0.65380  0.50808  0.87194  Biso   1.000  C
  H41      1.0000 0.69770  0.94380  0.35130  Biso   1.000  H
  H42      1.0000 0.30230  0.44380  0.14870  Biso   1.000  H
  H43      1.0000 0.30230  0.05620  0.64870  Biso   1.000  H
  H44      1.0000 0.69770  0.55620  0.85130  Biso   1.000  H
  C33      1.0000 0.77840  0.19565  0.89013  Biso   1.000  C
  C34      1.0000 0.22160  0.69565  0.60987  Biso   1.000  C
  C35      1.0000 0.22160  0.80435  0.10987  Biso   1.000  C
  C36      1.0000 0.77840  0.30435  0.39013  Biso   1.000  C
  C37      1.0000 0.63770  0.09691  0.48197  Biso   1.000  C
  C38      1.0000 0.36230  0.59691  0.01803  Biso   1.000  C
  C39      1.0000 0.36230  0.90309  0.51803  Biso   1.000  C
  C40      1.0000 0.63770  0.40309  0.98197  Biso   1.000  C
  C41      1.0000 0.70060  0.02403  0.45253  Biso   1.000  C
  C42      1.0000 0.29940  0.52403  0.04747  Biso   1.000  C
  C43      1.0000 0.29940  0.97597  0.54747  Biso   1.000  C
  C44      1.0000 0.70060  0.47597  0.95253  Biso   1.000  C
  H45      1.0000 0.77380  0.99710  0.48710  Biso   1.000  H
  H46      1.0000 0.22620  0.49710  0.01290  Biso   1.000  H
  H47      1.0000 0.22620  0.00290  0.51290  Biso   1.000  H
  H48      1.0000 0.77380  0.50290  0.98710  Biso   1.000  H
  C45      1.0000 0.52480  0.13432  0.43001  Biso   1.000  C
  C46      1.0000 0.47520  0.63432  0.06999  Biso   1.000  C
  C47      1.0000 0.47520  0.86568  0.56999  Biso   1.000  C
  C48      1.0000 0.52480  0.36568  0.93001  Biso   1.000  C
  H49      1.0000 0.47980  0.18270  0.44900  Biso   1.000  H
  H50      1.0000 0.52020  0.68270  0.05100  Biso   1.000  H
  H51      1.0000 0.52020  0.81730  0.55100  Biso   1.000  H
  H52      1.0000 0.47980  0.31730  0.94900  Biso   1.000  H
  C49      1.0000 0.50240  0.99723  0.23434  Biso   1.000  C
  C50      1.0000 0.49760  0.49723  0.26566  Biso   1.000  C
  C51      1.0000 0.49760  0.00277  0.76566  Biso   1.000  C
  C52      1.0000 0.50240  0.50277  0.73434  Biso   1.000  C
  H53      1.0000 0.39250  0.99830  0.22720  Biso   1.000  H
  H54      1.0000 0.60750  0.49830  0.27280  Biso   1.000  H
  H55      1.0000 0.60750  0.00170  0.77280  Biso   1.000  H
  H56      1.0000 0.39250  0.50170  0.72720  Biso   1.000  H
  H57      1.0000 0.53570  0.94080  0.22950  Biso   1.000  H
  H58      1.0000 0.46430  0.44080  0.27050  Biso   1.000  H
  H59      1.0000 0.46430  0.05920  0.77050  Biso   1.000  H
  H60      1.0000 0.53570  0.55920  0.72950  Biso   1.000  H
  C53      1.0000 0.48050  0.09934  0.35055  Biso   1.000  C
  C54      1.0000 0.51950  0.59934  0.14945  Biso   1.000  C
  C55      1.0000 0.51950  0.90066  0.64945  Biso   1.000  C
  C56      1.0000 0.48050  0.40066  0.85055  Biso   1.000  C
  H61      1.0000 0.40510  0.12410  0.31570  Biso   1.000  H
  H62      1.0000 0.59490  0.62410  0.18430  Biso   1.000  H
  H63      1.0000 0.59490  0.87590  0.68430  Biso   1.000  H
  H64      1.0000 0.40510  0.37590  0.81570  Biso   1.000  H
  Br1      1.0000 0.26649  0.20051  0.80351  Biso   1.000  Br
  Br2      1.0000 0.73351  0.70051  0.69649  Biso   1.000  Br
  Br3      1.0000 0.73351  0.79949  0.19649  Biso   1.000  Br
  Br4      1.0000 0.26649  0.29949  0.30351  Biso   1.000  Br
  N9       1.0000 0.04840  0.05372  0.32465  Biso   1.000  N
  N10      1.0000 0.95160  0.55372  0.17535  Biso   1.000  N
  N11      1.0000 0.95160  0.94628  0.67535  Biso   1.000  N
  N12      1.0000 0.04840  0.44628  0.82465  Biso   1.000  N
  O25      1.0000 0.93010  0.04250  0.28270  Biso   1.000  O
  O26      1.0000 0.06990  0.54250  0.21730  Biso   1.000  O
  O27      1.0000 0.06990  0.95750  0.71730  Biso   1.000  O
  O28      1.0000 0.93010  0.45750  0.78270  Biso   1.000  O
  O29      1.0000 0.04030  0.07970  0.40230  Biso   1.000  O
  O30      1.0000 0.95970  0.57970  0.09770  Biso   1.000  O
  O31      1.0000 0.95970  0.92030  0.59770  Biso   1.000  O
  O32      1.0000 0.04030  0.42030  0.90230  Biso   1.000  O
  O33      1.0000 0.16400  0.03530  0.29330  Biso   1.000  O
  O34      1.0000 0.83600  0.53530  0.20670  Biso   1.000  O
  O35      1.0000 0.83600  0.96470  0.70670  Biso   1.000  O
  O36      1.0000 0.16400  0.46470  0.79330  Biso   1.000  O
  O37      1.0000 0.94870  0.95178  0.12399  Biso   1.000  O
  O38      1.0000 0.05130  0.45178  0.37601  Biso   1.000  O
  O39      1.0000 0.05130  0.04822  0.87601  Biso   1.000  O
  O40      1.0000 0.94870  0.54822  0.62399  Biso   1.000  O
  H65      1.0000 0.95000  0.98650  0.16630  Biso   1.000  H
  H66      1.0000 0.05000  0.48650  0.33370  Biso   1.000  H
  H67      1.0000 0.05000  0.01350  0.83370  Biso   1.000  H
  H68      1.0000 0.95000  0.51350  0.66630  Biso   1.000  H
  H69      1.0000 0.90740  0.90770  0.14150  Biso   1.000  H
  H70      1.0000 0.09260  0.40770  0.35850  Biso   1.000  H
  H71      1.0000 0.09260  0.09230  0.85850  Biso   1.000  H
  H72      1.0000 0.90740  0.59230  0.64150  Biso   1.000  H
  O41      1.0000 0.27450  0.16258  0.13521  Biso   1.000  O
  O42      1.0000 0.72550  0.66258  0.36479  Biso   1.000  O
  O43      1.0000 0.72550  0.83742  0.86479  Biso   1.000  O
  O44      1.0000 0.27450  0.33742  0.63521  Biso   1.000  O
  H73      1.0000 0.26520  0.19750  0.17670  Biso   1.000  H
  H74      1.0000 0.73480  0.69750  0.32330  Biso   1.000  H
  H75      1.0000 0.73480  0.80250  0.82330  Biso   1.000  H
  H76      1.0000 0.26520  0.30250  0.67670  Biso   1.000  H
  H77      1.0000 0.18720  0.14490  0.11940  Biso   1.000  H
  H78      1.0000 0.81280  0.64490  0.38060  Biso   1.000  H
  H79      1.0000 0.81280  0.85510  0.88060  Biso   1.000  H
  H80      1.0000 0.18720  0.35510  0.61940  Biso   1.000  H
  O45      1.0000 0.20150  0.17154  0.53570  Biso   1.000  O
  O46      1.0000 0.79850  0.67154  0.96430  Biso   1.000  O
  O47      1.0000 0.79850  0.82846  0.46430  Biso   1.000  O
  O48      1.0000 0.20150  0.32846  0.03570  Biso   1.000  O
  H81      1.0000 0.17790  0.21760  0.55790  Biso   1.000  H
  H82      1.0000 0.82210  0.71760  0.94210  Biso   1.000  H
  H83      1.0000 0.82210  0.78240  0.44210  Biso   1.000  H
  H84      1.0000 0.17790  0.28240  0.05790  Biso   1.000  H
  H85      1.0000 0.16140  0.16720  0.48400  Biso   1.000  H
  H86      1.0000 0.83860  0.66720  0.01600  Biso   1.000  H
  H87      1.0000 0.83860  0.83280  0.51600  Biso   1.000  H
  H88      1.0000 0.16140  0.33280  0.98400  Biso   1.000  H
  O49      1.0000 0.96400  0.15311  0.11653  Biso   1.000  O
  O50      1.0000 0.03600  0.65311  0.38347  Biso   1.000  O
  O51      1.0000 0.03600  0.84689  0.88347  Biso   1.000  O
  O52      1.0000 0.96400  0.34689  0.61653  Biso   1.000  O
  H89      1.0000 0.89950  0.12880  0.14870  Biso   1.000  H
  H90      1.0000 0.10050  0.62880  0.35130  Biso   1.000  H
  H91      1.0000 0.10050  0.87120  0.85130  Biso   1.000  H
  H92      1.0000 0.89950  0.37120  0.64870  Biso   1.000  H
  H93      1.0000 0.91820  0.17600  0.07280  Biso   1.000  H
  H94      1.0000 0.08180  0.67600  0.42720  Biso   1.000  H
  H95      1.0000 0.08180  0.82400  0.92720  Biso   1.000  H
  H96      1.0000 0.91820  0.32400  0.57280  Biso   1.000  H
