data_image0
_cell_length_a       24.389
_cell_length_b       14.183
_cell_length_c       15.138
_cell_angle_alpha    90
_cell_angle_beta     120.47
_cell_angle_gamma    90

_symmetry_space_group_name_H-M    "P 1"
_symmetry_int_tables_number       1

loop_
  _symmetry_equiv_pos_as_xyz
  'x, y, z'

loop_
  _atom_site_label
  _atom_site_occupancy
  _atom_site_fract_x
  _atom_site_fract_y
  _atom_site_fract_z
  _atom_site_thermal_displace_type
  _atom_site_B_iso_or_equiv
  _atom_site_type_symbol
  Cu1      1.0000 0.69480  0.73900  0.49762  Biso   1.000  Cu
  Cu2      1.0000 0.30520  0.73900  0.00238  Biso   1.000  Cu
  Cu3      1.0000 0.19480  0.23900  0.49762  Biso   1.000  Cu
  Cu4      1.0000 0.80520  0.23900  0.00238  Biso   1.000  Cu
  Cu5      1.0000 0.30520  0.26100  0.50238  Biso   1.000  Cu
  Cu6      1.0000 0.69480  0.26100  0.99762  Biso   1.000  Cu
  Cu7      1.0000 0.80520  0.76100  0.50238  Biso   1.000  Cu
  Cu8      1.0000 0.19480  0.76100  0.99762  Biso   1.000  Cu
  Cl1      1.0000 0.80925  0.53477  0.80024  Biso   1.000  Cl
  Cl2      1.0000 0.19075  0.53477  0.69976  Biso   1.000  Cl
  Cl3      1.0000 0.30925  0.03477  0.80024  Biso   1.000  Cl
  Cl4      1.0000 0.69075  0.03477  0.69976  Biso   1.000  Cl
  Cl5      1.0000 0.19075  0.46523  0.19976  Biso   1.000  Cl
  Cl6      1.0000 0.80925  0.46523  0.30024  Biso   1.000  Cl
  Cl7      1.0000 0.69075  0.96523  0.19976  Biso   1.000  Cl
  Cl8      1.0000 0.30925  0.96523  0.30024  Biso   1.000  Cl
  Cl9      1.0000 0.85031  0.96409  0.20962  Biso   1.000  Cl
  Cl10     1.0000 0.14969  0.96409  0.29038  Biso   1.000  Cl
  Cl11     1.0000 0.35031  0.46409  0.20962  Biso   1.000  Cl
  Cl12     1.0000 0.64969  0.46409  0.29038  Biso   1.000  Cl
  Cl13     1.0000 0.14969  0.03591  0.79038  Biso   1.000  Cl
  Cl14     1.0000 0.85031  0.03591  0.70962  Biso   1.000  Cl
  Cl15     1.0000 0.64969  0.53591  0.79038  Biso   1.000  Cl
  Cl16     1.0000 0.35031  0.53591  0.70962  Biso   1.000  Cl
  O1       1.0000 0.74295  0.19600  0.12945  Biso   1.000  O
  O2       1.0000 0.25705  0.19600  0.37055  Biso   1.000  O
  O3       1.0000 0.24295  0.69600  0.12945  Biso   1.000  O
  O4       1.0000 0.75705  0.69600  0.37055  Biso   1.000  O
  O5       1.0000 0.25705  0.80400  0.87055  Biso   1.000  O
  O6       1.0000 0.74295  0.80400  0.62945  Biso   1.000  O
  O7       1.0000 0.75705  0.30400  0.87055  Biso   1.000  O
  O8       1.0000 0.24295  0.30400  0.62945  Biso   1.000  O
  O9       1.0000 0.82289  0.63881  0.57280  Biso   1.000  O
  O10      1.0000 0.17711  0.63881  0.92720  Biso   1.000  O
  O11      1.0000 0.32289  0.13881  0.57280  Biso   1.000  O
  O12      1.0000 0.67711  0.13881  0.92720  Biso   1.000  O
  O13      1.0000 0.17711  0.36119  0.42720  Biso   1.000  O
  O14      1.0000 0.82289  0.36119  0.07280  Biso   1.000  O
  O15      1.0000 0.67711  0.86119  0.42720  Biso   1.000  O
  O16      1.0000 0.32289  0.86119  0.07280  Biso   1.000  O
  O17      1.0000 0.72987  0.61903  0.56600  Biso   1.000  O
  O18      1.0000 0.27013  0.61903  0.93400  Biso   1.000  O
  O19      1.0000 0.22987  0.11903  0.56600  Biso   1.000  O
  O20      1.0000 0.77013  0.11903  0.93400  Biso   1.000  O
  O21      1.0000 0.27013  0.38097  0.43400  Biso   1.000  O
  O22      1.0000 0.72987  0.38097  0.06600  Biso   1.000  O
  O23      1.0000 0.77013  0.88097  0.43400  Biso   1.000  O
  O24      1.0000 0.22987  0.88097  0.06600  Biso   1.000  O
  O25      1.0000 0.83565  0.17618  0.13558  Biso   1.000  O
  O26      1.0000 0.16435  0.17618  0.36442  Biso   1.000  O
  O27      1.0000 0.33565  0.67618  0.13558  Biso   1.000  O
  O28      1.0000 0.66435  0.67618  0.36442  Biso   1.000  O
  O29      1.0000 0.16435  0.82382  0.86442  Biso   1.000  O
  O30      1.0000 0.83565  0.82382  0.63558  Biso   1.000  O
  O31      1.0000 0.66435  0.32382  0.86442  Biso   1.000  O
  O32      1.0000 0.33565  0.32382  0.63558  Biso   1.000  O
  O33      1.0000 0.60570  0.73620  0.49640  Biso   1.000  O
  O34      1.0000 0.39430  0.73620  0.00360  Biso   1.000  O
  O35      1.0000 0.10570  0.23620  0.49640  Biso   1.000  O
  O36      1.0000 0.89430  0.23620  0.00360  Biso   1.000  O
  O37      1.0000 0.39430  0.26380  0.50360  Biso   1.000  O
  O38      1.0000 0.60570  0.26380  0.99640  Biso   1.000  O
  O39      1.0000 0.89430  0.76380  0.50360  Biso   1.000  O
  O40      1.0000 0.10570  0.76380  0.99640  Biso   1.000  O
  C1       1.0000 0.79940  0.16890  0.17100  Biso   1.000  C
  C2       1.0000 0.20060  0.16890  0.32900  Biso   1.000  C
  C3       1.0000 0.29940  0.66890  0.17100  Biso   1.000  C
  C4       1.0000 0.70060  0.66890  0.32900  Biso   1.000  C
  C5       1.0000 0.20060  0.83110  0.82900  Biso   1.000  C
  C6       1.0000 0.79940  0.83110  0.67100  Biso   1.000  C
  C7       1.0000 0.70060  0.33110  0.82900  Biso   1.000  C
  C8       1.0000 0.29940  0.33110  0.67100  Biso   1.000  C
  N1       1.0000 0.84279  0.19820  0.52770  Biso   1.000  N
  N2       1.0000 0.15721  0.19820  0.97230  Biso   1.000  N
  N3       1.0000 0.34279  0.69820  0.52770  Biso   1.000  N
  N4       1.0000 0.65721  0.69820  0.97230  Biso   1.000  N
  N5       1.0000 0.15721  0.80180  0.47230  Biso   1.000  N
  N6       1.0000 0.84279  0.80180  0.02770  Biso   1.000  N
  N7       1.0000 0.65721  0.30180  0.47230  Biso   1.000  N
  N8       1.0000 0.34279  0.30180  0.02770  Biso   1.000  N
  C9       1.0000 0.78351  0.59250  0.58500  Biso   1.000  C
  C10      1.0000 0.21649  0.59250  0.91500  Biso   1.000  C
  C11      1.0000 0.28351  0.09250  0.58500  Biso   1.000  C
  C12      1.0000 0.71649  0.09250  0.91500  Biso   1.000  C
  C13      1.0000 0.21649  0.40750  0.41500  Biso   1.000  C
  C14      1.0000 0.78351  0.40750  0.08500  Biso   1.000  C
  C15      1.0000 0.71649  0.90750  0.41500  Biso   1.000  C
  C16      1.0000 0.28351  0.90750  0.08500  Biso   1.000  C
  N9       1.0000 0.82691  0.28220  0.50420  Biso   1.000  N
  N10      1.0000 0.17309  0.28220  0.99580  Biso   1.000  N
  N11      1.0000 0.32691  0.78220  0.50420  Biso   1.000  N
  N12      1.0000 0.67309  0.78220  0.99580  Biso   1.000  N
  N13      1.0000 0.17309  0.71780  0.49580  Biso   1.000  N
  N14      1.0000 0.82691  0.71780  0.00420  Biso   1.000  N
  N15      1.0000 0.67309  0.21780  0.49580  Biso   1.000  N
  N16      1.0000 0.32691  0.21780  0.00420  Biso   1.000  N
  C17      1.0000 0.82554  0.12740  0.27640  Biso   1.000  C
  C18      1.0000 0.17446  0.12740  0.22360  Biso   1.000  C
  C19      1.0000 0.32554  0.62740  0.27640  Biso   1.000  C
  C20      1.0000 0.67446  0.62740  0.22360  Biso   1.000  C
  C21      1.0000 0.17446  0.87260  0.72360  Biso   1.000  C
  C22      1.0000 0.82554  0.87260  0.77640  Biso   1.000  C
  C23      1.0000 0.67446  0.37260  0.72360  Biso   1.000  C
  C24      1.0000 0.32554  0.37260  0.77640  Biso   1.000  C
  C25      1.0000 0.81336  0.45830  0.71370  Biso   1.000  C
  C26      1.0000 0.18664  0.45830  0.78630  Biso   1.000  C
  C27      1.0000 0.31336  0.95830  0.71370  Biso   1.000  C
  C28      1.0000 0.68664  0.95830  0.78630  Biso   1.000  C
  C29      1.0000 0.18664  0.54170  0.28630  Biso   1.000  C
  C30      1.0000 0.81336  0.54170  0.21370  Biso   1.000  C
  C31      1.0000 0.68664  0.04170  0.28630  Biso   1.000  C
  C32      1.0000 0.31336  0.04170  0.21370  Biso   1.000  C
  C33      1.0000 0.84465  0.14620  0.44820  Biso   1.000  C
  C34      1.0000 0.15535  0.14620  0.05180  Biso   1.000  C
  C35      1.0000 0.34465  0.64620  0.44820  Biso   1.000  C
  C36      1.0000 0.65535  0.64620  0.05180  Biso   1.000  C
  C37      1.0000 0.15535  0.85380  0.55180  Biso   1.000  C
  C38      1.0000 0.84465  0.85380  0.94820  Biso   1.000  C
  C39      1.0000 0.65535  0.35380  0.55180  Biso   1.000  C
  C40      1.0000 0.34465  0.35380  0.94820  Biso   1.000  C
  C41      1.0000 0.80281  0.49260  0.62120  Biso   1.000  C
  C42      1.0000 0.19719  0.49260  0.87880  Biso   1.000  C
  C43      1.0000 0.30281  0.99260  0.62120  Biso   1.000  C
  C44      1.0000 0.69719  0.99260  0.87880  Biso   1.000  C
  C45      1.0000 0.19719  0.50740  0.37880  Biso   1.000  C
  C46      1.0000 0.80281  0.50740  0.12120  Biso   1.000  C
  C47      1.0000 0.69719  0.00740  0.37880  Biso   1.000  C
  C48      1.0000 0.30281  0.00740  0.12120  Biso   1.000  C
  C49      1.0000 0.84954  0.03600  0.30200  Biso   1.000  C
  C50      1.0000 0.15046  0.03600  0.19800  Biso   1.000  C
  C51      1.0000 0.34954  0.53600  0.30200  Biso   1.000  C
  C52      1.0000 0.65046  0.53600  0.19800  Biso   1.000  C
  C53      1.0000 0.15046  0.96400  0.69800  Biso   1.000  C
  C54      1.0000 0.84954  0.96400  0.80200  Biso   1.000  C
  C55      1.0000 0.65046  0.46400  0.69800  Biso   1.000  C
  C56      1.0000 0.34954  0.46400  0.80200  Biso   1.000  C
  C57      1.0000 0.82298  0.18180  0.35020  Biso   1.000  C
  C58      1.0000 0.17702  0.18180  0.14980  Biso   1.000  C
  C59      1.0000 0.32298  0.68180  0.35020  Biso   1.000  C
  C60      1.0000 0.67702  0.68180  0.14980  Biso   1.000  C
  C61      1.0000 0.17702  0.81820  0.64980  Biso   1.000  C
  C62      1.0000 0.82298  0.81820  0.85020  Biso   1.000  C
  C63      1.0000 0.67702  0.31820  0.64980  Biso   1.000  C
  C64      1.0000 0.32298  0.31820  0.85020  Biso   1.000  C
  H1       1.0000 0.80660  0.24260  0.33420  Biso   1.000  H
  H2       1.0000 0.19340  0.24260  0.16580  Biso   1.000  H
  H3       1.0000 0.30660  0.74260  0.33420  Biso   1.000  H
  H4       1.0000 0.69340  0.74260  0.16580  Biso   1.000  H
  H5       1.0000 0.19340  0.75740  0.66580  Biso   1.000  H
  H6       1.0000 0.80660  0.75740  0.83420  Biso   1.000  H
  H7       1.0000 0.69340  0.25740  0.66580  Biso   1.000  H
  H8       1.0000 0.30660  0.25740  0.83420  Biso   1.000  H
  C65      1.0000 0.86700  0.05410  0.47100  Biso   1.000  C
  C66      1.0000 0.13300  0.05410  0.02900  Biso   1.000  C
  C67      1.0000 0.36700  0.55410  0.47100  Biso   1.000  C
  C68      1.0000 0.63300  0.55410  0.02900  Biso   1.000  C
  C69      1.0000 0.13300  0.94590  0.52900  Biso   1.000  C
  C70      1.0000 0.86700  0.94590  0.97100  Biso   1.000  C
  C71      1.0000 0.63300  0.44590  0.52900  Biso   1.000  C
  C72      1.0000 0.36700  0.44590  0.97100  Biso   1.000  C
  H9       1.0000 0.88050  0.02960  0.53580  Biso   1.000  H
  H10      1.0000 0.11950  0.02960  0.96420  Biso   1.000  H
  H11      1.0000 0.38050  0.52960  0.53580  Biso   1.000  H
  H12      1.0000 0.61950  0.52960  0.96420  Biso   1.000  H
  H13      1.0000 0.11950  0.97040  0.46420  Biso   1.000  H
  H14      1.0000 0.88050  0.97040  0.03580  Biso   1.000  H
  H15      1.0000 0.61950  0.47040  0.46420  Biso   1.000  H
  H16      1.0000 0.38050  0.47040  0.03580  Biso   1.000  H
  C73      1.0000 0.82878  0.36410  0.74100  Biso   1.000  C
  C74      1.0000 0.17122  0.36410  0.75900  Biso   1.000  C
  C75      1.0000 0.32878  0.86410  0.74100  Biso   1.000  C
  C76      1.0000 0.67122  0.86410  0.75900  Biso   1.000  C
  C77      1.0000 0.17122  0.63590  0.25900  Biso   1.000  C
  C78      1.0000 0.82878  0.63590  0.24100  Biso   1.000  C
  C79      1.0000 0.67122  0.13590  0.25900  Biso   1.000  C
  C80      1.0000 0.32878  0.13590  0.24100  Biso   1.000  C
  H17      1.0000 0.83610  0.34250  0.80410  Biso   1.000  H
  H18      1.0000 0.16390  0.34250  0.69590  Biso   1.000  H
  H19      1.0000 0.33610  0.84250  0.80410  Biso   1.000  H
  H20      1.0000 0.66390  0.84250  0.69590  Biso   1.000  H
  H21      1.0000 0.16390  0.65750  0.19590  Biso   1.000  H
  H22      1.0000 0.83610  0.65750  0.30410  Biso   1.000  H
  H23      1.0000 0.66390  0.15750  0.19590  Biso   1.000  H
  H24      1.0000 0.33610  0.15750  0.30410  Biso   1.000  H
  C81      1.0000 0.82328  0.33690  0.58040  Biso   1.000  C
  C82      1.0000 0.17672  0.33690  0.91960  Biso   1.000  C
  C83      1.0000 0.32328  0.83690  0.58040  Biso   1.000  C
  C84      1.0000 0.67672  0.83690  0.91960  Biso   1.000  C
  C85      1.0000 0.17672  0.66310  0.41960  Biso   1.000  C
  C86      1.0000 0.82328  0.66310  0.08040  Biso   1.000  C
  C87      1.0000 0.67672  0.16310  0.41960  Biso   1.000  C
  C88      1.0000 0.32328  0.16310  0.08040  Biso   1.000  C
  C89      1.0000 0.83303  0.30310  0.67350  Biso   1.000  C
  C90      1.0000 0.16697  0.30310  0.82650  Biso   1.000  C
  C91      1.0000 0.33303  0.80310  0.67350  Biso   1.000  C
  C92      1.0000 0.66697  0.80310  0.82650  Biso   1.000  C
  C93      1.0000 0.16697  0.69690  0.32650  Biso   1.000  C
  C94      1.0000 0.83303  0.69690  0.17350  Biso   1.000  C
  C95      1.0000 0.66697  0.19690  0.32650  Biso   1.000  C
  C96      1.0000 0.33303  0.19690  0.17350  Biso   1.000  C
  H25      1.0000 0.84240  0.23980  0.69040  Biso   1.000  H
  H26      1.0000 0.15760  0.23980  0.80960  Biso   1.000  H
  H27      1.0000 0.34240  0.73980  0.69040  Biso   1.000  H
  H28      1.0000 0.65760  0.73980  0.80960  Biso   1.000  H
  H29      1.0000 0.15760  0.76020  0.30960  Biso   1.000  H
  H30      1.0000 0.84240  0.76020  0.19040  Biso   1.000  H
  H31      1.0000 0.65760  0.26020  0.30960  Biso   1.000  H
  H32      1.0000 0.34240  0.26020  0.19040  Biso   1.000  H
  C97      1.0000 0.80841  0.43110  0.55480  Biso   1.000  C
  C98      1.0000 0.19159  0.43110  0.94520  Biso   1.000  C
  C99      1.0000 0.30841  0.93110  0.55480  Biso   1.000  C
  C100     1.0000 0.69159  0.93110  0.94520  Biso   1.000  C
  C101     1.0000 0.19159  0.56890  0.44520  Biso   1.000  C
  C102     1.0000 0.80841  0.56890  0.05480  Biso   1.000  C
  C103     1.0000 0.69159  0.06890  0.44520  Biso   1.000  C
  C104     1.0000 0.30841  0.06890  0.05480  Biso   1.000  C
  H33      1.0000 0.80210  0.45330  0.49250  Biso   1.000  H
  H34      1.0000 0.19790  0.45330  0.00750  Biso   1.000  H
  H35      1.0000 0.30210  0.95330  0.49250  Biso   1.000  H
  H36      1.0000 0.69790  0.95330  0.00750  Biso   1.000  H
  H37      1.0000 0.19790  0.54670  0.50750  Biso   1.000  H
  H38      1.0000 0.80210  0.54670  0.99250  Biso   1.000  H
  H39      1.0000 0.69790  0.04670  0.50750  Biso   1.000  H
  H40      1.0000 0.30210  0.04670  0.99250  Biso   1.000  H
  C105     1.0000 0.86920  0.99880  0.39760  Biso   1.000  C
  C106     1.0000 0.13080  0.99880  0.10240  Biso   1.000  C
  C107     1.0000 0.36920  0.49880  0.39760  Biso   1.000  C
  C108     1.0000 0.63080  0.49880  0.10240  Biso   1.000  C
  C109     1.0000 0.13080  0.00120  0.60240  Biso   1.000  C
  C110     1.0000 0.86920  0.00120  0.89760  Biso   1.000  C
  C111     1.0000 0.63080  0.50120  0.60240  Biso   1.000  C
  C112     1.0000 0.36920  0.50120  0.89760  Biso   1.000  C
  H41      1.0000 0.88380  0.93700  0.41270  Biso   1.000  H
  H42      1.0000 0.11620  0.93700  0.08730  Biso   1.000  H
  H43      1.0000 0.38380  0.43700  0.41270  Biso   1.000  H
  H44      1.0000 0.61620  0.43700  0.08730  Biso   1.000  H
  H45      1.0000 0.11620  0.06300  0.58730  Biso   1.000  H
  H46      1.0000 0.88380  0.06300  0.91270  Biso   1.000  H
  H47      1.0000 0.61620  0.56300  0.58730  Biso   1.000  H
  H48      1.0000 0.38380  0.56300  0.91270  Biso   1.000  H
  C113     1.0000 0.56470  0.90700  0.46270  Biso   1.000  C
  C114     1.0000 0.43530  0.90700  0.03730  Biso   1.000  C
  C115     1.0000 0.06470  0.40700  0.46270  Biso   1.000  C
  C116     1.0000 0.93530  0.40700  0.03730  Biso   1.000  C
  C117     1.0000 0.43530  0.09300  0.53730  Biso   1.000  C
  C118     1.0000 0.56470  0.09300  0.96270  Biso   1.000  C
  C119     1.0000 0.93530  0.59300  0.53730  Biso   1.000  C
  C120     1.0000 0.06470  0.59300  0.96270  Biso   1.000  C
  H49      1.0000 0.56500  0.95060  0.41430  Biso   1.000  H
  H50      1.0000 0.43500  0.95060  0.08570  Biso   1.000  H
  H51      1.0000 0.06500  0.45060  0.41430  Biso   1.000  H
  H52      1.0000 0.93500  0.45060  0.08570  Biso   1.000  H
  H53      1.0000 0.43500  0.04940  0.58570  Biso   1.000  H
  H54      1.0000 0.56500  0.04940  0.91430  Biso   1.000  H
  H55      1.0000 0.93500  0.54940  0.58570  Biso   1.000  H
  H56      1.0000 0.06500  0.54940  0.91430  Biso   1.000  H
  H57      1.0000 0.60700  0.88350  0.50670  Biso   1.000  H
  H58      1.0000 0.39300  0.88350  0.99330  Biso   1.000  H
  H59      1.0000 0.10700  0.38350  0.50670  Biso   1.000  H
  H60      1.0000 0.89300  0.38350  0.99330  Biso   1.000  H
  H61      1.0000 0.39300  0.11650  0.49330  Biso   1.000  H
  H62      1.0000 0.60700  0.11650  0.00670  Biso   1.000  H
  H63      1.0000 0.89300  0.61650  0.49330  Biso   1.000  H
  H64      1.0000 0.10700  0.61650  0.00670  Biso   1.000  H
  H65      1.0000 0.55020  0.93850  0.50310  Biso   1.000  H
  H66      1.0000 0.44980  0.93850  0.99690  Biso   1.000  H
  H67      1.0000 0.05020  0.43850  0.50310  Biso   1.000  H
  H68      1.0000 0.94980  0.43850  0.99690  Biso   1.000  H
  H69      1.0000 0.44980  0.06150  0.49690  Biso   1.000  H
  H70      1.0000 0.55020  0.06150  0.00310  Biso   1.000  H
  H71      1.0000 0.94980  0.56150  0.49690  Biso   1.000  H
  H72      1.0000 0.05020  0.56150  0.00310  Biso   1.000  H
  C121     1.0000 0.45150  0.83730  0.33020  Biso   1.000  C
  C122     1.0000 0.54850  0.83730  0.16980  Biso   1.000  C
  C123     1.0000 0.95150  0.33730  0.33020  Biso   1.000  C
  C124     1.0000 0.04850  0.33730  0.16980  Biso   1.000  C
  C125     1.0000 0.54850  0.16270  0.66980  Biso   1.000  C
  C126     1.0000 0.45150  0.16270  0.83020  Biso   1.000  C
  C127     1.0000 0.04850  0.66270  0.66980  Biso   1.000  C
  C128     1.0000 0.95150  0.66270  0.83020  Biso   1.000  C
  H73      1.0000 0.42800  0.83460  0.36530  Biso   1.000  H
  H74      1.0000 0.57200  0.83460  0.13470  Biso   1.000  H
  H75      1.0000 0.92800  0.33460  0.36530  Biso   1.000  H
  H76      1.0000 0.07200  0.33460  0.13470  Biso   1.000  H
  H77      1.0000 0.57200  0.16540  0.63470  Biso   1.000  H
  H78      1.0000 0.42800  0.16540  0.86530  Biso   1.000  H
  H79      1.0000 0.07200  0.66540  0.63470  Biso   1.000  H
  H80      1.0000 0.92800  0.66540  0.86530  Biso   1.000  H
  H81      1.0000 0.43710  0.78820  0.27960  Biso   1.000  H
  H82      1.0000 0.56290  0.78820  0.22040  Biso   1.000  H
  H83      1.0000 0.93710  0.28820  0.27960  Biso   1.000  H
  H84      1.0000 0.06290  0.28820  0.22040  Biso   1.000  H
  H85      1.0000 0.56290  0.21180  0.72040  Biso   1.000  H
  H86      1.0000 0.43710  0.21180  0.77960  Biso   1.000  H
  H87      1.0000 0.06290  0.71180  0.72040  Biso   1.000  H
  H88      1.0000 0.93710  0.71180  0.77960  Biso   1.000  H
  H89      1.0000 0.44490  0.89750  0.29730  Biso   1.000  H
  H90      1.0000 0.55510  0.89750  0.20270  Biso   1.000  H
  H91      1.0000 0.94490  0.39750  0.29730  Biso   1.000  H
  H92      1.0000 0.05510  0.39750  0.20270  Biso   1.000  H
  H93      1.0000 0.55510  0.10250  0.70270  Biso   1.000  H
  H94      1.0000 0.44490  0.10250  0.79730  Biso   1.000  H
  H95      1.0000 0.05510  0.60250  0.70270  Biso   1.000  H
  H96      1.0000 0.94490  0.60250  0.79730  Biso   1.000  H
  C129     1.0000 0.55000  0.75360  0.43370  Biso   1.000  C
  C130     1.0000 0.45000  0.75360  0.06630  Biso   1.000  C
  C131     1.0000 0.05000  0.25360  0.43370  Biso   1.000  C
  C132     1.0000 0.95000  0.25360  0.06630  Biso   1.000  C
  C133     1.0000 0.45000  0.24640  0.56630  Biso   1.000  C
  C134     1.0000 0.55000  0.24640  0.93370  Biso   1.000  C
  C135     1.0000 0.95000  0.74640  0.56630  Biso   1.000  C
  C136     1.0000 0.05000  0.74640  0.93370  Biso   1.000  C
  C137     1.0000 0.50080  0.66080  0.37710  Biso   1.000  C
  C138     1.0000 0.49920  0.66080  0.12290  Biso   1.000  C
  C139     1.0000 0.00080  0.16080  0.37710  Biso   1.000  C
  C140     1.0000 0.99920  0.16080  0.12290  Biso   1.000  C
  C141     1.0000 0.49920  0.33920  0.62290  Biso   1.000  C
  C142     1.0000 0.50080  0.33920  0.87710  Biso   1.000  C
  C143     1.0000 0.99920  0.83920  0.62290  Biso   1.000  C
  C144     1.0000 0.00080  0.83920  0.87710  Biso   1.000  C
  H97      1.0000 0.49620  0.63550  0.43180  Biso   1.000  H
  H98      1.0000 0.50380  0.63550  0.06820  Biso   1.000  H
  H99      1.0000 0.99620  0.13550  0.43180  Biso   1.000  H
  H100     1.0000 0.00380  0.13550  0.06820  Biso   1.000  H
  H101     1.0000 0.50380  0.36450  0.56820  Biso   1.000  H
  H102     1.0000 0.49620  0.36450  0.93180  Biso   1.000  H
  H103     1.0000 0.00380  0.86450  0.56820  Biso   1.000  H
  H104     1.0000 0.99620  0.86450  0.93180  Biso   1.000  H
  H105     1.0000 0.53930  0.63720  0.38240  Biso   1.000  H
  H106     1.0000 0.46070  0.63720  0.11760  Biso   1.000  H
  H107     1.0000 0.03930  0.13720  0.38240  Biso   1.000  H
  H108     1.0000 0.96070  0.13720  0.11760  Biso   1.000  H
  H109     1.0000 0.46070  0.36280  0.61760  Biso   1.000  H
  H110     1.0000 0.53930  0.36280  0.88240  Biso   1.000  H
  H111     1.0000 0.96070  0.86280  0.61760  Biso   1.000  H
  H112     1.0000 0.03930  0.86280  0.88240  Biso   1.000  H
  H113     1.0000 0.46510  0.64220  0.31250  Biso   1.000  H
  H114     1.0000 0.53490  0.64220  0.18750  Biso   1.000  H
  H115     1.0000 0.96510  0.14220  0.31250  Biso   1.000  H
  H116     1.0000 0.03490  0.14220  0.18750  Biso   1.000  H
  H117     1.0000 0.53490  0.35780  0.68750  Biso   1.000  H
  H118     1.0000 0.46510  0.35780  0.81250  Biso   1.000  H
  H119     1.0000 0.03490  0.85780  0.68750  Biso   1.000  H
  H120     1.0000 0.96510  0.85780  0.81250  Biso   1.000  H
  N17      1.0000 0.52000  0.82440  0.40470  Biso   1.000  N
  N18      1.0000 0.48000  0.82440  0.09530  Biso   1.000  N
  N19      1.0000 0.02000  0.32440  0.40470  Biso   1.000  N
  N20      1.0000 0.98000  0.32440  0.09530  Biso   1.000  N
  N21      1.0000 0.48000  0.17560  0.59530  Biso   1.000  N
  N22      1.0000 0.52000  0.17560  0.90470  Biso   1.000  N
  N23      1.0000 0.98000  0.67560  0.59530  Biso   1.000  N
  N24      1.0000 0.02000  0.67560  0.90470  Biso   1.000  N
  H121     1.0000 0.54040  0.92470  0.49390  Biso   1.000  H
  H122     1.0000 0.45960  0.92470  0.00610  Biso   1.000  H
  H123     1.0000 0.04040  0.42470  0.49390  Biso   1.000  H
  H124     1.0000 0.95960  0.42470  0.00610  Biso   1.000  H
  H125     1.0000 0.45960  0.07530  0.50610  Biso   1.000  H
  H126     1.0000 0.54040  0.07530  0.99390  Biso   1.000  H
  H127     1.0000 0.95960  0.57530  0.50610  Biso   1.000  H
  H128     1.0000 0.04040  0.57530  0.99390  Biso   1.000  H
  H129     1.0000 0.54610  0.93480  0.39570  Biso   1.000  H
  H130     1.0000 0.45390  0.93480  0.10430  Biso   1.000  H
  H131     1.0000 0.04610  0.43480  0.39570  Biso   1.000  H
  H132     1.0000 0.95390  0.43480  0.10430  Biso   1.000  H
  H133     1.0000 0.45390  0.06520  0.60430  Biso   1.000  H
  H134     1.0000 0.54610  0.06520  0.89570  Biso   1.000  H
  H135     1.0000 0.95390  0.56520  0.60430  Biso   1.000  H
  H136     1.0000 0.04610  0.56520  0.89570  Biso   1.000  H
  H137     1.0000 0.60770  0.92900  0.50420  Biso   1.000  H
  H138     1.0000 0.39230  0.92900  0.99580  Biso   1.000  H
  H139     1.0000 0.10770  0.42900  0.50420  Biso   1.000  H
  H140     1.0000 0.89230  0.42900  0.99580  Biso   1.000  H
  H141     1.0000 0.39230  0.07100  0.49580  Biso   1.000  H
  H142     1.0000 0.60770  0.07100  0.00420  Biso   1.000  H
  H143     1.0000 0.89230  0.57100  0.49580  Biso   1.000  H
  H144     1.0000 0.10770  0.57100  0.00420  Biso   1.000  H
  H145     1.0000 0.41030  0.80920  0.28940  Biso   1.000  H
  H146     1.0000 0.58970  0.80920  0.21060  Biso   1.000  H
  H147     1.0000 0.91030  0.30920  0.28940  Biso   1.000  H
  H148     1.0000 0.08970  0.30920  0.21060  Biso   1.000  H
  H149     1.0000 0.58970  0.19080  0.71060  Biso   1.000  H
  H150     1.0000 0.41030  0.19080  0.78940  Biso   1.000  H
  H151     1.0000 0.08970  0.69080  0.71060  Biso   1.000  H
  H152     1.0000 0.91030  0.69080  0.78940  Biso   1.000  H
  H153     1.0000 0.46130  0.87480  0.28720  Biso   1.000  H
  H154     1.0000 0.53870  0.87480  0.21280  Biso   1.000  H
  H155     1.0000 0.96130  0.37480  0.28720  Biso   1.000  H
  H156     1.0000 0.03870  0.37480  0.21280  Biso   1.000  H
  H157     1.0000 0.53870  0.12520  0.71280  Biso   1.000  H
  H158     1.0000 0.46130  0.12520  0.78720  Biso   1.000  H
  H159     1.0000 0.03870  0.62520  0.71280  Biso   1.000  H
  H160     1.0000 0.96130  0.62520  0.78720  Biso   1.000  H
  H161     1.0000 0.45150  0.87660  0.38180  Biso   1.000  H
  H162     1.0000 0.54850  0.87660  0.11820  Biso   1.000  H
  H163     1.0000 0.95150  0.37660  0.38180  Biso   1.000  H
  H164     1.0000 0.04850  0.37660  0.11820  Biso   1.000  H
  H165     1.0000 0.54850  0.12340  0.61820  Biso   1.000  H
  H166     1.0000 0.45150  0.12340  0.88180  Biso   1.000  H
  H167     1.0000 0.04850  0.62340  0.61820  Biso   1.000  H
  H168     1.0000 0.95150  0.62340  0.88180  Biso   1.000  H
  C145     1.0000 0.56470  0.79600  0.45300  Biso   1.000  C
  C146     1.0000 0.43530  0.79600  0.04700  Biso   1.000  C
  C147     1.0000 0.06470  0.29600  0.45300  Biso   1.000  C
  C148     1.0000 0.93530  0.29600  0.04700  Biso   1.000  C
  C149     1.0000 0.43530  0.20400  0.54700  Biso   1.000  C
  C150     1.0000 0.56470  0.20400  0.95300  Biso   1.000  C
  C151     1.0000 0.93530  0.70400  0.54700  Biso   1.000  C
  C152     1.0000 0.06470  0.70400  0.95300  Biso   1.000  C
  N25      1.0000 0.50350  0.75700  0.38400  Biso   1.000  N
  N26      1.0000 0.49650  0.75700  0.11600  Biso   1.000  N
  N27      1.0000 0.00350  0.25700  0.38400  Biso   1.000  N
  N28      1.0000 0.99650  0.25700  0.11600  Biso   1.000  N
  N29      1.0000 0.49650  0.24300  0.61600  Biso   1.000  N
  N30      1.0000 0.50350  0.24300  0.88400  Biso   1.000  N
  N31      1.0000 0.99650  0.74300  0.61600  Biso   1.000  N
  N32      1.0000 0.00350  0.74300  0.88400  Biso   1.000  N
  O41      1.0000 0.98740  0.43140  0.75750  Biso   1.000  O
  O42      1.0000 0.01260  0.43140  0.74250  Biso   1.000  O
  O43      1.0000 0.48740  0.93140  0.75750  Biso   1.000  O
  O44      1.0000 0.51260  0.93140  0.74250  Biso   1.000  O
  O45      1.0000 0.01260  0.56860  0.24250  Biso   1.000  O
  O46      1.0000 0.98740  0.56860  0.25750  Biso   1.000  O
  O47      1.0000 0.51260  0.06860  0.24250  Biso   1.000  O
  O48      1.0000 0.48740  0.06860  0.25750  Biso   1.000  O
  C153     1.0000 0.99780  0.34770  0.77440  Biso   1.000  C
  C154     1.0000 0.00220  0.34770  0.72560  Biso   1.000  C
  C155     1.0000 0.49780  0.84770  0.77440  Biso   1.000  C
  C156     1.0000 0.50220  0.84770  0.72560  Biso   1.000  C
  C157     1.0000 0.00220  0.65230  0.22560  Biso   1.000  C
  C158     1.0000 0.99780  0.65230  0.27440  Biso   1.000  C
  C159     1.0000 0.50220  0.15230  0.22560  Biso   1.000  C
  C160     1.0000 0.49780  0.15230  0.27440  Biso   1.000  C
  C161     1.0000 0.00630  0.34120  0.87810  Biso   1.000  C
  C162     1.0000 0.99370  0.34120  0.62190  Biso   1.000  C
  C163     1.0000 0.50630  0.84120  0.87810  Biso   1.000  C
  C164     1.0000 0.49370  0.84120  0.62190  Biso   1.000  C
  C165     1.0000 0.99370  0.65880  0.12190  Biso   1.000  C
  C166     1.0000 0.00630  0.65880  0.37810  Biso   1.000  C
  C167     1.0000 0.49370  0.15880  0.12190  Biso   1.000  C
  C168     1.0000 0.50630  0.15880  0.37810  Biso   1.000  C
  H169     1.0000 0.04990  0.32700  0.92690  Biso   1.000  H
  H170     1.0000 0.95010  0.32700  0.57310  Biso   1.000  H
  H171     1.0000 0.54990  0.82700  0.92690  Biso   1.000  H
  H172     1.0000 0.45010  0.82700  0.57310  Biso   1.000  H
  H173     1.0000 0.95010  0.67300  0.07310  Biso   1.000  H
  H174     1.0000 0.04990  0.67300  0.42690  Biso   1.000  H
  H175     1.0000 0.45010  0.17300  0.07310  Biso   1.000  H
  H176     1.0000 0.54990  0.17300  0.42690  Biso   1.000  H
  H177     1.0000 0.97950  0.29220  0.87930  Biso   1.000  H
  H178     1.0000 0.02050  0.29220  0.62070  Biso   1.000  H
  H179     1.0000 0.47950  0.79220  0.87930  Biso   1.000  H
  H180     1.0000 0.52050  0.79220  0.62070  Biso   1.000  H
  H181     1.0000 0.02050  0.70780  0.12070  Biso   1.000  H
  H182     1.0000 0.97950  0.70780  0.37930  Biso   1.000  H
  H183     1.0000 0.52050  0.20780  0.12070  Biso   1.000  H
  H184     1.0000 0.47950  0.20780  0.37930  Biso   1.000  H
  H185     1.0000 0.99500  0.40030  0.89560  Biso   1.000  H
  H186     1.0000 0.00500  0.40030  0.60440  Biso   1.000  H
  H187     1.0000 0.49500  0.90030  0.89560  Biso   1.000  H
  H188     1.0000 0.50500  0.90030  0.60440  Biso   1.000  H
  H189     1.0000 0.00500  0.59970  0.10440  Biso   1.000  H
  H190     1.0000 0.99500  0.59970  0.39560  Biso   1.000  H
  H191     1.0000 0.50500  0.09970  0.10440  Biso   1.000  H
  H192     1.0000 0.49500  0.09970  0.39560  Biso   1.000  H
  N33      1.0000 0.99890  0.27980  0.71610  Biso   1.000  N
  N34      1.0000 0.00110  0.27980  0.78390  Biso   1.000  N
  N35      1.0000 0.49890  0.77980  0.71610  Biso   1.000  N
  N36      1.0000 0.50110  0.77980  0.78390  Biso   1.000  N
  N37      1.0000 0.00110  0.72020  0.28390  Biso   1.000  N
  N38      1.0000 0.99890  0.72020  0.21610  Biso   1.000  N
  N39      1.0000 0.50110  0.22020  0.28390  Biso   1.000  N
  N40      1.0000 0.49890  0.22020  0.21610  Biso   1.000  N
  C169     1.0000 0.00110  0.27940  0.62250  Biso   1.000  C
  C170     1.0000 0.99890  0.27940  0.87750  Biso   1.000  C
  C171     1.0000 0.50110  0.77940  0.62250  Biso   1.000  C
  C172     1.0000 0.49890  0.77940  0.87750  Biso   1.000  C
  C173     1.0000 0.99890  0.72060  0.37750  Biso   1.000  C
  C174     1.0000 0.00110  0.72060  0.12250  Biso   1.000  C
  C175     1.0000 0.49890  0.22060  0.37750  Biso   1.000  C
  C176     1.0000 0.50110  0.22060  0.12250  Biso   1.000  C
  H193     1.0000 0.02150  0.22270  0.61910  Biso   1.000  H
  H194     1.0000 0.97850  0.22270  0.88090  Biso   1.000  H
  H195     1.0000 0.52150  0.72270  0.61910  Biso   1.000  H
  H196     1.0000 0.47850  0.72270  0.88090  Biso   1.000  H
  H197     1.0000 0.97850  0.77730  0.38090  Biso   1.000  H
  H198     1.0000 0.02150  0.77730  0.11910  Biso   1.000  H
  H199     1.0000 0.47850  0.27730  0.38090  Biso   1.000  H
  H200     1.0000 0.52150  0.27730  0.11910  Biso   1.000  H
  H201     1.0000 0.02480  0.33310  0.62150  Biso   1.000  H
  H202     1.0000 0.97520  0.33310  0.87850  Biso   1.000  H
  H203     1.0000 0.52480  0.83310  0.62150  Biso   1.000  H
  H204     1.0000 0.47520  0.83310  0.87850  Biso   1.000  H
  H205     1.0000 0.97520  0.66690  0.37850  Biso   1.000  H
  H206     1.0000 0.02480  0.66690  0.12150  Biso   1.000  H
  H207     1.0000 0.47520  0.16690  0.37850  Biso   1.000  H
  H208     1.0000 0.52480  0.16690  0.12150  Biso   1.000  H
  H209     1.0000 0.95860  0.28210  0.56470  Biso   1.000  H
  H210     1.0000 0.04140  0.28210  0.93530  Biso   1.000  H
  H211     1.0000 0.45860  0.78210  0.56470  Biso   1.000  H
  H212     1.0000 0.54140  0.78210  0.93530  Biso   1.000  H
  H213     1.0000 0.04140  0.71790  0.43530  Biso   1.000  H
  H214     1.0000 0.95860  0.71790  0.06470  Biso   1.000  H
  H215     1.0000 0.54140  0.21790  0.43530  Biso   1.000  H
  H216     1.0000 0.45860  0.21790  0.06470  Biso   1.000  H
  C177     1.0000 0.00190  0.17790  0.72700  Biso   1.000  C
  C178     1.0000 0.99810  0.17790  0.77300  Biso   1.000  C
  C179     1.0000 0.50190  0.67790  0.72700  Biso   1.000  C
  C180     1.0000 0.49810  0.67790  0.77300  Biso   1.000  C
  C181     1.0000 0.99810  0.82210  0.27300  Biso   1.000  C
  C182     1.0000 0.00190  0.82210  0.22700  Biso   1.000  C
  C183     1.0000 0.49810  0.32210  0.27300  Biso   1.000  C
  C184     1.0000 0.50190  0.32210  0.22700  Biso   1.000  C
  H217     1.0000 0.96270  0.15500  0.71910  Biso   1.000  H
  H218     1.0000 0.03730  0.15500  0.78090  Biso   1.000  H
  H219     1.0000 0.46270  0.65500  0.71910  Biso   1.000  H
  H220     1.0000 0.53730  0.65500  0.78090  Biso   1.000  H
  H221     1.0000 0.03730  0.84500  0.28090  Biso   1.000  H
  H222     1.0000 0.96270  0.84500  0.21910  Biso   1.000  H
  H223     1.0000 0.53730  0.34500  0.28090  Biso   1.000  H
  H224     1.0000 0.46270  0.34500  0.21910  Biso   1.000  H
  H225     1.0000 0.03650  0.16110  0.79360  Biso   1.000  H
  H226     1.0000 0.96350  0.16110  0.70640  Biso   1.000  H
  H227     1.0000 0.53650  0.66110  0.79360  Biso   1.000  H
  H228     1.0000 0.46350  0.66110  0.70640  Biso   1.000  H
  H229     1.0000 0.96350  0.83890  0.20640  Biso   1.000  H
  H230     1.0000 0.03650  0.83890  0.29360  Biso   1.000  H
  H231     1.0000 0.46350  0.33890  0.20640  Biso   1.000  H
  H232     1.0000 0.53650  0.33890  0.29360  Biso   1.000  H
  H233     1.0000 0.00870  0.15040  0.67530  Biso   1.000  H
  H234     1.0000 0.99130  0.15040  0.82470  Biso   1.000  H
  H235     1.0000 0.50870  0.65040  0.67530  Biso   1.000  H
  H236     1.0000 0.49130  0.65040  0.82470  Biso   1.000  H
  H237     1.0000 0.99130  0.84960  0.32470  Biso   1.000  H
  H238     1.0000 0.00870  0.84960  0.17530  Biso   1.000  H
  H239     1.0000 0.49130  0.34960  0.32470  Biso   1.000  H
  H240     1.0000 0.50870  0.34960  0.17530  Biso   1.000  H
