data_image0
_cell_length_a       20.9416
_cell_length_b       8.8612
_cell_length_c       14.1973
_cell_angle_alpha    90
_cell_angle_beta     98.715
_cell_angle_gamma    90

_symmetry_space_group_name_H-M    "P 1"
_symmetry_int_tables_number       1

loop_
  _symmetry_equiv_pos_as_xyz
  'x, y, z'

loop_
  _atom_site_label
  _atom_site_occupancy
  _atom_site_fract_x
  _atom_site_fract_y
  _atom_site_fract_z
  _atom_site_thermal_displace_type
  _atom_site_B_iso_or_equiv
  _atom_site_type_symbol
  Cu1      1.0000 0.63817  0.07322  0.60486  Biso   1.000  Cu
  Cu2      1.0000 0.36183  0.07322  0.89514  Biso   1.000  Cu
  Cu3      1.0000 0.13817  0.57322  0.60486  Biso   1.000  Cu
  Cu4      1.0000 0.86183  0.57322  0.89514  Biso   1.000  Cu
  Cu5      1.0000 0.36183  0.92678  0.39514  Biso   1.000  Cu
  Cu6      1.0000 0.63817  0.92678  0.10486  Biso   1.000  Cu
  Cu7      1.0000 0.86183  0.42678  0.39514  Biso   1.000  Cu
  Cu8      1.0000 0.13817  0.42678  0.10486  Biso   1.000  Cu
  O1       1.0000 0.54897  0.13530  0.66046  Biso   1.000  O
  O2       1.0000 0.45103  0.13530  0.83954  Biso   1.000  O
  O3       1.0000 0.04897  0.63530  0.66046  Biso   1.000  O
  O4       1.0000 0.95103  0.63530  0.83954  Biso   1.000  O
  O5       1.0000 0.45103  0.86470  0.33954  Biso   1.000  O
  O6       1.0000 0.54897  0.86470  0.16046  Biso   1.000  O
  O7       1.0000 0.95103  0.36470  0.33954  Biso   1.000  O
  O8       1.0000 0.04897  0.36470  0.16046  Biso   1.000  O
  H1       1.0000 0.55616  0.20845  0.70265  Biso   1.000  H
  H2       1.0000 0.44384  0.20845  0.79735  Biso   1.000  H
  H3       1.0000 0.05616  0.70845  0.70265  Biso   1.000  H
  H4       1.0000 0.94384  0.70845  0.79735  Biso   1.000  H
  H5       1.0000 0.44384  0.79155  0.29735  Biso   1.000  H
  H6       1.0000 0.55616  0.79155  0.20265  Biso   1.000  H
  H7       1.0000 0.94384  0.29155  0.29735  Biso   1.000  H
  H8       1.0000 0.05616  0.29155  0.20265  Biso   1.000  H
  H9       1.0000 0.53388  0.05757  0.68865  Biso   1.000  H
  H10      1.0000 0.46612  0.05757  0.81135  Biso   1.000  H
  H11      1.0000 0.03388  0.55757  0.68865  Biso   1.000  H
  H12      1.0000 0.96612  0.55757  0.81135  Biso   1.000  H
  H13      1.0000 0.46612  0.94243  0.31135  Biso   1.000  H
  H14      1.0000 0.53388  0.94243  0.18865  Biso   1.000  H
  H15      1.0000 0.96612  0.44243  0.31135  Biso   1.000  H
  H16      1.0000 0.03388  0.44243  0.18865  Biso   1.000  H
  O9       1.0000 0.82076  0.68740  0.66827  Biso   1.000  O
  O10      1.0000 0.17924  0.68740  0.83173  Biso   1.000  O
  O11      1.0000 0.32076  0.18740  0.66827  Biso   1.000  O
  O12      1.0000 0.67924  0.18740  0.83173  Biso   1.000  O
  O13      1.0000 0.17924  0.31260  0.33173  Biso   1.000  O
  O14      1.0000 0.82076  0.31260  0.16827  Biso   1.000  O
  O15      1.0000 0.67924  0.81260  0.33173  Biso   1.000  O
  O16      1.0000 0.32076  0.81260  0.16827  Biso   1.000  O
  O17      1.0000 0.59941  0.10980  0.47238  Biso   1.000  O
  O18      1.0000 0.40059  0.10980  0.02762  Biso   1.000  O
  O19      1.0000 0.09941  0.60980  0.47238  Biso   1.000  O
  O20      1.0000 0.90059  0.60980  0.02762  Biso   1.000  O
  O21      1.0000 0.40059  0.89020  0.52762  Biso   1.000  O
  O22      1.0000 0.59941  0.89020  0.97238  Biso   1.000  O
  O23      1.0000 0.90059  0.39020  0.52762  Biso   1.000  O
  O24      1.0000 0.09941  0.39020  0.97238  Biso   1.000  O
  O25      1.0000 0.80491  0.51580  0.77869  Biso   1.000  O
  O26      1.0000 0.19509  0.51580  0.72131  Biso   1.000  O
  O27      1.0000 0.30491  0.01580  0.77869  Biso   1.000  O
  O28      1.0000 0.69509  0.01580  0.72131  Biso   1.000  O
  O29      1.0000 0.19509  0.48420  0.22131  Biso   1.000  O
  O30      1.0000 0.80491  0.48420  0.27869  Biso   1.000  O
  O31      1.0000 0.69509  0.98420  0.22131  Biso   1.000  O
  O32      1.0000 0.30491  0.98420  0.27869  Biso   1.000  O
  O33      1.0000 0.59930  0.26770  0.35054  Biso   1.000  O
  O34      1.0000 0.40070  0.26770  0.14946  Biso   1.000  O
  O35      1.0000 0.09930  0.76770  0.35054  Biso   1.000  O
  O36      1.0000 0.90070  0.76770  0.14946  Biso   1.000  O
  O37      1.0000 0.40070  0.73230  0.64946  Biso   1.000  O
  O38      1.0000 0.59930  0.73230  0.85054  Biso   1.000  O
  O39      1.0000 0.90070  0.23230  0.64946  Biso   1.000  O
  O40      1.0000 0.09930  0.23230  0.85054  Biso   1.000  O
  C1       1.0000 0.75266  0.48100  0.62170  Biso   1.000  C
  C2       1.0000 0.24734  0.48100  0.87830  Biso   1.000  C
  C3       1.0000 0.25266  0.98100  0.62170  Biso   1.000  C
  C4       1.0000 0.74734  0.98100  0.87830  Biso   1.000  C
  C5       1.0000 0.24734  0.51900  0.37830  Biso   1.000  C
  C6       1.0000 0.75266  0.51900  0.12170  Biso   1.000  C
  C7       1.0000 0.74734  0.01900  0.37830  Biso   1.000  C
  C8       1.0000 0.25266  0.01900  0.12170  Biso   1.000  C
  C9       1.0000 0.72211  0.35320  0.64820  Biso   1.000  C
  C10      1.0000 0.27789  0.35320  0.85180  Biso   1.000  C
  C11      1.0000 0.22211  0.85320  0.64820  Biso   1.000  C
  C12      1.0000 0.77789  0.85320  0.85180  Biso   1.000  C
  C13      1.0000 0.27789  0.64680  0.35180  Biso   1.000  C
  C14      1.0000 0.72211  0.64680  0.14820  Biso   1.000  C
  C15      1.0000 0.77789  0.14680  0.35180  Biso   1.000  C
  C16      1.0000 0.22211  0.14680  0.14820  Biso   1.000  C
  H17      1.0000 0.73065  0.32166  0.71128  Biso   1.000  H
  H18      1.0000 0.26935  0.32166  0.78872  Biso   1.000  H
  H19      1.0000 0.23065  0.82166  0.71128  Biso   1.000  H
  H20      1.0000 0.76935  0.82166  0.78872  Biso   1.000  H
  H21      1.0000 0.26935  0.67834  0.28872  Biso   1.000  H
  H22      1.0000 0.73065  0.67834  0.21128  Biso   1.000  H
  H23      1.0000 0.76935  0.17834  0.28872  Biso   1.000  H
  H24      1.0000 0.23065  0.17834  0.21128  Biso   1.000  H
  N1       1.0000 0.68069  0.27300  0.58665  Biso   1.000  N
  N2       1.0000 0.31931  0.27300  0.91335  Biso   1.000  N
  N3       1.0000 0.18069  0.77300  0.58665  Biso   1.000  N
  N4       1.0000 0.81931  0.77300  0.91335  Biso   1.000  N
  N5       1.0000 0.31931  0.72700  0.41335  Biso   1.000  N
  N6       1.0000 0.68069  0.72700  0.08665  Biso   1.000  N
  N7       1.0000 0.81931  0.22700  0.41335  Biso   1.000  N
  N8       1.0000 0.18069  0.22700  0.08665  Biso   1.000  N
  C17      1.0000 0.66717  0.32190  0.49560  Biso   1.000  C
  C18      1.0000 0.33283  0.32190  0.00440  Biso   1.000  C
  C19      1.0000 0.16717  0.82190  0.49560  Biso   1.000  C
  C20      1.0000 0.83283  0.82190  0.00440  Biso   1.000  C
  C21      1.0000 0.33283  0.67810  0.50440  Biso   1.000  C
  C22      1.0000 0.66717  0.67810  0.99560  Biso   1.000  C
  C23      1.0000 0.83283  0.17810  0.50440  Biso   1.000  C
  C24      1.0000 0.16717  0.17810  0.99560  Biso   1.000  C
  C25      1.0000 0.74003  0.52770  0.52770  Biso   1.000  C
  C26      1.0000 0.25997  0.52770  0.97230  Biso   1.000  C
  C27      1.0000 0.24003  0.02770  0.52770  Biso   1.000  C
  C28      1.0000 0.75997  0.02770  0.97230  Biso   1.000  C
  C29      1.0000 0.25997  0.47230  0.47230  Biso   1.000  C
  C30      1.0000 0.74003  0.47230  0.02770  Biso   1.000  C
  C31      1.0000 0.75997  0.97230  0.47230  Biso   1.000  C
  C32      1.0000 0.24003  0.97230  0.02770  Biso   1.000  C
  H25      1.0000 0.76074  0.61199  0.50756  Biso   1.000  H
  H26      1.0000 0.23926  0.61199  0.99244  Biso   1.000  H
  H27      1.0000 0.26074  0.11199  0.50756  Biso   1.000  H
  H28      1.0000 0.73926  0.11199  0.99244  Biso   1.000  H
  H29      1.0000 0.23926  0.38801  0.49244  Biso   1.000  H
  H30      1.0000 0.76074  0.38801  0.00756  Biso   1.000  H
  H31      1.0000 0.73926  0.88801  0.49244  Biso   1.000  H
  H32      1.0000 0.26074  0.88801  0.00756  Biso   1.000  H
  C33      1.0000 0.69611  0.44720  0.46410  Biso   1.000  C
  C34      1.0000 0.30389  0.44720  0.03590  Biso   1.000  C
  C35      1.0000 0.19611  0.94720  0.46410  Biso   1.000  C
  C36      1.0000 0.80389  0.94720  0.03590  Biso   1.000  C
  C37      1.0000 0.30389  0.55280  0.53590  Biso   1.000  C
  C38      1.0000 0.69611  0.55280  0.96410  Biso   1.000  C
  C39      1.0000 0.80389  0.05280  0.53590  Biso   1.000  C
  C40      1.0000 0.19611  0.05280  0.96410  Biso   1.000  C
  H33      1.0000 0.68637  0.47768  0.40082  Biso   1.000  H
  H34      1.0000 0.31363  0.47768  0.09918  Biso   1.000  H
  H35      1.0000 0.18637  0.97768  0.40082  Biso   1.000  H
  H36      1.0000 0.81363  0.97768  0.09918  Biso   1.000  H
  H37      1.0000 0.31363  0.52232  0.59918  Biso   1.000  H
  H38      1.0000 0.68637  0.52232  0.90082  Biso   1.000  H
  H39      1.0000 0.81363  0.02232  0.59918  Biso   1.000  H
  H40      1.0000 0.18637  0.02232  0.90082  Biso   1.000  H
  N9       1.0000 0.61100  0.85690  0.58606  Biso   1.000  N
  N10      1.0000 0.38900  0.85690  0.91394  Biso   1.000  N
  N11      1.0000 0.11100  0.35690  0.58606  Biso   1.000  N
  N12      1.0000 0.88900  0.35690  0.91394  Biso   1.000  N
  N13      1.0000 0.38900  0.14310  0.41394  Biso   1.000  N
  N14      1.0000 0.61100  0.14310  0.08606  Biso   1.000  N
  N15      1.0000 0.88900  0.64310  0.41394  Biso   1.000  N
  N16      1.0000 0.11100  0.64310  0.08606  Biso   1.000  N
  C41      1.0000 0.61804  0.22590  0.43280  Biso   1.000  C
  C42      1.0000 0.38196  0.22590  0.06720  Biso   1.000  C
  C43      1.0000 0.11804  0.72590  0.43280  Biso   1.000  C
  C44      1.0000 0.88196  0.72590  0.06720  Biso   1.000  C
  C45      1.0000 0.38196  0.77410  0.56720  Biso   1.000  C
  C46      1.0000 0.61804  0.77410  0.93280  Biso   1.000  C
  C47      1.0000 0.88196  0.27410  0.56720  Biso   1.000  C
  C48      1.0000 0.11804  0.27410  0.93280  Biso   1.000  C
  C49      1.0000 0.79749  0.57050  0.69480  Biso   1.000  C
  C50      1.0000 0.20251  0.57050  0.80520  Biso   1.000  C
  C51      1.0000 0.29749  0.07050  0.69480  Biso   1.000  C
  C52      1.0000 0.70251  0.07050  0.80520  Biso   1.000  C
  C53      1.0000 0.20251  0.42950  0.30520  Biso   1.000  C
  C54      1.0000 0.79749  0.42950  0.19480  Biso   1.000  C
  C55      1.0000 0.70251  0.92950  0.30520  Biso   1.000  C
  C56      1.0000 0.29749  0.92950  0.19480  Biso   1.000  C
  N17      1.0000 0.55749  0.65860  0.53187  Biso   1.000  N
  N18      1.0000 0.44251  0.65860  0.96813  Biso   1.000  N
  N19      1.0000 0.05749  0.15860  0.53187  Biso   1.000  N
  N20      1.0000 0.94251  0.15860  0.96813  Biso   1.000  N
  N21      1.0000 0.44251  0.34140  0.46813  Biso   1.000  N
  N22      1.0000 0.55749  0.34140  0.03187  Biso   1.000  N
  N23      1.0000 0.94251  0.84140  0.46813  Biso   1.000  N
  N24      1.0000 0.05749  0.84140  0.03187  Biso   1.000  N
  N25      1.0000 0.59414  0.61370  0.61470  Biso   1.000  N
  N26      1.0000 0.40586  0.61370  0.88530  Biso   1.000  N
  N27      1.0000 0.09414  0.11370  0.61470  Biso   1.000  N
  N28      1.0000 0.90586  0.11370  0.88530  Biso   1.000  N
  N29      1.0000 0.40586  0.38630  0.38530  Biso   1.000  N
  N30      1.0000 0.59414  0.38630  0.11470  Biso   1.000  N
  N31      1.0000 0.90586  0.88630  0.38530  Biso   1.000  N
  N32      1.0000 0.09414  0.88630  0.11470  Biso   1.000  N
  C57      1.0000 0.62523  0.73720  0.64440  Biso   1.000  C
  C58      1.0000 0.37477  0.73720  0.85560  Biso   1.000  C
  C59      1.0000 0.12523  0.23720  0.64440  Biso   1.000  C
  C60      1.0000 0.87477  0.23720  0.85560  Biso   1.000  C
  C61      1.0000 0.37477  0.26280  0.35560  Biso   1.000  C
  C62      1.0000 0.62523  0.26280  0.14440  Biso   1.000  C
  C63      1.0000 0.87477  0.76280  0.35560  Biso   1.000  C
  C64      1.0000 0.12523  0.76280  0.14440  Biso   1.000  C
  H41      1.0000 0.65449  0.74202  0.70051  Biso   1.000  H
  H42      1.0000 0.34551  0.74202  0.79949  Biso   1.000  H
  H43      1.0000 0.15449  0.24202  0.70051  Biso   1.000  H
  H44      1.0000 0.84551  0.24202  0.79949  Biso   1.000  H
  H45      1.0000 0.34551  0.25798  0.29949  Biso   1.000  H
  H46      1.0000 0.65449  0.25798  0.20051  Biso   1.000  H
  H47      1.0000 0.84551  0.75798  0.29949  Biso   1.000  H
  H48      1.0000 0.15449  0.75798  0.20051  Biso   1.000  H
  C65      1.0000 0.56764  0.80240  0.51600  Biso   1.000  C
  C66      1.0000 0.43236  0.80240  0.98400  Biso   1.000  C
  C67      1.0000 0.06764  0.30240  0.51600  Biso   1.000  C
  C68      1.0000 0.93236  0.30240  0.98400  Biso   1.000  C
  C69      1.0000 0.43236  0.19760  0.48400  Biso   1.000  C
  C70      1.0000 0.56764  0.19760  0.01600  Biso   1.000  C
  C71      1.0000 0.93236  0.69760  0.48400  Biso   1.000  C
  C72      1.0000 0.06764  0.69760  0.01600  Biso   1.000  C
  H49      1.0000 0.54762  0.85740  0.46398  Biso   1.000  H
  H50      1.0000 0.45238  0.85740  0.03602  Biso   1.000  H
  H51      1.0000 0.04762  0.35740  0.46398  Biso   1.000  H
  H52      1.0000 0.95238  0.35740  0.03602  Biso   1.000  H
  H53      1.0000 0.45238  0.14260  0.53602  Biso   1.000  H
  H54      1.0000 0.54762  0.14260  0.96398  Biso   1.000  H
  H55      1.0000 0.95238  0.64260  0.53602  Biso   1.000  H
  H56      1.0000 0.04762  0.64260  0.96398  Biso   1.000  H
  C73      1.0000 0.51631  0.55200  0.47070  Biso   1.000  C
  C74      1.0000 0.48369  0.55200  0.02930  Biso   1.000  C
  C75      1.0000 0.01631  0.05200  0.47070  Biso   1.000  C
  C76      1.0000 0.98369  0.05200  0.02930  Biso   1.000  C
  C77      1.0000 0.48369  0.44800  0.52930  Biso   1.000  C
  C78      1.0000 0.51631  0.44800  0.97070  Biso   1.000  C
  C79      1.0000 0.98369  0.94800  0.52930  Biso   1.000  C
  C80      1.0000 0.01631  0.94800  0.97070  Biso   1.000  C
  H57      1.0000 0.54248  0.49464  0.43264  Biso   1.000  H
  H58      1.0000 0.45752  0.49464  0.06736  Biso   1.000  H
  H59      1.0000 0.04248  0.99464  0.43264  Biso   1.000  H
  H60      1.0000 0.95752  0.99464  0.06736  Biso   1.000  H
  H61      1.0000 0.45752  0.50536  0.56736  Biso   1.000  H
  H62      1.0000 0.54248  0.50536  0.93264  Biso   1.000  H
  H63      1.0000 0.95752  0.00536  0.56736  Biso   1.000  H
  H64      1.0000 0.04248  0.00536  0.93264  Biso   1.000  H
  H65      1.0000 0.48422  0.60744  0.42771  Biso   1.000  H
  H66      1.0000 0.51578  0.60744  0.07229  Biso   1.000  H
  H67      1.0000 0.98422  0.10744  0.42771  Biso   1.000  H
  H68      1.0000 0.01578  0.10744  0.07229  Biso   1.000  H
  H69      1.0000 0.51578  0.39256  0.57229  Biso   1.000  H
  H70      1.0000 0.48422  0.39256  0.92771  Biso   1.000  H
  H71      1.0000 0.01578  0.89256  0.57229  Biso   1.000  H
  H72      1.0000 0.98422  0.89256  0.92771  Biso   1.000  H
  O41      1.0000 0.57779  0.37480  0.77780  Biso   1.000  O
  O42      1.0000 0.42221  0.37480  0.72220  Biso   1.000  O
  O43      1.0000 0.07779  0.87480  0.77780  Biso   1.000  O
  O44      1.0000 0.92221  0.87480  0.72220  Biso   1.000  O
  O45      1.0000 0.42221  0.62520  0.22220  Biso   1.000  O
  O46      1.0000 0.57779  0.62520  0.27780  Biso   1.000  O
  O47      1.0000 0.92221  0.12520  0.22220  Biso   1.000  O
  O48      1.0000 0.07779  0.12520  0.27780  Biso   1.000  O
  H73      1.0000 0.61424  0.33203  0.79269  Biso   1.000  H
  H74      1.0000 0.38576  0.33203  0.70731  Biso   1.000  H
  H75      1.0000 0.11424  0.83203  0.79269  Biso   1.000  H
  H76      1.0000 0.88576  0.83203  0.70731  Biso   1.000  H
  H77      1.0000 0.38576  0.66797  0.20731  Biso   1.000  H
  H78      1.0000 0.61424  0.66797  0.29269  Biso   1.000  H
  H79      1.0000 0.88576  0.16797  0.20731  Biso   1.000  H
  H80      1.0000 0.11424  0.16797  0.29269  Biso   1.000  H
  H81      1.0000 0.58327  0.46932  0.77248  Biso   1.000  H
  H82      1.0000 0.41673  0.46932  0.72752  Biso   1.000  H
  H83      1.0000 0.08327  0.96932  0.77248  Biso   1.000  H
  H84      1.0000 0.91673  0.96932  0.72752  Biso   1.000  H
  H85      1.0000 0.41673  0.53068  0.22752  Biso   1.000  H
  H86      1.0000 0.58327  0.53068  0.27248  Biso   1.000  H
  H87      1.0000 0.91673  0.03068  0.22752  Biso   1.000  H
  H88      1.0000 0.08327  0.03068  0.27248  Biso   1.000  H
  O49      1.0000 0.50000  0.89850  0.75000  Biso   1.000  O
  O50      1.0000 0.00000  0.39850  0.75000  Biso   1.000  O
  O51      1.0000 0.50000  0.10150  0.25000  Biso   1.000  O
  O52      1.0000 0.00000  0.60150  0.25000  Biso   1.000  O
  H89      1.0000 0.47525  0.83693  0.71609  Biso   1.000  H
  H90      1.0000 0.52475  0.83693  0.78391  Biso   1.000  H
  H91      1.0000 0.97525  0.33693  0.71609  Biso   1.000  H
  H92      1.0000 0.02475  0.33693  0.78391  Biso   1.000  H
  H93      1.0000 0.52475  0.16307  0.28391  Biso   1.000  H
  H94      1.0000 0.47525  0.16307  0.21609  Biso   1.000  H
  H95      1.0000 0.02475  0.66307  0.28391  Biso   1.000  H
  H96      1.0000 0.97525  0.66307  0.21609  Biso   1.000  H
  H97      1.0000 0.53296  0.85172  0.77792  Biso   1.000  H
  H98      1.0000 0.46704  0.85172  0.72208  Biso   1.000  H
  H99      1.0000 0.03296  0.35172  0.77792  Biso   1.000  H
  H100     1.0000 0.96704  0.35172  0.72208  Biso   1.000  H
  H101     1.0000 0.46704  0.14828  0.22208  Biso   1.000  H
  H102     1.0000 0.53296  0.14828  0.27792  Biso   1.000  H
  H103     1.0000 0.96704  0.64828  0.22208  Biso   1.000  H
  H104     1.0000 0.03296  0.64828  0.27792  Biso   1.000  H
