data_image0
_cell_length_a       8.372
_cell_length_b       12.23
_cell_length_c       14.114
_cell_angle_alpha    100.688
_cell_angle_beta     104.106
_cell_angle_gamma    95.259

_symmetry_space_group_name_H-M    "P 1"
_symmetry_int_tables_number       1

loop_
  _symmetry_equiv_pos_as_xyz
  'x, y, z'

loop_
  _atom_site_label
  _atom_site_occupancy
  _atom_site_fract_x
  _atom_site_fract_y
  _atom_site_fract_z
  _atom_site_thermal_displace_type
  _atom_site_B_iso_or_equiv
  _atom_site_type_symbol
  N1       1.0000 0.56810  0.59950  0.65880  Biso   1.000  N
  N2       1.0000 0.43190  0.40050  0.34120  Biso   1.000  N
  C1       1.0000 0.59870  0.62640  0.57750  Biso   1.000  C
  C2       1.0000 0.40130  0.37360  0.42250  Biso   1.000  C
  H1       1.0000 0.53822  0.67710  0.54795  Biso   1.000  H
  H2       1.0000 0.46178  0.32290  0.45205  Biso   1.000  H
  C3       1.0000 0.71810  0.58160  0.53500  Biso   1.000  C
  C4       1.0000 0.28190  0.41840  0.46500  Biso   1.000  C
  C5       1.0000 0.80800  0.50650  0.58070  Biso   1.000  C
  C6       1.0000 0.19200  0.49350  0.41930  Biso   1.000  C
  H3       1.0000 0.88469  0.47187  0.55224  Biso   1.000  H
  H4       1.0000 0.11531  0.52813  0.44776  Biso   1.000  H
  C7       1.0000 0.74650  0.61250  0.44080  Biso   1.000  C
  C8       1.0000 0.25350  0.38750  0.55920  Biso   1.000  C
  C9       1.0000 0.78260  0.48370  0.66830  Biso   1.000  C
  C10      1.0000 0.21740  0.51630  0.33170  Biso   1.000  C
  H5       1.0000 0.84636  0.43732  0.70193  Biso   1.000  H
  H6       1.0000 0.15364  0.56268  0.29807  Biso   1.000  H
  O1       1.0000 0.49450  0.55420  0.81761  Biso   1.000  O
  O2       1.0000 0.50550  0.44580  0.18239  Biso   1.000  O
  O3       1.0000 0.71000  0.70780  0.42829  Biso   1.000  O
  O4       1.0000 0.29000  0.29220  0.57171  Biso   1.000  O
  O5       1.0000 0.80130  0.54400  0.38510  Biso   1.000  O
  O6       1.0000 0.19870  0.45600  0.61490  Biso   1.000  O
  O7       1.0000 0.71060  0.46380  0.85580  Biso   1.000  O
  O8       1.0000 0.28940  0.53620  0.14420  Biso   1.000  O
  C11      1.0000 0.62160  0.51330  0.80070  Biso   1.000  C
  C12      1.0000 0.37840  0.48670  0.19930  Biso   1.000  C
  C13      1.0000 0.66140  0.53080  0.70510  Biso   1.000  C
  C14      1.0000 0.33860  0.46920  0.29490  Biso   1.000  C
  N3       1.0000 0.52020  0.79400  0.27280  Biso   1.000  N
  N4       1.0000 0.47980  0.20600  0.72720  Biso   1.000  N
  C15      1.0000 0.45030  0.82900  0.19180  Biso   1.000  C
  C16      1.0000 0.54970  0.17100  0.80820  Biso   1.000  C
  H7       1.0000 0.50613  0.85004  0.14702  Biso   1.000  H
  H8       1.0000 0.49387  0.14996  0.85298  Biso   1.000  H
  N5       1.0000 0.29110  0.83010  0.18310  Biso   1.000  N
  N6       1.0000 0.70890  0.16990  0.81690  Biso   1.000  N
  N7       1.0000 0.24930  0.79530  0.26080  Biso   1.000  N
  N8       1.0000 0.75070  0.20470  0.73920  Biso   1.000  N
  C17      1.0000 0.39200  0.77460  0.31210  Biso   1.000  C
  C18      1.0000 0.60800  0.22540  0.68790  Biso   1.000  C
  H9       1.0000 0.40360  0.74848  0.37087  Biso   1.000  H
  H10      1.0000 0.59640  0.25152  0.62913  Biso   1.000  H
  C19      1.0000 0.01130  0.78310  0.06380  Biso   1.000  C
  C20      1.0000 0.98870  0.21690  0.93620  Biso   1.000  C
  H11      1.0000 0.96447  0.77035  0.11795  Biso   1.000  H
  H12      1.0000 0.03553  0.22965  0.88205  Biso   1.000  H
  H13      1.0000 0.93056  0.81512  0.01913  Biso   1.000  H
  H14      1.0000 0.06944  0.18488  0.98087  Biso   1.000  H
  C21      1.0000 0.16590  0.86810  0.10710  Biso   1.000  C
  C22      1.0000 0.83410  0.13190  0.89290  Biso   1.000  C
  H15      1.0000 0.21409  0.88162  0.05372  Biso   1.000  H
  H16      1.0000 0.78591  0.11838  0.94628  Biso   1.000  H
  H17      1.0000 0.13628  0.93848  0.13751  Biso   1.000  H
  H18      1.0000 0.86372  0.06152  0.86249  Biso   1.000  H
  N9       1.0000 0.08770  0.67930  0.91730  Biso   1.000  N
  N10      1.0000 0.91230  0.32070  0.08270  Biso   1.000  N
  N11      1.0000 0.99470  0.72330  0.84370  Biso   1.000  N
  N12      1.0000 0.00530  0.27670  0.15630  Biso   1.000  N
  C23      1.0000 0.03400  0.67120  0.00730  Biso   1.000  C
  C24      1.0000 0.96600  0.32880  0.99270  Biso   1.000  C
  H19      1.0000 0.11612  0.63892  0.05098  Biso   1.000  H
  H20      1.0000 0.88388  0.36108  0.94902  Biso   1.000  H
  H21      1.0000 0.92971  0.62075  0.98840  Biso   1.000  H
  H22      1.0000 0.07029  0.37925  0.01160  Biso   1.000  H
  C25      1.0000 0.08160  0.71610  0.77690  Biso   1.000  C
  C26      1.0000 0.91840  0.28390  0.22310  Biso   1.000  C
  H23      1.0000 0.04976  0.74119  0.71774  Biso   1.000  H
  H24      1.0000 0.95024  0.25881  0.28226  Biso   1.000  H
  C27      1.0000 0.21950  0.64720  0.89080  Biso   1.000  C
  C28      1.0000 0.78050  0.35280  0.10920  Biso   1.000  C
  H25      1.0000 0.30016  0.61399  0.92896  Biso   1.000  H
  H26      1.0000 0.69984  0.38601  0.07104  Biso   1.000  H
  N13      1.0000 0.22150  0.66880  0.80260  Biso   1.000  N
  N14      1.0000 0.77850  0.33120  0.19740  Biso   1.000  N
  O9       1.0000 0.81710  0.64740  0.22670  Biso   1.000  O
  O10      1.0000 0.18290  0.35260  0.77330  Biso   1.000  O
  H27      1.0000 0.73989  0.63030  0.17245  Biso   1.000  H
  H28      1.0000 0.26011  0.36970  0.82755  Biso   1.000  H
  H29      1.0000 0.82341  0.59115  0.25438  Biso   1.000  H
  H30      1.0000 0.17659  0.40885  0.74562  Biso   1.000  H
  Cu1      1.0000 0.39008  0.64288  0.72629  Biso   1.000  Cu
  Cu2      1.0000 0.60992  0.35712  0.27371  Biso   1.000  Cu
  Cu3      1.0000 0.76168  0.79005  0.32880  Biso   1.000  Cu
  Cu4      1.0000 0.23832  0.20995  0.67120  Biso   1.000  Cu
  O11      1.0000 0.80860  0.90570  0.25710  Biso   1.000  O
  O12      1.0000 0.19140  0.09430  0.74290  Biso   1.000  O
  O13      1.0000 0.28780  0.72910  0.63330  Biso   1.000  O
  O14      1.0000 0.71220  0.27090  0.36670  Biso   1.000  O
  N15      1.0000 0.99540  0.85040  0.41170  Biso   1.000  N
  N16      1.0000 0.00460  0.14960  0.58830  Biso   1.000  N
  C29      1.0000 0.24500  0.87020  0.54170  Biso   1.000  C
  C30      1.0000 0.75500  0.12980  0.45830  Biso   1.000  C
  O15      1.0000 0.98660  0.05550  0.26720  Biso   1.000  O
  O16      1.0000 0.01340  0.94450  0.73280  Biso   1.000  O
  C31      1.0000 0.09050  0.81430  0.48720  Biso   1.000  C
  C32      1.0000 0.90950  0.18570  0.51280  Biso   1.000  C
  H31      1.0000 0.05055  0.74869  0.50346  Biso   1.000  H
  H32      1.0000 0.94945  0.25131  0.49654  Biso   1.000  H
  C33      1.0000 0.94250  0.97240  0.29650  Biso   1.000  C
  C34      1.0000 0.05750  0.02760  0.70350  Biso   1.000  C
  C35      1.0000 0.05560  0.94450  0.38810  Biso   1.000  C
  C36      1.0000 0.94440  0.05550  0.61190  Biso   1.000  C
  O17      1.0000 0.48800  0.87720  0.66950  Biso   1.000  O
  O18      1.0000 0.51200  0.12280  0.33050  Biso   1.000  O
  C37      1.0000 0.20550  0.00680  0.43960  Biso   1.000  C
  C38      1.0000 0.79450  0.99320  0.56040  Biso   1.000  C
  H33      1.0000 0.24218  0.07237  0.42204  Biso   1.000  H
  H34      1.0000 0.75782  0.92763  0.57796  Biso   1.000  H
  C39      1.0000 0.30230  0.96980  0.51920  Biso   1.000  C
  C40      1.0000 0.69770  0.03020  0.48080  Biso   1.000  C
  H35      1.0000 0.40402  0.01124  0.55681  Biso   1.000  H
  H36      1.0000 0.59598  0.98876  0.44319  Biso   1.000  H
  C41      1.0000 0.35140  0.82480  0.62380  Biso   1.000  C
  C42      1.0000 0.64860  0.17520  0.37620  Biso   1.000  C
  O19      1.0000 0.72630  0.05050  0.08660  Biso   1.000  O
  O20      1.0000 0.27370  0.94950  0.91340  Biso   1.000  O
  H37      1.0000 0.78302  0.06919  0.14735  Biso   1.000  H
  H38      1.0000 0.21698  0.93081  0.85265  Biso   1.000  H
  H39      1.0000 0.68710  0.98112  0.07251  Biso   1.000  H
  H40      1.0000 0.31290  0.01888  0.92749  Biso   1.000  H
  O21      1.0000 0.68190  0.81760  0.83010  Biso   1.000  O
  O22      1.0000 0.31810  0.18240  0.16990  Biso   1.000  O
  O23      1.0000 0.60870  0.62490  0.03790  Biso   1.000  O
  O24      1.0000 0.39130  0.37510  0.96210  Biso   1.000  O
  O25      1.0000 0.54250  0.84000  0.98150  Biso   1.000  O
  O26      1.0000 0.45750  0.16000  0.01850  Biso   1.000  O
  H41      1.0000 0.46254  0.87662  0.96457  Biso   1.000  H
  H42      1.0000 0.53746  0.12338  0.03543  Biso   1.000  H
  H43      1.0000 0.58943  0.82664  0.93439  Biso   1.000  H
  H44      1.0000 0.41057  0.17336  0.06561  Biso   1.000  H
