data_image0
_cell_length_a       7.7978
_cell_length_b       16.5972
_cell_length_c       13.1867
_cell_angle_alpha    90
_cell_angle_beta     98.287
_cell_angle_gamma    90

_symmetry_space_group_name_H-M    "P 1"
_symmetry_int_tables_number       1

loop_
  _symmetry_equiv_pos_as_xyz
  'x, y, z'

loop_
  _atom_site_label
  _atom_site_occupancy
  _atom_site_fract_x
  _atom_site_fract_y
  _atom_site_fract_z
  _atom_site_thermal_displace_type
  _atom_site_B_iso_or_equiv
  _atom_site_type_symbol
  C1       1.0000 0.00750  0.93472  0.93360  Biso   1.000  C
  C2       1.0000 0.99250  0.43472  0.56640  Biso   1.000  C
  C3       1.0000 0.99250  0.06528  0.06640  Biso   1.000  C
  C4       1.0000 0.00750  0.56528  0.43360  Biso   1.000  C
  C5       1.0000 0.00500  0.86742  0.85690  Biso   1.000  C
  C6       1.0000 0.99500  0.36742  0.64310  Biso   1.000  C
  C7       1.0000 0.99500  0.13258  0.14310  Biso   1.000  C
  C8       1.0000 0.00500  0.63258  0.35690  Biso   1.000  C
  N1       1.0000 0.78350  0.52704  0.02350  Biso   1.000  N
  N2       1.0000 0.21650  0.02704  0.47650  Biso   1.000  N
  N3       1.0000 0.21650  0.47296  0.97650  Biso   1.000  N
  N4       1.0000 0.78350  0.97296  0.52350  Biso   1.000  N
  C9       1.0000 0.88240  0.64610  0.98600  Biso   1.000  C
  C10      1.0000 0.11760  0.14610  0.51400  Biso   1.000  C
  C11      1.0000 0.11760  0.35390  0.01400  Biso   1.000  C
  C12      1.0000 0.88240  0.85390  0.48600  Biso   1.000  C
  H1       1.0000 0.90475  0.69149  0.94866  Biso   1.000  H
  H2       1.0000 0.09525  0.19149  0.55134  Biso   1.000  H
  H3       1.0000 0.09525  0.30851  0.05134  Biso   1.000  H
  H4       1.0000 0.90475  0.80851  0.44866  Biso   1.000  H
  C13      1.0000 0.71220  0.56460  0.84310  Biso   1.000  C
  C14      1.0000 0.28780  0.06460  0.65690  Biso   1.000  C
  C15      1.0000 0.28780  0.43540  0.15690  Biso   1.000  C
  C16      1.0000 0.71220  0.93540  0.34310  Biso   1.000  C
  H5       1.0000 0.76933  0.51798  0.81894  Biso   1.000  H
  H6       1.0000 0.23067  0.01798  0.68106  Biso   1.000  H
  H7       1.0000 0.23067  0.48202  0.18106  Biso   1.000  H
  H8       1.0000 0.76933  0.98202  0.31894  Biso   1.000  H
  H9       1.0000 0.73099  0.60982  0.79938  Biso   1.000  H
  H10      1.0000 0.26901  0.10982  0.70062  Biso   1.000  H
  H11      1.0000 0.26901  0.39018  0.20062  Biso   1.000  H
  H12      1.0000 0.73099  0.89018  0.29938  Biso   1.000  H
  C17      1.0000 0.51940  0.54806  0.83400  Biso   1.000  C
  C18      1.0000 0.48060  0.04806  0.66600  Biso   1.000  C
  C19      1.0000 0.48060  0.45194  0.16600  Biso   1.000  C
  C20      1.0000 0.51940  0.95194  0.33400  Biso   1.000  C
  H13      1.0000 0.48401  0.51677  0.77241  Biso   1.000  H
  H14      1.0000 0.51599  0.01677  0.72759  Biso   1.000  H
  H15      1.0000 0.51599  0.48323  0.22759  Biso   1.000  H
  H16      1.0000 0.48401  0.98323  0.27241  Biso   1.000  H
  H17      1.0000 0.49757  0.51570  0.89207  Biso   1.000  H
  H18      1.0000 0.50243  0.01570  0.60793  Biso   1.000  H
  H19      1.0000 0.50243  0.48430  0.10793  Biso   1.000  H
  H20      1.0000 0.49757  0.98430  0.39207  Biso   1.000  H
  C21      1.0000 0.28720  0.72110  0.88080  Biso   1.000  C
  C22      1.0000 0.71280  0.22110  0.61920  Biso   1.000  C
  C23      1.0000 0.71280  0.27890  0.11920  Biso   1.000  C
  C24      1.0000 0.28720  0.77890  0.38080  Biso   1.000  C
  C25      1.0000 0.32770  0.65680  0.74850  Biso   1.000  C
  C26      1.0000 0.67230  0.15680  0.75150  Biso   1.000  C
  C27      1.0000 0.67230  0.34320  0.25150  Biso   1.000  C
  C28      1.0000 0.32770  0.84320  0.24850  Biso   1.000  C
  H21      1.0000 0.32588  0.63987  0.68114  Biso   1.000  H
  H22      1.0000 0.67412  0.13987  0.81886  Biso   1.000  H
  H23      1.0000 0.67412  0.36013  0.31886  Biso   1.000  H
  H24      1.0000 0.32588  0.86013  0.18114  Biso   1.000  H
  N5       1.0000 0.93780  0.63498  0.08550  Biso   1.000  N
  N6       1.0000 0.06220  0.13498  0.41450  Biso   1.000  N
  N7       1.0000 0.06220  0.36502  0.91450  Biso   1.000  N
  N8       1.0000 0.93780  0.86502  0.58550  Biso   1.000  N
  C29      1.0000 0.87310  0.56180  0.10330  Biso   1.000  C
  C30      1.0000 0.12690  0.06180  0.39670  Biso   1.000  C
  C31      1.0000 0.12690  0.43820  0.89670  Biso   1.000  C
  C32      1.0000 0.87310  0.93820  0.60330  Biso   1.000  C
  H25      1.0000 0.89090  0.53768  0.16768  Biso   1.000  H
  H26      1.0000 0.10910  0.03768  0.33232  Biso   1.000  H
  H27      1.0000 0.10910  0.46232  0.83232  Biso   1.000  H
  H28      1.0000 0.89090  0.96232  0.66768  Biso   1.000  H
  N9       1.0000 0.79060  0.58274  0.94820  Biso   1.000  N
  N10      1.0000 0.20940  0.08274  0.55180  Biso   1.000  N
  N11      1.0000 0.20940  0.41726  0.05180  Biso   1.000  N
  N12      1.0000 0.79060  0.91726  0.44820  Biso   1.000  N
  N13      1.0000 0.41320  0.62086  0.83020  Biso   1.000  N
  N14      1.0000 0.58680  0.12086  0.66980  Biso   1.000  N
  N15      1.0000 0.58680  0.37914  0.16980  Biso   1.000  N
  N16      1.0000 0.41320  0.87914  0.33020  Biso   1.000  N
  N17      1.0000 0.39020  0.66166  0.91690  Biso   1.000  N
  N18      1.0000 0.60980  0.16166  0.58310  Biso   1.000  N
  N19      1.0000 0.60980  0.33834  0.08310  Biso   1.000  N
  N20      1.0000 0.39020  0.83834  0.41690  Biso   1.000  N
  N21      1.0000 0.24470  0.72078  0.77770  Biso   1.000  N
  N22      1.0000 0.75530  0.22078  0.72230  Biso   1.000  N
  N23      1.0000 0.75530  0.27922  0.22230  Biso   1.000  N
  N24      1.0000 0.24470  0.77922  0.27770  Biso   1.000  N
  O1       1.0000 0.34060  0.64197  0.13337  Biso   1.000  O
  O2       1.0000 0.65940  0.14197  0.36663  Biso   1.000  O
  O3       1.0000 0.65940  0.35803  0.86663  Biso   1.000  O
  O4       1.0000 0.34060  0.85803  0.63337  Biso   1.000  O
  H29      1.0000 0.33569  0.64450  0.06864  Biso   1.000  H
  H30      1.0000 0.66431  0.14450  0.43136  Biso   1.000  H
  H31      1.0000 0.66431  0.35550  0.93136  Biso   1.000  H
  H32      1.0000 0.33569  0.85550  0.56864  Biso   1.000  H
  H33      1.0000 0.34297  0.59289  0.15197  Biso   1.000  H
  H34      1.0000 0.65703  0.09289  0.34803  Biso   1.000  H
  H35      1.0000 0.65703  0.40711  0.84803  Biso   1.000  H
  H36      1.0000 0.34297  0.90711  0.65197  Biso   1.000  H
  O5       1.0000 0.91070  0.80881  0.86277  Biso   1.000  O
  O6       1.0000 0.08930  0.30881  0.63723  Biso   1.000  O
  O7       1.0000 0.08930  0.19119  0.13723  Biso   1.000  O
  O8       1.0000 0.91070  0.69119  0.36277  Biso   1.000  O
  O9       1.0000 0.10290  0.87814  0.78783  Biso   1.000  O
  O10      1.0000 0.89710  0.37814  0.71217  Biso   1.000  O
  O11      1.0000 0.89710  0.12186  0.21217  Biso   1.000  O
  O12      1.0000 0.10290  0.62186  0.28783  Biso   1.000  O
  C33      1.0000 0.96200  0.83896  0.08090  Biso   1.000  C
  C34      1.0000 0.03800  0.33896  0.41910  Biso   1.000  C
  C35      1.0000 0.03800  0.16104  0.91910  Biso   1.000  C
  C36      1.0000 0.96200  0.66104  0.58090  Biso   1.000  C
  C37      1.0000 0.97640  0.92108  0.03380  Biso   1.000  C
  C38      1.0000 0.02360  0.42108  0.46620  Biso   1.000  C
  C39      1.0000 0.02360  0.07892  0.96620  Biso   1.000  C
  C40      1.0000 0.97640  0.57892  0.53380  Biso   1.000  C
  C41      1.0000 0.96800  0.98671  0.09800  Biso   1.000  C
  C42      1.0000 0.03200  0.48671  0.40200  Biso   1.000  C
  C43      1.0000 0.03200  0.01329  0.90200  Biso   1.000  C
  C44      1.0000 0.96800  0.51329  0.59800  Biso   1.000  C
  H37      1.0000 0.94536  0.97789  0.16445  Biso   1.000  H
  H38      1.0000 0.05464  0.47789  0.33555  Biso   1.000  H
  H39      1.0000 0.05464  0.02211  0.83555  Biso   1.000  H
  H40      1.0000 0.94536  0.52211  0.66445  Biso   1.000  H
  O13      1.0000 0.08630  0.79038  0.07607  Biso   1.000  O
  O14      1.0000 0.91370  0.29038  0.42393  Biso   1.000  O
  O15      1.0000 0.91370  0.20962  0.92393  Biso   1.000  O
  O16      1.0000 0.08630  0.70962  0.57607  Biso   1.000  O
  O17      1.0000 0.83990  0.82621  0.12870  Biso   1.000  O
  O18      1.0000 0.16010  0.32621  0.37130  Biso   1.000  O
  O19      1.0000 0.16010  0.17379  0.87130  Biso   1.000  O
  O20      1.0000 0.83990  0.67379  0.62870  Biso   1.000  O
  Cu1      1.0000 0.10098  0.70359  0.17971  Biso   1.000  Cu
  Cu2      1.0000 0.89902  0.20359  0.32029  Biso   1.000  Cu
  Cu3      1.0000 0.89902  0.29641  0.82029  Biso   1.000  Cu
  Cu4      1.0000 0.10098  0.79641  0.67971  Biso   1.000  Cu
  H41      1.0000 0.24800  0.76100  0.92700  Biso   1.000  H
  H42      1.0000 0.75200  0.26100  0.57300  Biso   1.000  H
  H43      1.0000 0.75200  0.23900  0.07300  Biso   1.000  H
  H44      1.0000 0.24800  0.73900  0.42700  Biso   1.000  H
  O21      1.0000 0.62230  0.77410  0.72120  Biso   1.000  O
  O22      1.0000 0.37770  0.27410  0.77880  Biso   1.000  O
  O23      1.0000 0.37770  0.22590  0.27880  Biso   1.000  O
  O24      1.0000 0.62230  0.72590  0.22120  Biso   1.000  O
  H45      1.0000 0.55056  0.80715  0.68942  Biso   1.000  H
  H46      1.0000 0.44944  0.30715  0.81058  Biso   1.000  H
  H47      1.0000 0.44944  0.19285  0.31058  Biso   1.000  H
  H48      1.0000 0.55056  0.69285  0.18942  Biso   1.000  H
  H49      1.0000 0.68704  0.79863  0.76878  Biso   1.000  H
  H50      1.0000 0.31296  0.29863  0.73122  Biso   1.000  H
  H51      1.0000 0.31296  0.20137  0.23122  Biso   1.000  H
  H52      1.0000 0.68704  0.70137  0.26878  Biso   1.000  H
  O25      1.0000 0.52530  0.90750  0.07220  Biso   1.000  O
  O26      1.0000 0.47470  0.40750  0.42780  Biso   1.000  O
  O27      1.0000 0.47470  0.09250  0.92780  Biso   1.000  O
  O28      1.0000 0.52530  0.59250  0.57220  Biso   1.000  O
  H53      1.0000 0.62676  0.88765  0.08398  Biso   1.000  H
  H54      1.0000 0.37324  0.38765  0.41602  Biso   1.000  H
  H55      1.0000 0.37324  0.11235  0.91602  Biso   1.000  H
  H56      1.0000 0.62676  0.61235  0.58398  Biso   1.000  H
  H57      1.0000 0.48766  0.90383  0.00857  Biso   1.000  H
  H58      1.0000 0.51234  0.40383  0.49143  Biso   1.000  H
  H59      1.0000 0.51234  0.09617  0.99143  Biso   1.000  H
  H60      1.0000 0.48766  0.59617  0.50857  Biso   1.000  H
  O29      1.0000 0.45890  0.93170  0.86680  Biso   1.000  O
  O30      1.0000 0.54110  0.43170  0.63320  Biso   1.000  O
  O31      1.0000 0.54110  0.06830  0.13320  Biso   1.000  O
  O32      1.0000 0.45890  0.56830  0.36680  Biso   1.000  O
