data_image0
_cell_length_a       10.1833
_cell_length_b       19.804
_cell_length_c       14.6489
_cell_angle_alpha    90
_cell_angle_beta     109.552
_cell_angle_gamma    90

_symmetry_space_group_name_H-M    "P 1"
_symmetry_int_tables_number       1

loop_
  _symmetry_equiv_pos_as_xyz
  'x, y, z'

loop_
  _atom_site_label
  _atom_site_occupancy
  _atom_site_fract_x
  _atom_site_fract_y
  _atom_site_fract_z
  _atom_site_thermal_displace_type
  _atom_site_B_iso_or_equiv
  _atom_site_type_symbol
  Cu1      1.0000 0.00000  0.50000  0.00000  Biso   1.000  Cu
  Cu2      1.0000 0.00000  0.00000  0.50000  Biso   1.000  Cu
  Cu3      1.0000 0.01128  0.28315  0.25287  Biso   1.000  Cu
  Cu4      1.0000 0.98872  0.78315  0.24713  Biso   1.000  Cu
  Cu5      1.0000 0.98872  0.71685  0.74713  Biso   1.000  Cu
  Cu6      1.0000 0.01128  0.21685  0.75287  Biso   1.000  Cu
  O1       1.0000 0.99707  0.37115  0.15995  Biso   1.000  O
  O2       1.0000 0.00293  0.87115  0.34005  Biso   1.000  O
  O3       1.0000 0.00293  0.62885  0.84005  Biso   1.000  O
  O4       1.0000 0.99707  0.12885  0.65995  Biso   1.000  O
  O5       1.0000 0.01689  0.39750  0.01588  Biso   1.000  O
  O6       1.0000 0.98311  0.89750  0.48412  Biso   1.000  O
  O7       1.0000 0.98311  0.60250  0.98412  Biso   1.000  O
  O8       1.0000 0.01689  0.10250  0.51588  Biso   1.000  O
  N1       1.0000 0.01914  0.24251  0.12999  Biso   1.000  N
  N2       1.0000 0.98086  0.74251  0.37001  Biso   1.000  N
  N3       1.0000 0.98086  0.75749  0.87001  Biso   1.000  N
  N4       1.0000 0.01914  0.25749  0.62999  Biso   1.000  N
  O9       1.0000 0.04118  0.17264  0.28232  Biso   1.000  O
  O10      1.0000 0.95882  0.67264  0.21768  Biso   1.000  O
  O11      1.0000 0.95882  0.82736  0.71768  Biso   1.000  O
  O12      1.0000 0.04118  0.32736  0.78232  Biso   1.000  O
  O13      1.0000 0.00684  0.07503  0.20241  Biso   1.000  O
  O14      1.0000 0.99316  0.57503  0.29759  Biso   1.000  O
  O15      1.0000 0.99316  0.92497  0.79759  Biso   1.000  O
  O16      1.0000 0.00684  0.42497  0.70241  Biso   1.000  O
  C1       1.0000 0.00806  0.35634  0.07852  Biso   1.000  C
  C2       1.0000 0.99194  0.85634  0.42148  Biso   1.000  C
  C3       1.0000 0.99194  0.64366  0.92148  Biso   1.000  C
  C4       1.0000 0.00806  0.14366  0.57852  Biso   1.000  C
  C5       1.0000 0.00994  0.28265  0.05490  Biso   1.000  C
  C6       1.0000 0.99006  0.78265  0.44510  Biso   1.000  C
  C7       1.0000 0.99006  0.71735  0.94510  Biso   1.000  C
  C8       1.0000 0.00994  0.21735  0.55490  Biso   1.000  C
  C9       1.0000 0.99999  0.25864  0.96463  Biso   1.000  C
  C10      1.0000 0.00001  0.75864  0.53537  Biso   1.000  C
  C11      1.0000 0.00001  0.74136  0.03537  Biso   1.000  C
  C12      1.0000 0.99999  0.24136  0.46463  Biso   1.000  C
  H1       1.0000 0.99220  0.28850  0.91410  Biso   1.000  H
  H2       1.0000 0.00780  0.78850  0.58590  Biso   1.000  H
  H3       1.0000 0.00780  0.71150  0.08590  Biso   1.000  H
  H4       1.0000 0.99220  0.21150  0.41410  Biso   1.000  H
  C13      1.0000 0.01985  0.17561  0.11738  Biso   1.000  C
  C14      1.0000 0.98015  0.67561  0.38262  Biso   1.000  C
  C15      1.0000 0.98015  0.82439  0.88262  Biso   1.000  C
  C16      1.0000 0.01985  0.32439  0.61738  Biso   1.000  C
  C17      1.0000 0.01439  0.14660  0.03091  Biso   1.000  C
  C18      1.0000 0.98561  0.64660  0.46909  Biso   1.000  C
  C19      1.0000 0.98561  0.85340  0.96909  Biso   1.000  C
  C20      1.0000 0.01439  0.35340  0.53091  Biso   1.000  C
  H5       1.0000 0.01890  0.09990  0.02580  Biso   1.000  H
  H6       1.0000 0.98110  0.59990  0.47420  Biso   1.000  H
  H7       1.0000 0.98110  0.90010  0.97420  Biso   1.000  H
  H8       1.0000 0.01890  0.40010  0.52580  Biso   1.000  H
  C21      1.0000 0.00175  0.18817  0.94927  Biso   1.000  C
  C22      1.0000 0.99825  0.68817  0.55073  Biso   1.000  C
  C23      1.0000 0.99825  0.81183  0.05073  Biso   1.000  C
  C24      1.0000 0.00175  0.31183  0.44927  Biso   1.000  C
  C25      1.0000 0.02415  0.13746  0.20742  Biso   1.000  C
  C26      1.0000 0.97585  0.63746  0.29258  Biso   1.000  C
  C27      1.0000 0.97585  0.86254  0.79258  Biso   1.000  C
  C28      1.0000 0.02415  0.36254  0.70742  Biso   1.000  C
  O17      1.0000 0.99164  0.16229  0.86600  Biso   1.000  O
  O18      1.0000 0.00836  0.66229  0.63400  Biso   1.000  O
  O19      1.0000 0.00836  0.83771  0.13400  Biso   1.000  O
  O20      1.0000 0.99164  0.33771  0.36600  Biso   1.000  O
  N5       1.0000 0.22647  0.29880  0.31321  Biso   1.000  N
  N6       1.0000 0.77353  0.79880  0.18679  Biso   1.000  N
  N7       1.0000 0.77353  0.70120  0.68679  Biso   1.000  N
  N8       1.0000 0.22647  0.20120  0.81321  Biso   1.000  N
  N9       1.0000 0.79329  0.26863  0.20691  Biso   1.000  N
  N10      1.0000 0.20671  0.76863  0.29309  Biso   1.000  N
  N11      1.0000 0.20671  0.73137  0.79309  Biso   1.000  N
  N12      1.0000 0.79329  0.23137  0.70691  Biso   1.000  N
  N13      1.0000 0.36257  0.25030  0.07387  Biso   1.000  N
  N14      1.0000 0.63743  0.75030  0.42613  Biso   1.000  N
  N15      1.0000 0.63743  0.74970  0.92613  Biso   1.000  N
  N16      1.0000 0.36257  0.24970  0.57387  Biso   1.000  N
  H9       1.0000 0.32360  0.21130  0.06800  Biso   1.000  H
  H10      1.0000 0.67640  0.71130  0.43200  Biso   1.000  H
  H11      1.0000 0.67640  0.78870  0.93200  Biso   1.000  H
  H12      1.0000 0.32360  0.28870  0.56800  Biso   1.000  H
  H13      1.0000 0.31300  0.28560  0.05180  Biso   1.000  H
  H14      1.0000 0.68700  0.78560  0.44820  Biso   1.000  H
  H15      1.0000 0.68700  0.71440  0.94820  Biso   1.000  H
  H16      1.0000 0.31300  0.21440  0.55180  Biso   1.000  H
  C29      1.0000 0.71005  0.32222  0.17478  Biso   1.000  C
  C30      1.0000 0.28995  0.82222  0.32522  Biso   1.000  C
  C31      1.0000 0.28995  0.67778  0.82522  Biso   1.000  C
  C32      1.0000 0.71005  0.17778  0.67478  Biso   1.000  C
  H17      1.0000 0.75100  0.36480  0.18270  Biso   1.000  H
  H18      1.0000 0.24900  0.86480  0.31730  Biso   1.000  H
  H19      1.0000 0.24900  0.63520  0.81730  Biso   1.000  H
  H20      1.0000 0.75100  0.13520  0.68270  Biso   1.000  H
  C33      1.0000 0.56851  0.31826  0.13108  Biso   1.000  C
  C34      1.0000 0.43149  0.81826  0.36892  Biso   1.000  C
  C35      1.0000 0.43149  0.68174  0.86892  Biso   1.000  C
  C36      1.0000 0.56851  0.18174  0.63108  Biso   1.000  C
  H21      1.0000 0.51670  0.35740  0.11020  Biso   1.000  H
  H22      1.0000 0.48330  0.85740  0.38980  Biso   1.000  H
  H23      1.0000 0.48330  0.64260  0.88980  Biso   1.000  H
  H24      1.0000 0.51670  0.14260  0.61020  Biso   1.000  H
  C37      1.0000 0.50214  0.25613  0.11792  Biso   1.000  C
  C38      1.0000 0.49786  0.75613  0.38208  Biso   1.000  C
  C39      1.0000 0.49786  0.74387  0.88208  Biso   1.000  C
  C40      1.0000 0.50214  0.24387  0.61792  Biso   1.000  C
  C41      1.0000 0.58621  0.20079  0.15458  Biso   1.000  C
  C42      1.0000 0.41379  0.70079  0.34542  Biso   1.000  C
  C43      1.0000 0.41379  0.79921  0.84542  Biso   1.000  C
  C44      1.0000 0.58621  0.29921  0.65458  Biso   1.000  C
  H25      1.0000 0.54710  0.15790  0.14990  Biso   1.000  H
  H26      1.0000 0.45290  0.65790  0.35010  Biso   1.000  H
  H27      1.0000 0.45290  0.84210  0.85010  Biso   1.000  H
  H28      1.0000 0.54710  0.34210  0.64990  Biso   1.000  H
  C45      1.0000 0.72794  0.20921  0.19798  Biso   1.000  C
  C46      1.0000 0.27206  0.70921  0.30202  Biso   1.000  C
  C47      1.0000 0.27206  0.79079  0.80202  Biso   1.000  C
  C48      1.0000 0.72794  0.29079  0.69798  Biso   1.000  C
  H29      1.0000 0.78150  0.17110  0.22260  Biso   1.000  H
  H30      1.0000 0.21850  0.67110  0.27740  Biso   1.000  H
  H31      1.0000 0.21850  0.82890  0.77740  Biso   1.000  H
  H32      1.0000 0.78150  0.32890  0.72260  Biso   1.000  H
  N17      1.0000 0.21555  0.51093  0.06986  Biso   1.000  N
  N18      1.0000 0.78445  0.01093  0.43014  Biso   1.000  N
  N19      1.0000 0.78445  0.48907  0.93014  Biso   1.000  N
  N20      1.0000 0.21555  0.98907  0.56986  Biso   1.000  N
  O21      1.0000 0.03698  0.49453  0.86872  Biso   1.000  O
  O22      1.0000 0.96302  0.99453  0.63128  Biso   1.000  O
  O23      1.0000 0.96302  0.50547  0.13128  Biso   1.000  O
  O24      1.0000 0.03698  0.00547  0.36872  Biso   1.000  O
  H33      1.0000 0.02770  0.53340  0.84860  Biso   1.000  H
  H34      1.0000 0.97230  0.03340  0.65140  Biso   1.000  H
  H35      1.0000 0.97230  0.46660  0.15140  Biso   1.000  H
  H36      1.0000 0.02770  0.96660  0.34860  Biso   1.000  H
  H37      1.0000 0.02230  0.46720  0.82500  Biso   1.000  H
  H38      1.0000 0.97770  0.96720  0.67500  Biso   1.000  H
  H39      1.0000 0.97770  0.53280  0.17500  Biso   1.000  H
  H40      1.0000 0.02230  0.03280  0.32500  Biso   1.000  H
  N21      1.0000 0.65090  0.52634  0.18890  Biso   1.000  N
  N22      1.0000 0.34910  0.02634  0.31110  Biso   1.000  N
  N23      1.0000 0.34910  0.47366  0.81110  Biso   1.000  N
  N24      1.0000 0.65090  0.97366  0.68890  Biso   1.000  N
  H41      1.0000 0.69620  0.50340  0.23950  Biso   1.000  H
  H42      1.0000 0.30380  0.00340  0.26050  Biso   1.000  H
  H43      1.0000 0.30380  0.49660  0.76050  Biso   1.000  H
  H44      1.0000 0.69620  0.99660  0.73950  Biso   1.000  H
  H45      1.0000 0.69480  0.55250  0.16220  Biso   1.000  H
  H46      1.0000 0.30520  0.05250  0.33780  Biso   1.000  H
  H47      1.0000 0.30520  0.44750  0.83780  Biso   1.000  H
  H48      1.0000 0.69480  0.94750  0.66220  Biso   1.000  H
  C49      1.0000 0.29220  0.55017  0.02843  Biso   1.000  C
  C50      1.0000 0.70780  0.05017  0.47157  Biso   1.000  C
  C51      1.0000 0.70780  0.44983  0.97157  Biso   1.000  C
  C52      1.0000 0.29220  0.94983  0.52843  Biso   1.000  C
  H49      1.0000 0.24470  0.57210  0.97070  Biso   1.000  H
  H50      1.0000 0.75530  0.07210  0.52930  Biso   1.000  H
  H51      1.0000 0.75530  0.42790  0.02930  Biso   1.000  H
  H52      1.0000 0.24470  0.92790  0.47070  Biso   1.000  H
  C53      1.0000 0.43270  0.55900  0.06635  Biso   1.000  C
  C54      1.0000 0.56730  0.05900  0.43365  Biso   1.000  C
  C55      1.0000 0.56730  0.44100  0.93365  Biso   1.000  C
  C56      1.0000 0.43270  0.94100  0.56635  Biso   1.000  C
  H53      1.0000 0.47820  0.58890  0.03810  Biso   1.000  H
  H54      1.0000 0.52180  0.08890  0.46190  Biso   1.000  H
  H55      1.0000 0.52180  0.41110  0.96190  Biso   1.000  H
  H56      1.0000 0.47820  0.91110  0.53810  Biso   1.000  H
  C57      1.0000 0.50870  0.52117  0.15090  Biso   1.000  C
  C58      1.0000 0.49130  0.02117  0.34910  Biso   1.000  C
  C59      1.0000 0.49130  0.47883  0.84910  Biso   1.000  C
  C60      1.0000 0.50870  0.97883  0.65090  Biso   1.000  C
  C61      1.0000 0.43100  0.47913  0.19130  Biso   1.000  C
  C62      1.0000 0.56900  0.97913  0.30870  Biso   1.000  C
  C63      1.0000 0.56900  0.52087  0.80870  Biso   1.000  C
  C64      1.0000 0.43100  0.02087  0.69130  Biso   1.000  C
  H57      1.0000 0.47550  0.45450  0.24720  Biso   1.000  H
  H58      1.0000 0.52450  0.95450  0.25280  Biso   1.000  H
  H59      1.0000 0.52450  0.54550  0.75280  Biso   1.000  H
  H60      1.0000 0.47550  0.04550  0.74720  Biso   1.000  H
  C65      1.0000 0.28920  0.47474  0.14758  Biso   1.000  C
  C66      1.0000 0.71080  0.97474  0.35242  Biso   1.000  C
  C67      1.0000 0.71080  0.52526  0.85242  Biso   1.000  C
  C68      1.0000 0.28920  0.02526  0.64758  Biso   1.000  C
  H61      1.0000 0.24090  0.44470  0.17350  Biso   1.000  H
  H62      1.0000 0.75910  0.94470  0.32650  Biso   1.000  H
  H63      1.0000 0.75910  0.55530  0.82650  Biso   1.000  H
  H64      1.0000 0.24090  0.05530  0.67350  Biso   1.000  H
  C69      1.0000 0.28560  0.35183  0.35670  Biso   1.000  C
  C70      1.0000 0.71440  0.85183  0.14330  Biso   1.000  C
  C71      1.0000 0.71440  0.64817  0.64330  Biso   1.000  C
  C72      1.0000 0.28560  0.14817  0.85670  Biso   1.000  C
  H65      1.0000 0.22580  0.38680  0.35880  Biso   1.000  H
  H66      1.0000 0.77420  0.88680  0.14120  Biso   1.000  H
  H67      1.0000 0.77420  0.61320  0.64120  Biso   1.000  H
  H68      1.0000 0.22580  0.11320  0.85880  Biso   1.000  H
  C73      1.0000 0.41500  0.36410  0.39790  Biso   1.000  C
  C74      1.0000 0.58500  0.86410  0.10210  Biso   1.000  C
  C75      1.0000 0.58500  0.63590  0.60210  Biso   1.000  C
  C76      1.0000 0.41500  0.13590  0.89790  Biso   1.000  C
  H69      1.0000 0.44090  0.40560  0.42830  Biso   1.000  H
  H70      1.0000 0.55910  0.90560  0.07170  Biso   1.000  H
  H71      1.0000 0.55910  0.59440  0.57170  Biso   1.000  H
  H72      1.0000 0.44090  0.09440  0.92830  Biso   1.000  H
  C77      1.0000 0.51510  0.32000  0.39950  Biso   1.000  C
  C78      1.0000 0.48490  0.82000  0.10050  Biso   1.000  C
  C79      1.0000 0.48490  0.68000  0.60050  Biso   1.000  C
  C80      1.0000 0.51510  0.18000  0.89950  Biso   1.000  C
  C81      1.0000 0.46170  0.25740  0.35100  Biso   1.000  C
  C82      1.0000 0.53830  0.75740  0.14900  Biso   1.000  C
  C83      1.0000 0.53830  0.74260  0.64900  Biso   1.000  C
  C84      1.0000 0.46170  0.24260  0.85100  Biso   1.000  C
  H73      1.0000 0.52300  0.22390  0.34610  Biso   1.000  H
  H74      1.0000 0.47700  0.72390  0.15390  Biso   1.000  H
  H75      1.0000 0.47700  0.77610  0.65390  Biso   1.000  H
  H76      1.0000 0.52300  0.27610  0.84610  Biso   1.000  H
  C85      1.0000 0.32500  0.24738  0.31340  Biso   1.000  C
  C86      1.0000 0.67500  0.74738  0.18660  Biso   1.000  C
  C87      1.0000 0.67500  0.75262  0.68660  Biso   1.000  C
  C88      1.0000 0.32500  0.25262  0.81340  Biso   1.000  C
  H77      1.0000 0.29240  0.20560  0.28630  Biso   1.000  H
  H78      1.0000 0.70760  0.70560  0.21370  Biso   1.000  H
  H79      1.0000 0.70760  0.79440  0.71370  Biso   1.000  H
  H80      1.0000 0.29240  0.29440  0.78630  Biso   1.000  H
  N25      1.0000 0.65860  0.32940  0.43790  Biso   1.000  N
  N26      1.0000 0.34140  0.82940  0.06210  Biso   1.000  N
  N27      1.0000 0.34140  0.67060  0.56210  Biso   1.000  N
  N28      1.0000 0.65860  0.17060  0.93790  Biso   1.000  N
  H81      1.0000 0.69180  0.36730  0.46440  Biso   1.000  H
  H82      1.0000 0.30820  0.86730  0.03560  Biso   1.000  H
  H83      1.0000 0.30820  0.63270  0.53560  Biso   1.000  H
  H84      1.0000 0.69180  0.13270  0.96440  Biso   1.000  H
  H85      1.0000 0.71420  0.29740  0.43500  Biso   1.000  H
  H86      1.0000 0.28580  0.79740  0.06500  Biso   1.000  H
  H87      1.0000 0.28580  0.70260  0.56500  Biso   1.000  H
  H88      1.0000 0.71420  0.20260  0.93500  Biso   1.000  H
  C89      1.0000 0.26650  0.36320  0.36130  Biso   1.000  C
  C90      1.0000 0.73350  0.86320  0.13870  Biso   1.000  C
  C91      1.0000 0.73350  0.63680  0.63870  Biso   1.000  C
  C92      1.0000 0.26650  0.13680  0.86130  Biso   1.000  C
  H89      1.0000 0.20010  0.39240  0.36980  Biso   1.000  H
  H90      1.0000 0.79990  0.89240  0.13020  Biso   1.000  H
  H91      1.0000 0.79990  0.60760  0.63020  Biso   1.000  H
  H92      1.0000 0.20010  0.10760  0.86980  Biso   1.000  H
  C93      1.0000 0.41700  0.38117  0.39650  Biso   1.000  C
  C94      1.0000 0.58300  0.88117  0.10350  Biso   1.000  C
  C95      1.0000 0.58300  0.61883  0.60350  Biso   1.000  C
  C96      1.0000 0.41700  0.11883  0.89650  Biso   1.000  C
  H93      1.0000 0.44890  0.42200  0.42730  Biso   1.000  H
  H94      1.0000 0.55110  0.92200  0.07270  Biso   1.000  H
  H95      1.0000 0.55110  0.57800  0.57270  Biso   1.000  H
  H96      1.0000 0.44890  0.07800  0.92730  Biso   1.000  H
  C97      1.0000 0.51180  0.33090  0.37990  Biso   1.000  C
  C98      1.0000 0.48820  0.83090  0.12010  Biso   1.000  C
  C99      1.0000 0.48820  0.66910  0.62010  Biso   1.000  C
  C100     1.0000 0.51180  0.16910  0.87990  Biso   1.000  C
  C101     1.0000 0.46560  0.27350  0.33820  Biso   1.000  C
  C102     1.0000 0.53440  0.77350  0.16180  Biso   1.000  C
  C103     1.0000 0.53440  0.72650  0.66180  Biso   1.000  C
  C104     1.0000 0.46560  0.22650  0.83820  Biso   1.000  C
  H97      1.0000 0.52750  0.24050  0.33260  Biso   1.000  H
  H98      1.0000 0.47250  0.74050  0.16740  Biso   1.000  H
  H99      1.0000 0.47250  0.75950  0.66740  Biso   1.000  H
  H100     1.0000 0.52750  0.25950  0.83260  Biso   1.000  H
  C105     1.0000 0.31760  0.26175  0.30080  Biso   1.000  C
  C106     1.0000 0.68240  0.76175  0.19920  Biso   1.000  C
  C107     1.0000 0.68240  0.73825  0.69920  Biso   1.000  C
  C108     1.0000 0.31760  0.23825  0.80080  Biso   1.000  C
  H101     1.0000 0.28740  0.22290  0.26400  Biso   1.000  H
  H102     1.0000 0.71260  0.72290  0.23600  Biso   1.000  H
  H103     1.0000 0.71260  0.77710  0.73600  Biso   1.000  H
  H104     1.0000 0.28740  0.27710  0.76400  Biso   1.000  H
  N29      1.0000 0.64710  0.34590  0.41450  Biso   1.000  N
  N30      1.0000 0.35290  0.84590  0.08550  Biso   1.000  N
  N31      1.0000 0.35290  0.65410  0.58550  Biso   1.000  N
  N32      1.0000 0.64710  0.15410  0.91450  Biso   1.000  N
  H105     1.0000 0.70770  0.31710  0.40970  Biso   1.000  H
  H106     1.0000 0.29230  0.81710  0.09030  Biso   1.000  H
  H107     1.0000 0.29230  0.68290  0.59030  Biso   1.000  H
  H108     1.0000 0.70770  0.18290  0.90970  Biso   1.000  H
  H109     1.0000 0.67390  0.38430  0.44160  Biso   1.000  H
  H110     1.0000 0.32610  0.88430  0.05840  Biso   1.000  H
  H111     1.0000 0.32610  0.61570  0.55840  Biso   1.000  H
  H112     1.0000 0.67390  0.11570  0.94160  Biso   1.000  H
  N33      1.0000 0.63140  0.54400  0.20630  Biso   1.000  N
  N34      1.0000 0.36860  0.04400  0.29370  Biso   1.000  N
  N35      1.0000 0.36860  0.45600  0.79370  Biso   1.000  N
  N36      1.0000 0.63140  0.95600  0.70630  Biso   1.000  N
  H113     1.0000 0.67480  0.56960  0.17840  Biso   1.000  H
  H114     1.0000 0.32520  0.06960  0.32160  Biso   1.000  H
  H115     1.0000 0.32520  0.43040  0.82160  Biso   1.000  H
  H116     1.0000 0.67480  0.93040  0.67840  Biso   1.000  H
  H117     1.0000 0.67630  0.52470  0.26030  Biso   1.000  H
  H118     1.0000 0.32370  0.02470  0.23970  Biso   1.000  H
  H119     1.0000 0.32370  0.47530  0.73970  Biso   1.000  H
  H120     1.0000 0.67630  0.97530  0.76030  Biso   1.000  H
  C109     1.0000 0.28700  0.55480  0.04320  Biso   1.000  C
  C110     1.0000 0.71300  0.05480  0.45680  Biso   1.000  C
  C111     1.0000 0.71300  0.44520  0.95680  Biso   1.000  C
  C112     1.0000 0.28700  0.94520  0.54320  Biso   1.000  C
  H121     1.0000 0.24000  0.58290  0.99180  Biso   1.000  H
  H122     1.0000 0.76000  0.08290  0.50820  Biso   1.000  H
  H123     1.0000 0.76000  0.41710  0.00820  Biso   1.000  H
  H124     1.0000 0.24000  0.91710  0.49180  Biso   1.000  H
  C113     1.0000 0.42920  0.56360  0.08540  Biso   1.000  C
  C114     1.0000 0.57080  0.06360  0.41460  Biso   1.000  C
  C115     1.0000 0.57080  0.43640  0.91460  Biso   1.000  C
  C116     1.0000 0.42920  0.93640  0.58540  Biso   1.000  C
  H125     1.0000 0.47580  0.59080  0.05440  Biso   1.000  H
  H126     1.0000 0.52420  0.09080  0.44560  Biso   1.000  H
  H127     1.0000 0.52420  0.40920  0.94560  Biso   1.000  H
  H128     1.0000 0.47580  0.90920  0.55440  Biso   1.000  H
  C117     1.0000 0.50040  0.53480  0.16760  Biso   1.000  C
  C118     1.0000 0.49960  0.03480  0.33240  Biso   1.000  C
  C119     1.0000 0.49960  0.46520  0.83240  Biso   1.000  C
  C120     1.0000 0.50040  0.96520  0.66760  Biso   1.000  C
  C121     1.0000 0.42550  0.49400  0.20540  Biso   1.000  C
  C122     1.0000 0.57450  0.99400  0.29460  Biso   1.000  C
  C123     1.0000 0.57450  0.50600  0.79460  Biso   1.000  C
  C124     1.0000 0.42550  0.00600  0.70540  Biso   1.000  C
  H129     1.0000 0.47010  0.47010  0.26190  Biso   1.000  H
  H130     1.0000 0.52990  0.97010  0.23810  Biso   1.000  H
  H131     1.0000 0.52990  0.52990  0.73810  Biso   1.000  H
  H132     1.0000 0.47010  0.02990  0.76190  Biso   1.000  H
  C125     1.0000 0.28250  0.48760  0.16050  Biso   1.000  C
  C126     1.0000 0.71750  0.98760  0.33950  Biso   1.000  C
  C127     1.0000 0.71750  0.51240  0.83950  Biso   1.000  C
  C128     1.0000 0.28250  0.01240  0.66050  Biso   1.000  C
  H133     1.0000 0.23070  0.46650  0.19390  Biso   1.000  H
  H134     1.0000 0.76930  0.96650  0.30610  Biso   1.000  H
  H135     1.0000 0.76930  0.53350  0.80610  Biso   1.000  H
  H136     1.0000 0.23070  0.03350  0.69390  Biso   1.000  H
  O25      1.0000 0.86859  0.46553  0.35875  Biso   1.000  O
  O26      1.0000 0.13141  0.96553  0.14125  Biso   1.000  O
  O27      1.0000 0.13141  0.53447  0.64125  Biso   1.000  O
  O28      1.0000 0.86859  0.03447  0.85875  Biso   1.000  O
  H137     1.0000 0.89960  0.43150  0.34130  Biso   1.000  H
  H138     1.0000 0.10040  0.93150  0.15870  Biso   1.000  H
  H139     1.0000 0.10040  0.56850  0.65870  Biso   1.000  H
  H140     1.0000 0.89960  0.06850  0.84130  Biso   1.000  H
  H141     1.0000 0.91990  0.49600  0.35310  Biso   1.000  H
  H142     1.0000 0.08010  0.99600  0.14690  Biso   1.000  H
  H143     1.0000 0.08010  0.50400  0.64690  Biso   1.000  H
  H144     1.0000 0.91990  0.00400  0.85310  Biso   1.000  H
  O29      1.0000 0.25953  0.37509  0.94598  Biso   1.000  O
  O30      1.0000 0.74047  0.87509  0.55402  Biso   1.000  O
  O31      1.0000 0.74047  0.62491  0.05402  Biso   1.000  O
  O32      1.0000 0.25953  0.12491  0.44598  Biso   1.000  O
  H145     1.0000 0.19890  0.35800  0.90010  Biso   1.000  H
  H146     1.0000 0.80110  0.85800  0.59990  Biso   1.000  H
  H147     1.0000 0.80110  0.64200  0.09990  Biso   1.000  H
  H148     1.0000 0.19890  0.14200  0.40010  Biso   1.000  H
  H149     1.0000 0.21280  0.40230  0.96380  Biso   1.000  H
  H150     1.0000 0.78720  0.90230  0.53620  Biso   1.000  H
  H151     1.0000 0.78720  0.59770  0.03620  Biso   1.000  H
  H152     1.0000 0.21280  0.09770  0.46380  Biso   1.000  H
  O33      1.0000 0.75970  0.47597  0.51972  Biso   1.000  O
  O34      1.0000 0.24030  0.97597  0.98028  Biso   1.000  O
  O35      1.0000 0.24030  0.52403  0.48028  Biso   1.000  O
  O36      1.0000 0.75970  0.02403  0.01972  Biso   1.000  O
  H153     1.0000 0.81070  0.46010  0.57100  Biso   1.000  H
  H154     1.0000 0.18930  0.96010  0.92900  Biso   1.000  H
  H155     1.0000 0.18930  0.53990  0.42900  Biso   1.000  H
  H156     1.0000 0.81070  0.03990  0.07100  Biso   1.000  H
  H157     1.0000 0.79330  0.47480  0.47610  Biso   1.000  H
  H158     1.0000 0.20670  0.97480  0.02390  Biso   1.000  H
  H159     1.0000 0.20670  0.52520  0.52390  Biso   1.000  H
  H160     1.0000 0.79330  0.02520  0.97610  Biso   1.000  H
