data_image0
_cell_length_a       8.8996
_cell_length_b       8.8996
_cell_length_c       39.5773
_cell_angle_alpha    90
_cell_angle_beta     90
_cell_angle_gamma    120

_symmetry_space_group_name_H-M    "P 1"
_symmetry_int_tables_number       1

loop_
  _symmetry_equiv_pos_as_xyz
  'x, y, z'

loop_
  _atom_site_label
  _atom_site_occupancy
  _atom_site_fract_x
  _atom_site_fract_y
  _atom_site_fract_z
  _atom_site_thermal_displace_type
  _atom_site_B_iso_or_equiv
  _atom_site_type_symbol
  C1       1.0000 0.66970  0.23090  0.27020  Biso   1.000  C
  C2       1.0000 0.76910  0.43880  0.93687  Biso   1.000  C
  C3       1.0000 0.56120  0.33030  0.60353  Biso   1.000  C
  C4       1.0000 0.43880  0.76910  0.06313  Biso   1.000  C
  C5       1.0000 0.33030  0.56120  0.39647  Biso   1.000  C
  C6       1.0000 0.23090  0.66970  0.72980  Biso   1.000  C
  H1       1.0000 0.58800  0.19600  0.25500  Biso   1.000  H
  H2       1.0000 0.80400  0.39200  0.92167  Biso   1.000  H
  H3       1.0000 0.60800  0.41200  0.58833  Biso   1.000  H
  H4       1.0000 0.39200  0.80400  0.07833  Biso   1.000  H
  H5       1.0000 0.41200  0.60800  0.41167  Biso   1.000  H
  H6       1.0000 0.19600  0.58800  0.74500  Biso   1.000  H
  C7       1.0000 0.81550  0.21850  0.26491  Biso   1.000  C
  C8       1.0000 0.78150  0.59700  0.93158  Biso   1.000  C
  C9       1.0000 0.40300  0.18450  0.59824  Biso   1.000  C
  C10      1.0000 0.59700  0.78150  0.06842  Biso   1.000  C
  C11      1.0000 0.18450  0.40300  0.40176  Biso   1.000  C
  C12      1.0000 0.21850  0.81550  0.73509  Biso   1.000  C
  C13      1.0000 0.94710  0.27810  0.29033  Biso   1.000  C
  C14      1.0000 0.72190  0.66900  0.95700  Biso   1.000  C
  C15      1.0000 0.33100  0.05290  0.62366  Biso   1.000  C
  C16      1.0000 0.66900  0.72190  0.04300  Biso   1.000  C
  C17      1.0000 0.05290  0.33100  0.37634  Biso   1.000  C
  C18      1.0000 0.27810  0.94710  0.70967  Biso   1.000  C
  C19      1.0000 0.92940  0.34850  0.32045  Biso   1.000  C
  C20      1.0000 0.65150  0.58090  0.98712  Biso   1.000  C
  C21      1.0000 0.41910  0.07060  0.65378  Biso   1.000  C
  C22      1.0000 0.58090  0.65150  0.01288  Biso   1.000  C
  C23      1.0000 0.07060  0.41910  0.34622  Biso   1.000  C
  C24      1.0000 0.34850  0.92940  0.67955  Biso   1.000  C
  C25      1.0000 0.77560  0.35660  0.32618  Biso   1.000  C
  C26      1.0000 0.64340  0.41900  0.99285  Biso   1.000  C
  C27      1.0000 0.58100  0.22440  0.65951  Biso   1.000  C
  C28      1.0000 0.41900  0.64340  0.00715  Biso   1.000  C
  C29      1.0000 0.22440  0.58100  0.34049  Biso   1.000  C
  C30      1.0000 0.35660  0.77560  0.67382  Biso   1.000  C
  C31      1.0000 0.74500  0.42250  0.35674  Biso   1.000  C
  C32      1.0000 0.57750  0.32250  0.02341  Biso   1.000  C
  C33      1.0000 0.67750  0.25500  0.69007  Biso   1.000  C
  C34      1.0000 0.32250  0.57750  0.97659  Biso   1.000  C
  C35      1.0000 0.25500  0.67750  0.30993  Biso   1.000  C
  C36      1.0000 0.42250  0.74500  0.64326  Biso   1.000  C
  H7       1.0000 0.83400  0.47000  0.37460  Biso   1.000  H
  H8       1.0000 0.53000  0.36400  0.04127  Biso   1.000  H
  H9       1.0000 0.63600  0.16600  0.70793  Biso   1.000  H
  H10      1.0000 0.36400  0.53000  0.95873  Biso   1.000  H
  H11      1.0000 0.16600  0.63600  0.29207  Biso   1.000  H
  H12      1.0000 0.47000  0.83400  0.62540  Biso   1.000  H
  C37      1.0000 0.59510  0.42340  0.36172  Biso   1.000  C
  C38      1.0000 0.57660  0.17170  0.02839  Biso   1.000  C
  C39      1.0000 0.82830  0.40490  0.69505  Biso   1.000  C
  C40      1.0000 0.17170  0.57660  0.97161  Biso   1.000  C
  C41      1.0000 0.40490  0.82830  0.30495  Biso   1.000  C
  C42      1.0000 0.42340  0.59510  0.63828  Biso   1.000  C
  H13      1.0000 0.59200  0.48200  0.38030  Biso   1.000  H
  H14      1.0000 0.51800  0.11000  0.04697  Biso   1.000  H
  H15      1.0000 0.89000  0.40800  0.71363  Biso   1.000  H
  H16      1.0000 0.11000  0.51800  0.95303  Biso   1.000  H
  H17      1.0000 0.40800  0.89000  0.28637  Biso   1.000  H
  H18      1.0000 0.48200  0.59200  0.61970  Biso   1.000  H
  C43      1.0000 0.46320  0.36180  0.33663  Biso   1.000  C
  C44      1.0000 0.63820  0.10140  0.00330  Biso   1.000  C
  C45      1.0000 0.89860  0.53680  0.66996  Biso   1.000  C
  C46      1.0000 0.10140  0.63820  0.99670  Biso   1.000  C
  C47      1.0000 0.53680  0.89860  0.33004  Biso   1.000  C
  C48      1.0000 0.36180  0.46320  0.66337  Biso   1.000  C
  H19      1.0000 0.35400  0.36400  0.33790  Biso   1.000  H
  H20      1.0000 0.63600  0.99000  0.00457  Biso   1.000  H
  H21      1.0000 0.01000  0.64600  0.67123  Biso   1.000  H
  H22      1.0000 0.99000  0.63600  0.99543  Biso   1.000  H
  H23      1.0000 0.64600  0.01000  0.32877  Biso   1.000  H
  H24      1.0000 0.36400  0.35400  0.66210  Biso   1.000  H
  C49      1.0000 0.48970  0.30230  0.30653  Biso   1.000  C
  C50      1.0000 0.69770  0.18740  0.97320  Biso   1.000  C
  C51      1.0000 0.81260  0.51030  0.63986  Biso   1.000  C
  C52      1.0000 0.18740  0.69770  0.02680  Biso   1.000  C
  C53      1.0000 0.51030  0.81260  0.36014  Biso   1.000  C
  C54      1.0000 0.30230  0.48970  0.69347  Biso   1.000  C
  H25      1.0000 0.40100  0.26300  0.29040  Biso   1.000  H
  H26      1.0000 0.73700  0.13800  0.95707  Biso   1.000  H
  H27      1.0000 0.86200  0.59900  0.62373  Biso   1.000  H
  H28      1.0000 0.13800  0.73700  0.04293  Biso   1.000  H
  H29      1.0000 0.59900  0.86200  0.37627  Biso   1.000  H
  H30      1.0000 0.26300  0.40100  0.70960  Biso   1.000  H
  C55      1.0000 0.64420  0.29770  0.30066  Biso   1.000  C
  C56      1.0000 0.70230  0.34650  0.96733  Biso   1.000  C
  C57      1.0000 0.65350  0.35580  0.63399  Biso   1.000  C
  C58      1.0000 0.34650  0.70230  0.03267  Biso   1.000  C
  C59      1.0000 0.35580  0.65350  0.36601  Biso   1.000  C
  C60      1.0000 0.29770  0.64420  0.69934  Biso   1.000  C
  C61      1.0000 0.83390  0.14340  0.23223  Biso   1.000  C
  C62      1.0000 0.85660  0.69050  0.89890  Biso   1.000  C
  C63      1.0000 0.30950  0.16610  0.56556  Biso   1.000  C
  C64      1.0000 0.69050  0.85660  0.10110  Biso   1.000  C
  C65      1.0000 0.16610  0.30950  0.43444  Biso   1.000  C
  C66      1.0000 0.14340  0.83390  0.76777  Biso   1.000  C
  C67      1.0000 0.96730  0.36380  0.15992  Biso   1.000  C
  C68      1.0000 0.63620  0.60350  0.82659  Biso   1.000  C
  C69      1.0000 0.39650  0.03270  0.49325  Biso   1.000  C
  C70      1.0000 0.60350  0.63620  0.17341  Biso   1.000  C
  C71      1.0000 0.03270  0.39650  0.50675  Biso   1.000  C
  C72      1.0000 0.36380  0.96730  0.84008  Biso   1.000  C
  H31      1.0000 0.01410  0.33340  0.17850  Biso   1.000  H
  H32      1.0000 0.66660  0.68070  0.84517  Biso   1.000  H
  H33      1.0000 0.31930  0.98590  0.51183  Biso   1.000  H
  H34      1.0000 0.68070  0.66660  0.15483  Biso   1.000  H
  H35      1.0000 0.98590  0.31930  0.48817  Biso   1.000  H
  H36      1.0000 0.33340  0.01410  0.82150  Biso   1.000  H
  C73      1.0000 0.05900  0.53260  0.14755  Biso   1.000  C
  C74      1.0000 0.46740  0.52640  0.81422  Biso   1.000  C
  C75      1.0000 0.47360  0.94100  0.48088  Biso   1.000  C
  C76      1.0000 0.52640  0.46740  0.18578  Biso   1.000  C
  C77      1.0000 0.94100  0.47360  0.51912  Biso   1.000  C
  C78      1.0000 0.53260  0.05900  0.85245  Biso   1.000  C
  H37      1.0000 0.16820  0.61400  0.15690  Biso   1.000  H
  H38      1.0000 0.38600  0.55420  0.82357  Biso   1.000  H
  H39      1.0000 0.44580  0.83180  0.49023  Biso   1.000  H
  H40      1.0000 0.55420  0.38600  0.17643  Biso   1.000  H
  H41      1.0000 0.83180  0.44580  0.50977  Biso   1.000  H
  H42      1.0000 0.61400  0.16820  0.84310  Biso   1.000  H
  C79      1.0000 0.98850  0.57950  0.12144  Biso   1.000  C
  C80      1.0000 0.42050  0.40900  0.78811  Biso   1.000  C
  C81      1.0000 0.59100  0.01150  0.45477  Biso   1.000  C
  C82      1.0000 0.40900  0.42050  0.21189  Biso   1.000  C
  C83      1.0000 0.01150  0.59100  0.54523  Biso   1.000  C
  C84      1.0000 0.57950  0.98850  0.87856  Biso   1.000  C
  H43      1.0000 0.04570  0.69510  0.11310  Biso   1.000  H
  H44      1.0000 0.30490  0.35060  0.77977  Biso   1.000  H
  H45      1.0000 0.64940  0.95430  0.44643  Biso   1.000  H
  H46      1.0000 0.35060  0.30490  0.22023  Biso   1.000  H
  H47      1.0000 0.95430  0.64940  0.55357  Biso   1.000  H
  H48      1.0000 0.69510  0.04570  0.88690  Biso   1.000  H
  C85      1.0000 0.83160  0.45400  0.10740  Biso   1.000  C
  C86      1.0000 0.54600  0.37760  0.77407  Biso   1.000  C
  C87      1.0000 0.62240  0.16840  0.44073  Biso   1.000  C
  C88      1.0000 0.37760  0.54600  0.22593  Biso   1.000  C
  C89      1.0000 0.16840  0.62240  0.55927  Biso   1.000  C
  C90      1.0000 0.45400  0.83160  0.89260  Biso   1.000  C
  H49      1.0000 0.78160  0.48180  0.08890  Biso   1.000  H
  H50      1.0000 0.51820  0.29980  0.75557  Biso   1.000  H
  H51      1.0000 0.70020  0.21840  0.42223  Biso   1.000  H
  H52      1.0000 0.29980  0.51820  0.24443  Biso   1.000  H
  H53      1.0000 0.21840  0.70020  0.57777  Biso   1.000  H
  H54      1.0000 0.48180  0.78160  0.91110  Biso   1.000  H
  C91      1.0000 0.75010  0.28840  0.12083  Biso   1.000  C
  C92      1.0000 0.71160  0.46170  0.78750  Biso   1.000  C
  C93      1.0000 0.53830  0.24990  0.45416  Biso   1.000  C
  C94      1.0000 0.46170  0.71160  0.21250  Biso   1.000  C
  C95      1.0000 0.24990  0.53830  0.54584  Biso   1.000  C
  C96      1.0000 0.28840  0.75010  0.87917  Biso   1.000  C
  H55      1.0000 0.64290  0.20340  0.11130  Biso   1.000  H
  H56      1.0000 0.79660  0.43950  0.77797  Biso   1.000  H
  H57      1.0000 0.56050  0.35710  0.44463  Biso   1.000  H
  H58      1.0000 0.43950  0.79660  0.22203  Biso   1.000  H
  H59      1.0000 0.35710  0.56050  0.55537  Biso   1.000  H
  H60      1.0000 0.20340  0.64290  0.88870  Biso   1.000  H
  O1       1.0000 0.09230  0.26770  0.28527  Biso   1.000  O
  O2       1.0000 0.73230  0.82460  0.95194  Biso   1.000  O
  O3       1.0000 0.17540  0.90770  0.61860  Biso   1.000  O
  O4       1.0000 0.82460  0.73230  0.04806  Biso   1.000  O
  O5       1.0000 0.90770  0.17540  0.38140  Biso   1.000  O
  O6       1.0000 0.26770  0.09230  0.71473  Biso   1.000  O
  H61      1.0000 0.08390  0.21700  0.26690  Biso   1.000  H
  H62      1.0000 0.78300  0.86690  0.93357  Biso   1.000  H
  H63      1.0000 0.13310  0.91610  0.60023  Biso   1.000  H
  H64      1.0000 0.86690  0.78300  0.06643  Biso   1.000  H
  H65      1.0000 0.91610  0.13310  0.39977  Biso   1.000  H
  H66      1.0000 0.21700  0.08390  0.73310  Biso   1.000  H
  O7       1.0000 0.96730  0.13170  0.22695  Biso   1.000  O
  O8       1.0000 0.86830  0.83560  0.89362  Biso   1.000  O
  O9       1.0000 0.16440  0.03270  0.56028  Biso   1.000  O
  O10      1.0000 0.83560  0.86830  0.10638  Biso   1.000  O
  O11      1.0000 0.03270  0.16440  0.43972  Biso   1.000  O
  O12      1.0000 0.13170  0.96730  0.77305  Biso   1.000  O
  O13      1.0000 0.71020  0.09780  0.21141  Biso   1.000  O
  O14      1.0000 0.90220  0.61240  0.87808  Biso   1.000  O
  O15      1.0000 0.38760  0.28980  0.54474  Biso   1.000  O
  O16      1.0000 0.61240  0.90220  0.12192  Biso   1.000  O
  O17      1.0000 0.28980  0.38760  0.45526  Biso   1.000  O
  O18      1.0000 0.09780  0.71020  0.78859  Biso   1.000  O
  O19      1.0000 0.41170  0.00000  0.16670  Biso   1.000  O
  O20      1.0000 0.00000  0.41170  0.83337  Biso   1.000  O
  O21      1.0000 0.58830  0.58830  0.50003  Biso   1.000  O
  H67      1.0000 0.37400  0.00600  0.14790  Biso   1.000  H
  H68      1.0000 0.99400  0.36800  0.81457  Biso   1.000  H
  H69      1.0000 0.63200  0.62600  0.48123  Biso   1.000  H
  H70      1.0000 0.36800  0.99400  0.18543  Biso   1.000  H
  H71      1.0000 0.62600  0.63200  0.51877  Biso   1.000  H
  H72      1.0000 0.00600  0.37400  0.85210  Biso   1.000  H
  N1       1.0000 0.81650  0.24260  0.14691  Biso   1.000  N
  N2       1.0000 0.75740  0.57390  0.81358  Biso   1.000  N
  N3       1.0000 0.42610  0.18350  0.48024  Biso   1.000  N
  N4       1.0000 0.57390  0.75740  0.18642  Biso   1.000  N
  N5       1.0000 0.18350  0.42610  0.51976  Biso   1.000  N
  N6       1.0000 0.24260  0.81650  0.85309  Biso   1.000  N
  Cu1      1.0000 0.67573  0.00000  0.16670  Biso   1.000  Cu
  Cu2      1.0000 0.00000  0.67573  0.83337  Biso   1.000  Cu
  Cu3      1.0000 0.32427  0.32427  0.50003  Biso   1.000  Cu
  C97      1.0000 0.21520  0.06750  0.08081  Biso   1.000  C
  C98      1.0000 0.93250  0.14770  0.74748  Biso   1.000  C
  C99      1.0000 0.85230  0.78480  0.41414  Biso   1.000  C
  C100     1.0000 0.14770  0.93250  0.25252  Biso   1.000  C
  C101     1.0000 0.78480  0.85230  0.58586  Biso   1.000  C
  C102     1.0000 0.06750  0.21520  0.91919  Biso   1.000  C
  H73      1.0000 0.14850  0.98150  0.06450  Biso   1.000  H
  H74      1.0000 0.01850  0.16700  0.73117  Biso   1.000  H
  H75      1.0000 0.83300  0.85150  0.39783  Biso   1.000  H
  H76      1.0000 0.16700  0.01850  0.26883  Biso   1.000  H
  H77      1.0000 0.85150  0.83300  0.60217  Biso   1.000  H
  H78      1.0000 0.98150  0.14850  0.93550  Biso   1.000  H
  C103     1.0000 0.08760  0.23910  0.05980  Biso   1.000  C
  C104     1.0000 0.76090  0.84850  0.72647  Biso   1.000  C
  C105     1.0000 0.15150  0.91240  0.39313  Biso   1.000  C
  C106     1.0000 0.84850  0.76090  0.27353  Biso   1.000  C
  C107     1.0000 0.91240  0.15150  0.60687  Biso   1.000  C
  C108     1.0000 0.23910  0.08760  0.94020  Biso   1.000  C
  H79      1.0000 0.04100  0.15880  0.04070  Biso   1.000  H
  H80      1.0000 0.84120  0.88220  0.70737  Biso   1.000  H
  H81      1.0000 0.11780  0.95900  0.37403  Biso   1.000  H
  H82      1.0000 0.88220  0.84120  0.29263  Biso   1.000  H
  H83      1.0000 0.95900  0.11780  0.62597  Biso   1.000  H
  H84      1.0000 0.15880  0.04100  0.95930  Biso   1.000  H
  H85      1.0000 0.15290  0.35850  0.05140  Biso   1.000  H
  H86      1.0000 0.64150  0.79440  0.71807  Biso   1.000  H
  H87      1.0000 0.20560  0.84710  0.38473  Biso   1.000  H
  H88      1.0000 0.79440  0.64150  0.28193  Biso   1.000  H
  H89      1.0000 0.84710  0.20560  0.61527  Biso   1.000  H
  H90      1.0000 0.35850  0.15290  0.94860  Biso   1.000  H
  H91      1.0000 0.99180  0.22600  0.07410  Biso   1.000  H
  H92      1.0000 0.77400  0.76580  0.74077  Biso   1.000  H
  H93      1.0000 0.23420  0.00820  0.40743  Biso   1.000  H
  H94      1.0000 0.76580  0.77400  0.25923  Biso   1.000  H
  H95      1.0000 0.00820  0.23420  0.59257  Biso   1.000  H
  H96      1.0000 0.22600  0.99180  0.92590  Biso   1.000  H
  C109     1.0000 0.30270  0.33760  0.10800  Biso   1.000  C
  C110     1.0000 0.66240  0.96510  0.77467  Biso   1.000  C
  C111     1.0000 0.03490  0.69730  0.44133  Biso   1.000  C
  C112     1.0000 0.96510  0.66240  0.22533  Biso   1.000  C
  C113     1.0000 0.69730  0.03490  0.55867  Biso   1.000  C
  C114     1.0000 0.33760  0.30270  0.89200  Biso   1.000  C
  H97      1.0000 0.25440  0.41410  0.11150  Biso   1.000  H
  H98      1.0000 0.58590  0.84030  0.77817  Biso   1.000  H
  H99      1.0000 0.15970  0.74560  0.44483  Biso   1.000  H
  H100     1.0000 0.84030  0.58590  0.22183  Biso   1.000  H
  H101     1.0000 0.74560  0.15970  0.55517  Biso   1.000  H
  H102     1.0000 0.41410  0.25440  0.88850  Biso   1.000  H
  H103     1.0000 0.42500  0.40700  0.10150  Biso   1.000  H
  H104     1.0000 0.59300  0.01800  0.76817  Biso   1.000  H
  H105     1.0000 0.98200  0.57500  0.43483  Biso   1.000  H
  H106     1.0000 0.01800  0.59300  0.23183  Biso   1.000  H
  H107     1.0000 0.57500  0.98200  0.56517  Biso   1.000  H
  H108     1.0000 0.40700  0.42500  0.89850  Biso   1.000  H
  H109     1.0000 0.29310  0.27490  0.12900  Biso   1.000  H
  H110     1.0000 0.72510  0.01820  0.79567  Biso   1.000  H
  H111     1.0000 0.98180  0.70690  0.46233  Biso   1.000  H
  H112     1.0000 0.01820  0.72510  0.20433  Biso   1.000  H
  H113     1.0000 0.70690  0.98180  0.53767  Biso   1.000  H
  H114     1.0000 0.27490  0.29310  0.87100  Biso   1.000  H
  O22      1.0000 0.29520  0.02740  0.09839  Biso   1.000  O
  O23      1.0000 0.97260  0.26780  0.76506  Biso   1.000  O
  O24      1.0000 0.73220  0.70480  0.43172  Biso   1.000  O
  O25      1.0000 0.26780  0.97260  0.23494  Biso   1.000  O
  O26      1.0000 0.70480  0.73220  0.56828  Biso   1.000  O
  O27      1.0000 0.02740  0.29520  0.90161  Biso   1.000  O
  N7       1.0000 0.19780  0.20200  0.07876  Biso   1.000  N
  N8       1.0000 0.79800  0.99580  0.74543  Biso   1.000  N
  N9       1.0000 0.00420  0.80220  0.41209  Biso   1.000  N
  N10      1.0000 0.99580  0.79800  0.25457  Biso   1.000  N
  N11      1.0000 0.80220  0.00420  0.58791  Biso   1.000  N
  N12      1.0000 0.20200  0.19780  0.92124  Biso   1.000  N
  O28      1.0000 0.05270  0.00000  0.16670  Biso   1.000  O
  O29      1.0000 0.00000  0.05270  0.83337  Biso   1.000  O
  O30      1.0000 0.94730  0.94730  0.50003  Biso   1.000  O
  H115     1.0000 0.98910  0.92430  0.15220  Biso   1.000  H
  H116     1.0000 0.07570  0.06480  0.81887  Biso   1.000  H
  H117     1.0000 0.93520  0.01090  0.48553  Biso   1.000  H
  H118     1.0000 0.06480  0.07570  0.18113  Biso   1.000  H
  H119     1.0000 0.01090  0.93520  0.51447  Biso   1.000  H
  H120     1.0000 0.92430  0.98910  0.84780  Biso   1.000  H
