data_image0
_cell_length_a       8.9898
_cell_length_b       8.9898
_cell_length_c       39.636
_cell_angle_alpha    90
_cell_angle_beta     90
_cell_angle_gamma    120

_symmetry_space_group_name_H-M    "P 1"
_symmetry_int_tables_number       1

loop_
  _symmetry_equiv_pos_as_xyz
  'x, y, z'

loop_
  _atom_site_label
  _atom_site_occupancy
  _atom_site_fract_x
  _atom_site_fract_y
  _atom_site_fract_z
  _atom_site_thermal_displace_type
  _atom_site_B_iso_or_equiv
  _atom_site_type_symbol
  Cu1      1.0000 0.30596  0.00000  0.66667  Biso   1.000  Cu
  Cu2      1.0000 0.00000  0.30596  0.33334  Biso   1.000  Cu
  Cu3      1.0000 0.69404  0.69404  0.00000  Biso   1.000  Cu
  O1       1.0000 0.90520  0.73220  0.78587  Biso   1.000  O
  O2       1.0000 0.26780  0.17300  0.45254  Biso   1.000  O
  O3       1.0000 0.82700  0.09480  0.11920  Biso   1.000  O
  O4       1.0000 0.73220  0.90520  0.21413  Biso   1.000  O
  O5       1.0000 0.17300  0.26780  0.54746  Biso   1.000  O
  O6       1.0000 0.09480  0.82700  0.88080  Biso   1.000  O
  H1       1.0000 0.89329  0.74374  0.76571  Biso   1.000  H
  H2       1.0000 0.25626  0.14955  0.43238  Biso   1.000  H
  H3       1.0000 0.85045  0.10671  0.09904  Biso   1.000  H
  H4       1.0000 0.74374  0.89329  0.23429  Biso   1.000  H
  H5       1.0000 0.14955  0.25626  0.56762  Biso   1.000  H
  H6       1.0000 0.10671  0.85045  0.90096  Biso   1.000  H
  O7       1.0000 0.27740  0.90550  0.71150  Biso   1.000  O
  O8       1.0000 0.09450  0.37190  0.37817  Biso   1.000  O
  O9       1.0000 0.62810  0.72260  0.04483  Biso   1.000  O
  O10      1.0000 0.90550  0.27740  0.28850  Biso   1.000  O
  O11      1.0000 0.37190  0.09450  0.62183  Biso   1.000  O
  O12      1.0000 0.72260  0.62810  0.95517  Biso   1.000  O
  O13      1.0000 0.02340  0.86630  0.72818  Biso   1.000  O
  O14      1.0000 0.13370  0.15710  0.39485  Biso   1.000  O
  O15      1.0000 0.84290  0.97660  0.06151  Biso   1.000  O
  O16      1.0000 0.86630  0.02340  0.27182  Biso   1.000  O
  O17      1.0000 0.15710  0.13370  0.60515  Biso   1.000  O
  O18      1.0000 0.97660  0.84290  0.93849  Biso   1.000  O
  C1       1.0000 0.06910  0.65450  0.82036  Biso   1.000  C
  C2       1.0000 0.34550  0.41460  0.48703  Biso   1.000  C
  C3       1.0000 0.58540  0.93090  0.15369  Biso   1.000  C
  C4       1.0000 0.65450  0.06910  0.17964  Biso   1.000  C
  C5       1.0000 0.41460  0.34550  0.51297  Biso   1.000  C
  C6       1.0000 0.93090  0.58540  0.84631  Biso   1.000  C
  N1       1.0000 0.41820  0.24130  0.68633  Biso   1.000  N
  N2       1.0000 0.75870  0.17690  0.35300  Biso   1.000  N
  N3       1.0000 0.82310  0.58180  0.01966  Biso   1.000  N
  N4       1.0000 0.24130  0.41820  0.31367  Biso   1.000  N
  N5       1.0000 0.17690  0.75870  0.64700  Biso   1.000  N
  N6       1.0000 0.58180  0.82310  0.98034  Biso   1.000  N
  C7       1.0000 0.04950  0.72370  0.79063  Biso   1.000  C
  C8       1.0000 0.27630  0.32580  0.45730  Biso   1.000  C
  C9       1.0000 0.67420  0.95050  0.12396  Biso   1.000  C
  C10      1.0000 0.72370  0.04950  0.20937  Biso   1.000  C
  C11      1.0000 0.32580  0.27630  0.54270  Biso   1.000  C
  C12      1.0000 0.95050  0.67420  0.87604  Biso   1.000  C
  C13      1.0000 0.17890  0.78420  0.76504  Biso   1.000  C
  C14      1.0000 0.21580  0.39470  0.43171  Biso   1.000  C
  C15      1.0000 0.60530  0.82110  0.09837  Biso   1.000  C
  C16      1.0000 0.78420  0.17890  0.23496  Biso   1.000  C
  C17      1.0000 0.39470  0.21580  0.56829  Biso   1.000  C
  C18      1.0000 0.82110  0.60530  0.90163  Biso   1.000  C
  C19      1.0000 0.32460  0.77410  0.76994  Biso   1.000  C
  C20      1.0000 0.22590  0.55050  0.43661  Biso   1.000  C
  C21      1.0000 0.44950  0.67540  0.10327  Biso   1.000  C
  C22      1.0000 0.77410  0.32460  0.23006  Biso   1.000  C
  C23      1.0000 0.55050  0.22590  0.56339  Biso   1.000  C
  C24      1.0000 0.67540  0.44950  0.89673  Biso   1.000  C
  H7       1.0000 0.40808  0.81315  0.75317  Biso   1.000  H
  H8       1.0000 0.18685  0.59493  0.41984  Biso   1.000  H
  H9       1.0000 0.40507  0.59192  0.08650  Biso   1.000  H
  H10      1.0000 0.81315  0.40808  0.24683  Biso   1.000  H
  H11      1.0000 0.59493  0.18685  0.58016  Biso   1.000  H
  H12      1.0000 0.59192  0.40507  0.91350  Biso   1.000  H
  C25      1.0000 0.25300  0.58090  0.85573  Biso   1.000  C
  C26      1.0000 0.41910  0.67210  0.52240  Biso   1.000  C
  C27      1.0000 0.32790  0.74700  0.18906  Biso   1.000  C
  C28      1.0000 0.58090  0.25300  0.14427  Biso   1.000  C
  C29      1.0000 0.67210  0.41910  0.47760  Biso   1.000  C
  C30      1.0000 0.74700  0.32790  0.81094  Biso   1.000  C
  H13      1.0000 0.17020  0.53841  0.87263  Biso   1.000  H
  H14      1.0000 0.46159  0.63179  0.53930  Biso   1.000  H
  H15      1.0000 0.36821  0.82980  0.20596  Biso   1.000  H
  H16      1.0000 0.53841  0.17020  0.12737  Biso   1.000  H
  H17      1.0000 0.63179  0.46159  0.46070  Biso   1.000  H
  H18      1.0000 0.82980  0.36821  0.79404  Biso   1.000  H
  C31      1.0000 0.22250  0.64710  0.82551  Biso   1.000  C
  C32      1.0000 0.35290  0.57540  0.49218  Biso   1.000  C
  C33      1.0000 0.42460  0.77750  0.15884  Biso   1.000  C
  C34      1.0000 0.64710  0.22250  0.17449  Biso   1.000  C
  C35      1.0000 0.57540  0.35290  0.50782  Biso   1.000  C
  C36      1.0000 0.77750  0.42460  0.84116  Biso   1.000  C
  C37      1.0000 0.15570  0.85700  0.73269  Biso   1.000  C
  C38      1.0000 0.14300  0.29870  0.39936  Biso   1.000  C
  C39      1.0000 0.70130  0.84430  0.06602  Biso   1.000  C
  C40      1.0000 0.85700  0.15570  0.26731  Biso   1.000  C
  C41      1.0000 0.29870  0.14300  0.60064  Biso   1.000  C
  C42      1.0000 0.84430  0.70130  0.93398  Biso   1.000  C
  C43      1.0000 0.35000  0.70580  0.79988  Biso   1.000  C
  C44      1.0000 0.29420  0.64420  0.46655  Biso   1.000  C
  C45      1.0000 0.35580  0.65000  0.13321  Biso   1.000  C
  C46      1.0000 0.70580  0.35000  0.20012  Biso   1.000  C
  C47      1.0000 0.64420  0.29420  0.53345  Biso   1.000  C
  C48      1.0000 0.65000  0.35580  0.86679  Biso   1.000  C
  C49      1.0000 0.50280  0.69950  0.80528  Biso   1.000  C
  C50      1.0000 0.30050  0.80330  0.47195  Biso   1.000  C
  C51      1.0000 0.19670  0.49720  0.13861  Biso   1.000  C
  C52      1.0000 0.69950  0.50280  0.19472  Biso   1.000  C
  C53      1.0000 0.80330  0.30050  0.52805  Biso   1.000  C
  C54      1.0000 0.49720  0.19670  0.86139  Biso   1.000  C
  H19      1.0000 0.58603  0.73758  0.78846  Biso   1.000  H
  H20      1.0000 0.26242  0.84845  0.45513  Biso   1.000  H
  H21      1.0000 0.15155  0.41397  0.12179  Biso   1.000  H
  H22      1.0000 0.73758  0.58603  0.21154  Biso   1.000  H
  H23      1.0000 0.84845  0.26242  0.54487  Biso   1.000  H
  H24      1.0000 0.41397  0.15155  0.87821  Biso   1.000  H
  C55      1.0000 0.52910  0.63840  0.83476  Biso   1.000  C
  C56      1.0000 0.36160  0.89070  0.50143  Biso   1.000  C
  C57      1.0000 0.10930  0.47090  0.16809  Biso   1.000  C
  C58      1.0000 0.63840  0.52910  0.16524  Biso   1.000  C
  C59      1.0000 0.89070  0.36160  0.49857  Biso   1.000  C
  C60      1.0000 0.47090  0.10930  0.83191  Biso   1.000  C
  H25      1.0000 0.63014  0.63587  0.83817  Biso   1.000  H
  H26      1.0000 0.36413  0.99427  0.50484  Biso   1.000  H
  H27      1.0000 0.00573  0.36986  0.17150  Biso   1.000  H
  H28      1.0000 0.63587  0.63014  0.16183  Biso   1.000  H
  H29      1.0000 0.99427  0.36413  0.49516  Biso   1.000  H
  H30      1.0000 0.36986  0.00573  0.82850  Biso   1.000  H
  C61      1.0000 0.39330  0.36460  0.67304  Biso   1.000  C
  C62      1.0000 0.63540  0.02870  0.33971  Biso   1.000  C
  C63      1.0000 0.97130  0.60670  0.00637  Biso   1.000  C
  C64      1.0000 0.36460  0.39330  0.32696  Biso   1.000  C
  C65      1.0000 0.02870  0.63540  0.66029  Biso   1.000  C
  C66      1.0000 0.60670  0.97130  0.99363  Biso   1.000  C
  H31      1.0000 0.31851  0.33740  0.65490  Biso   1.000  H
  H32      1.0000 0.66260  0.98111  0.32157  Biso   1.000  H
  H33      1.0000 0.01889  0.68149  0.98823  Biso   1.000  H
  H34      1.0000 0.33740  0.31851  0.34510  Biso   1.000  H
  H35      1.0000 0.98111  0.66260  0.67843  Biso   1.000  H
  H36      1.0000 0.68149  0.01889  0.01177  Biso   1.000  H
  C67      1.0000 0.40210  0.57900  0.86010  Biso   1.000  C
  C68      1.0000 0.42100  0.82310  0.52677  Biso   1.000  C
  C69      1.0000 0.17690  0.59790  0.19343  Biso   1.000  C
  C70      1.0000 0.57900  0.40210  0.13990  Biso   1.000  C
  C71      1.0000 0.82310  0.42100  0.47323  Biso   1.000  C
  C72      1.0000 0.59790  0.17690  0.80657  Biso   1.000  C
  H37      1.0000 0.42065  0.53775  0.88024  Biso   1.000  H
  H38      1.0000 0.46225  0.88290  0.54691  Biso   1.000  H
  H39      1.0000 0.11710  0.57935  0.21357  Biso   1.000  H
  H40      1.0000 0.53775  0.42065  0.11976  Biso   1.000  H
  H41      1.0000 0.88290  0.46225  0.45309  Biso   1.000  H
  H42      1.0000 0.57935  0.11710  0.78643  Biso   1.000  H
  C73      1.0000 0.52670  0.28570  0.71212  Biso   1.000  C
  C74      1.0000 0.71430  0.24100  0.37879  Biso   1.000  C
  C75      1.0000 0.75900  0.47330  0.04545  Biso   1.000  C
  C76      1.0000 0.28570  0.52670  0.28788  Biso   1.000  C
  C77      1.0000 0.24100  0.71430  0.62121  Biso   1.000  C
  C78      1.0000 0.47330  0.75900  0.95455  Biso   1.000  C
  H43      1.0000 0.54449  0.20176  0.72186  Biso   1.000  H
  H44      1.0000 0.79824  0.34273  0.38853  Biso   1.000  H
  H45      1.0000 0.65727  0.45551  0.05519  Biso   1.000  H
  H46      1.0000 0.20176  0.54449  0.27814  Biso   1.000  H
  H47      1.0000 0.34273  0.79824  0.61147  Biso   1.000  H
  H48      1.0000 0.45551  0.65727  0.94481  Biso   1.000  H
  C79      1.0000 0.47540  0.53040  0.68543  Biso   1.000  C
  C80      1.0000 0.46960  0.94500  0.35210  Biso   1.000  C
  C81      1.0000 0.05500  0.52460  0.01876  Biso   1.000  C
  C82      1.0000 0.53040  0.47540  0.31457  Biso   1.000  C
  C83      1.0000 0.94500  0.46960  0.64790  Biso   1.000  C
  C84      1.0000 0.52460  0.05500  0.98124  Biso   1.000  C
  H49      1.0000 0.45420  0.61226  0.67573  Biso   1.000  H
  H50      1.0000 0.38774  0.84194  0.34240  Biso   1.000  H
  H51      1.0000 0.15806  0.54580  0.00906  Biso   1.000  H
  H52      1.0000 0.61226  0.45420  0.32427  Biso   1.000  H
  H53      1.0000 0.84194  0.38774  0.65760  Biso   1.000  H
  H54      1.0000 0.54580  0.15806  0.99094  Biso   1.000  H
  C85      1.0000 0.58470  0.57390  0.71119  Biso   1.000  C
  C86      1.0000 0.42610  0.01080  0.37786  Biso   1.000  C
  C87      1.0000 0.98920  0.41530  0.04452  Biso   1.000  C
  C88      1.0000 0.57390  0.58470  0.28881  Biso   1.000  C
  C89      1.0000 0.01080  0.42610  0.62214  Biso   1.000  C
  C90      1.0000 0.41530  0.98920  0.95548  Biso   1.000  C
  H55      1.0000 0.63994  0.68544  0.71960  Biso   1.000  H
  H56      1.0000 0.31456  0.95450  0.38627  Biso   1.000  H
  H57      1.0000 0.04550  0.36006  0.05293  Biso   1.000  H
  H58      1.0000 0.68544  0.63994  0.28040  Biso   1.000  H
  H59      1.0000 0.95450  0.31456  0.61373  Biso   1.000  H
  H60      1.0000 0.36006  0.04550  0.94707  Biso   1.000  H
  C91      1.0000 0.61450  0.45010  0.72521  Biso   1.000  C
  C92      1.0000 0.54990  0.16440  0.39188  Biso   1.000  C
  C93      1.0000 0.83560  0.38550  0.05854  Biso   1.000  C
  C94      1.0000 0.45010  0.61450  0.27479  Biso   1.000  C
  C95      1.0000 0.16440  0.54990  0.60812  Biso   1.000  C
  C96      1.0000 0.38550  0.83560  0.94146  Biso   1.000  C
  H61      1.0000 0.69146  0.47684  0.74295  Biso   1.000  H
  H62      1.0000 0.52316  0.21462  0.40962  Biso   1.000  H
  H63      1.0000 0.78538  0.30854  0.07628  Biso   1.000  H
  H64      1.0000 0.47684  0.69146  0.25705  Biso   1.000  H
  H65      1.0000 0.21462  0.52316  0.59038  Biso   1.000  H
  H66      1.0000 0.30854  0.78538  0.92372  Biso   1.000  H
  O19      1.0000 0.57390  0.00000  0.66667  Biso   1.000  O
  O20      1.0000 0.00000  0.57390  0.33334  Biso   1.000  O
  O21      1.0000 0.42610  0.42610  0.00000  Biso   1.000  O
  H67      1.0000 0.61279  0.98964  0.64640  Biso   1.000  H
  H68      1.0000 0.01036  0.62315  0.31307  Biso   1.000  H
  H69      1.0000 0.37685  0.38721  0.97973  Biso   1.000  H
  H70      1.0000 0.98964  0.61279  0.35360  Biso   1.000  H
  H71      1.0000 0.62315  0.01036  0.68693  Biso   1.000  H
  H72      1.0000 0.38721  0.37685  0.02027  Biso   1.000  H
  N7       1.0000 0.79620  0.79880  0.57773  Biso   1.000  N
  N8       1.0000 0.20120  0.99740  0.24440  Biso   1.000  N
  N9       1.0000 0.00260  0.20380  0.91106  Biso   1.000  N
  N10      1.0000 0.79880  0.79620  0.42227  Biso   1.000  N
  N11      1.0000 0.99740  0.20120  0.75560  Biso   1.000  N
  N12      1.0000 0.20380  0.00260  0.08894  Biso   1.000  N
  O22      1.0000 0.70450  0.96670  0.59924  Biso   1.000  O
  O23      1.0000 0.03330  0.73780  0.26591  Biso   1.000  O
  O24      1.0000 0.26220  0.29550  0.93257  Biso   1.000  O
  O25      1.0000 0.96670  0.70450  0.40076  Biso   1.000  O
  O26      1.0000 0.73780  0.03330  0.73409  Biso   1.000  O
  O27      1.0000 0.29550  0.26220  0.06743  Biso   1.000  O
  C97      1.0000 0.78050  0.92980  0.58060  Biso   1.000  C
  C98      1.0000 0.07020  0.85070  0.24727  Biso   1.000  C
  C99      1.0000 0.14930  0.21950  0.91393  Biso   1.000  C
  C100     1.0000 0.92980  0.78050  0.41940  Biso   1.000  C
  C101     1.0000 0.85070  0.07020  0.75273  Biso   1.000  C
  C102     1.0000 0.21950  0.14930  0.08607  Biso   1.000  C
  H73      1.0000 0.84214  0.01401  0.56457  Biso   1.000  H
  H74      1.0000 0.98599  0.82813  0.23124  Biso   1.000  H
  H75      1.0000 0.17187  0.15786  0.89790  Biso   1.000  H
  H76      1.0000 0.01401  0.84214  0.43543  Biso   1.000  H
  H77      1.0000 0.82813  0.98599  0.76876  Biso   1.000  H
  H78      1.0000 0.15786  0.17187  0.10210  Biso   1.000  H
  C103     1.0000 0.89580  0.77790  0.55220  Biso   1.000  C
  C104     1.0000 0.22210  0.11790  0.21887  Biso   1.000  C
  C105     1.0000 0.88210  0.10420  0.88553  Biso   1.000  C
  C106     1.0000 0.77790  0.89580  0.44780  Biso   1.000  C
  C107     1.0000 0.11790  0.22210  0.78113  Biso   1.000  C
  C108     1.0000 0.10420  0.88210  0.11447  Biso   1.000  C
  H79      1.0000 0.88909  0.66863  0.55497  Biso   1.000  H
  H80      1.0000 0.33137  0.22046  0.22164  Biso   1.000  H
  H81      1.0000 0.77954  0.11091  0.88830  Biso   1.000  H
  H82      1.0000 0.66863  0.88909  0.44503  Biso   1.000  H
  H83      1.0000 0.22046  0.33137  0.77836  Biso   1.000  H
  H84      1.0000 0.11091  0.77954  0.11170  Biso   1.000  H
  H85      1.0000 0.85217  0.78317  0.53044  Biso   1.000  H
  H86      1.0000 0.21683  0.06900  0.19711  Biso   1.000  H
  H87      1.0000 0.93100  0.14783  0.86377  Biso   1.000  H
  H88      1.0000 0.78317  0.85217  0.46956  Biso   1.000  H
  H89      1.0000 0.06900  0.21683  0.80289  Biso   1.000  H
  H90      1.0000 0.14783  0.93100  0.13623  Biso   1.000  H
  H91      1.0000 0.01332  0.86793  0.55414  Biso   1.000  H
  H92      1.0000 0.13207  0.14539  0.22081  Biso   1.000  H
  H93      1.0000 0.85461  0.98668  0.88747  Biso   1.000  H
  H94      1.0000 0.86793  0.01332  0.44586  Biso   1.000  H
  H95      1.0000 0.14539  0.13207  0.77919  Biso   1.000  H
  H96      1.0000 0.98668  0.85461  0.11253  Biso   1.000  H
  C109     1.0000 0.70400  0.66340  0.60470  Biso   1.000  C
  C110     1.0000 0.33660  0.04060  0.27137  Biso   1.000  C
  C111     1.0000 0.95940  0.29600  0.93803  Biso   1.000  C
  C112     1.0000 0.66340  0.70400  0.39530  Biso   1.000  C
  C113     1.0000 0.04060  0.33660  0.72863  Biso   1.000  C
  C114     1.0000 0.29600  0.95940  0.06197  Biso   1.000  C
  H97      1.0000 0.72205  0.56820  0.60081  Biso   1.000  H
  H98      1.0000 0.43180  0.15385  0.26748  Biso   1.000  H
  H99      1.0000 0.84615  0.27795  0.93414  Biso   1.000  H
  H100     1.0000 0.56820  0.72205  0.39919  Biso   1.000  H
  H101     1.0000 0.15385  0.43180  0.73252  Biso   1.000  H
  H102     1.0000 0.27795  0.84615  0.06586  Biso   1.000  H
  H103     1.0000 0.74839  0.71197  0.62650  Biso   1.000  H
  H104     1.0000 0.28803  0.03642  0.29317  Biso   1.000  H
  H105     1.0000 0.96358  0.25161  0.95983  Biso   1.000  H
  H106     1.0000 0.71197  0.74839  0.37350  Biso   1.000  H
  H107     1.0000 0.03642  0.28803  0.70683  Biso   1.000  H
  H108     1.0000 0.25161  0.96358  0.04017  Biso   1.000  H
  H109     1.0000 0.58329  0.62446  0.60389  Biso   1.000  H
  H110     1.0000 0.37554  0.95883  0.27056  Biso   1.000  H
  H111     1.0000 0.04117  0.41671  0.93722  Biso   1.000  H
  H112     1.0000 0.62446  0.58329  0.39611  Biso   1.000  H
  H113     1.0000 0.95883  0.37554  0.72944  Biso   1.000  H
  H114     1.0000 0.41671  0.04117  0.06278  Biso   1.000  H
  O28      1.0000 0.98800  0.00000  0.66667  Biso   1.000  O
  O29      1.0000 1.00000  0.98800  0.33334  Biso   1.000  O
  O30      1.0000 0.01200  0.01200  0.00000  Biso   1.000  O
  H115     1.0000 0.99866  0.95698  0.68641  Biso   1.000  H
  H116     1.0000 0.04302  0.04168  0.35308  Biso   1.000  H
  H117     1.0000 0.95832  0.00134  0.01974  Biso   1.000  H
  H118     1.0000 0.95698  0.99866  0.31359  Biso   1.000  H
  H119     1.0000 0.04168  0.04302  0.64692  Biso   1.000  H
  H120     1.0000 0.00134  0.95832  0.98026  Biso   1.000  H
