data_image0
_cell_length_a       7.2436
_cell_length_b       15.84
_cell_length_c       19.068
_cell_angle_alpha    90.405
_cell_angle_beta     92.964
_cell_angle_gamma    92.099

_symmetry_space_group_name_H-M    "P 1"
_symmetry_int_tables_number       1

loop_
  _symmetry_equiv_pos_as_xyz
  'x, y, z'

loop_
  _atom_site_label
  _atom_site_occupancy
  _atom_site_fract_x
  _atom_site_fract_y
  _atom_site_fract_z
  _atom_site_thermal_displace_type
  _atom_site_B_iso_or_equiv
  _atom_site_type_symbol
  Cu1      1.0000 0.20153  0.40754  0.58170  Biso   1.000  Cu
  Cu2      1.0000 0.79847  0.59246  0.41830  Biso   1.000  Cu
  S1       1.0000 0.29629  0.61975  0.38080  Biso   1.000  S
  S2       1.0000 0.70371  0.38025  0.61920  Biso   1.000  S
  O1       1.0000 0.12700  0.36900  0.48658  Biso   1.000  O
  O2       1.0000 0.87300  0.63100  0.51342  Biso   1.000  O
  O3       1.0000 0.43240  0.59510  0.43505  Biso   1.000  O
  O4       1.0000 0.56760  0.40490  0.56495  Biso   1.000  O
  O5       1.0000 0.36420  0.61250  0.31083  Biso   1.000  O
  O6       1.0000 0.63580  0.38750  0.68917  Biso   1.000  O
  O7       1.0000 0.11830  0.57700  0.38640  Biso   1.000  O
  O8       1.0000 0.88170  0.42300  0.61360  Biso   1.000  O
  C1       1.0000 0.30240  0.57810  0.61170  Biso   1.000  C
  C2       1.0000 0.69760  0.42190  0.38830  Biso   1.000  C
  H1       1.0000 0.27090  0.63690  0.60770  Biso   1.000  H
  H2       1.0000 0.72910  0.36310  0.39230  Biso   1.000  H
  H3       1.0000 0.43560  0.57480  0.61030  Biso   1.000  H
  H4       1.0000 0.56440  0.42520  0.38970  Biso   1.000  H
  C3       1.0000 0.23880  0.54290  0.67950  Biso   1.000  C
  C4       1.0000 0.76120  0.45710  0.32050  Biso   1.000  C
  H5       1.0000 0.31180  0.56850  0.71880  Biso   1.000  H
  H6       1.0000 0.68820  0.43150  0.28120  Biso   1.000  H
  H7       1.0000 0.11010  0.55530  0.68480  Biso   1.000  H
  H8       1.0000 0.88990  0.44470  0.31520  Biso   1.000  H
  C5       1.0000 0.29750  0.24390  0.65470  Biso   1.000  C
  C6       1.0000 0.70250  0.75610  0.34530  Biso   1.000  C
  H9       1.0000 0.32220  0.27470  0.69600  Biso   1.000  H
  H10      1.0000 0.67780  0.72530  0.30400  Biso   1.000  H
  C7       1.0000 0.32780  0.15790  0.65530  Biso   1.000  C
  C8       1.0000 0.67220  0.84210  0.34470  Biso   1.000  C
  H11      1.0000 0.37400  0.13250  0.69600  Biso   1.000  H
  H12      1.0000 0.62600  0.86750  0.30400  Biso   1.000  H
  C9       1.0000 0.28920  0.11130  0.59600  Biso   1.000  C
  C10      1.0000 0.71080  0.88870  0.40400  Biso   1.000  C
  H13      1.0000 0.30540  0.05330  0.59620  Biso   1.000  H
  H14      1.0000 0.69460  0.94670  0.40380  Biso   1.000  H
  C11      1.0000 0.22390  0.15160  0.53380  Biso   1.000  C
  C12      1.0000 0.77610  0.84840  0.46620  Biso   1.000  C
  C13      1.0000 0.18170  0.10950  0.46880  Biso   1.000  C
  C14      1.0000 0.81830  0.89050  0.53120  Biso   1.000  C
  C15      1.0000 0.11740  0.15730  0.41190  Biso   1.000  C
  C16      1.0000 0.88260  0.84270  0.58810  Biso   1.000  C
  H15      1.0000 0.08670  0.12980  0.36940  Biso   1.000  H
  H16      1.0000 0.91330  0.87020  0.63060  Biso   1.000  H
  C17      1.0000 0.09740  0.24320  0.41600  Biso   1.000  C
  C18      1.0000 0.90260  0.75680  0.58400  Biso   1.000  C
  H17      1.0000 0.05660  0.27240  0.37630  Biso   1.000  H
  H18      1.0000 0.94340  0.72760  0.62370  Biso   1.000  H
  C19      1.0000 0.13790  0.28710  0.47910  Biso   1.000  C
  C20      1.0000 0.86210  0.71290  0.52090  Biso   1.000  C
  C21      1.0000 0.19860  0.23850  0.53850  Biso   1.000  C
  C22      1.0000 0.80140  0.76150  0.46150  Biso   1.000  C
  C23      1.0000 0.20440  0.89880  0.40830  Biso   1.000  C
  C24      1.0000 0.79560  0.10120  0.59170  Biso   1.000  C
  C25      1.0000 0.27910  0.85400  0.46470  Biso   1.000  C
  C26      1.0000 0.72090  0.14600  0.53530  Biso   1.000  C
  H19      1.0000 0.31020  0.88120  0.50730  Biso   1.000  H
  H20      1.0000 0.68980  0.11880  0.49270  Biso   1.000  H
  C27      1.0000 0.30670  0.76890  0.45710  Biso   1.000  C
  C28      1.0000 0.69330  0.23110  0.54290  Biso   1.000  C
  H21      1.0000 0.35690  0.73870  0.49470  Biso   1.000  H
  H22      1.0000 0.64310  0.26130  0.50530  Biso   1.000  H
  C29      1.0000 0.26000  0.72830  0.39390  Biso   1.000  C
  C30      1.0000 0.74000  0.27170  0.60610  Biso   1.000  C
  C31      1.0000 0.18330  0.77330  0.33860  Biso   1.000  C
  C32      1.0000 0.81670  0.22670  0.66140  Biso   1.000  C
  H23      1.0000 0.14960  0.74580  0.29640  Biso   1.000  H
  H24      1.0000 0.85040  0.25420  0.70360  Biso   1.000  H
  C33      1.0000 0.15690  0.85710  0.34550  Biso   1.000  C
  C34      1.0000 0.84310  0.14290  0.65450  Biso   1.000  C
  H25      1.0000 0.10650  0.88690  0.30770  Biso   1.000  H
  H26      1.0000 0.89350  0.11310  0.69230  Biso   1.000  H
  N1       1.0000 0.26060  0.45240  0.67870  Biso   1.000  N
  N2       1.0000 0.73940  0.54760  0.32130  Biso   1.000  N
  H27      1.0000 0.18420  0.42760  0.70880  Biso   1.000  H
  H28      1.0000 0.81580  0.57240  0.29120  Biso   1.000  H
  H29      1.0000 0.37760  0.44070  0.69240  Biso   1.000  H
  H30      1.0000 0.62240  0.55930  0.30760  Biso   1.000  H
  N3       1.0000 0.21180  0.52910  0.55410  Biso   1.000  N
  N4       1.0000 0.78820  0.47090  0.44590  Biso   1.000  N
  H31      1.0000 0.27540  0.53550  0.51510  Biso   1.000  H
  H32      1.0000 0.72460  0.46450  0.48490  Biso   1.000  H
  H33      1.0000 0.09660  0.54700  0.54510  Biso   1.000  H
  H34      1.0000 0.90340  0.45300  0.45490  Biso   1.000  H
  N5       1.0000 0.21270  0.02220  0.46750  Biso   1.000  N
  N6       1.0000 0.78730  0.97780  0.53250  Biso   1.000  N
  N7       1.0000 0.17090  0.98730  0.40890  Biso   1.000  N
  N8       1.0000 0.82910  0.01270  0.59110  Biso   1.000  N
  N9       1.0000 0.23540  0.28430  0.59820  Biso   1.000  N
  N10      1.0000 0.76460  0.71570  0.40180  Biso   1.000  N
  Cu3      1.0000 0.30584  0.58363  0.07613  Biso   1.000  Cu
  Cu4      1.0000 0.69416  0.41637  0.92387  Biso   1.000  Cu
  S3       1.0000 0.16310  0.36646  0.87246  Biso   1.000  S
  S4       1.0000 0.83690  0.63354  0.12754  Biso   1.000  S
  O9       1.0000 0.31290  0.61570  0.97880  Biso   1.000  O
  O10      1.0000 0.68710  0.38430  0.02120  Biso   1.000  O
  O11      1.0000 0.05080  0.40070  0.92670  Biso   1.000  O
  O12      1.0000 0.94920  0.59930  0.07330  Biso   1.000  O
  O13      1.0000 0.34510  0.40010  0.87710  Biso   1.000  O
  O14      1.0000 0.65490  0.59990  0.12290  Biso   1.000  O
  O15      1.0000 0.07200  0.37350  0.80280  Biso   1.000  O
  O16      1.0000 0.92800  0.62650  0.19720  Biso   1.000  O
  C35      1.0000 0.23010  0.41320  0.10780  Biso   1.000  C
  C36      1.0000 0.76990  0.58680  0.89220  Biso   1.000  C
  H35      1.0000 0.09600  0.40940  0.10360  Biso   1.000  H
  H36      1.0000 0.90400  0.59060  0.89640  Biso   1.000  H
  H37      1.0000 0.27520  0.35640  0.10590  Biso   1.000  H
  H38      1.0000 0.72480  0.64360  0.89410  Biso   1.000  H
  C37      1.0000 0.28930  0.45210  0.17370  Biso   1.000  C
  C38      1.0000 0.71070  0.54790  0.82630  Biso   1.000  C
  H39      1.0000 0.41580  0.43740  0.18570  Biso   1.000  H
  H40      1.0000 0.58420  0.56260  0.81430  Biso   1.000  H
  H41      1.0000 0.21250  0.43000  0.21000  Biso   1.000  H
  H42      1.0000 0.78750  0.57000  0.79000  Biso   1.000  H
  C39      1.0000 0.29330  0.69670  0.97110  Biso   1.000  C
  C40      1.0000 0.70670  0.30330  0.02890  Biso   1.000  C
  C41      1.0000 0.27130  0.73490  0.90470  Biso   1.000  C
  C42      1.0000 0.72870  0.26510  0.09530  Biso   1.000  C
  H43      1.0000 0.26140  0.70280  0.86360  Biso   1.000  H
  H44      1.0000 0.73860  0.29720  0.13640  Biso   1.000  H
  C43      1.0000 0.26510  0.82400  0.90320  Biso   1.000  C
  C44      1.0000 0.73490  0.17600  0.09680  Biso   1.000  C
  H45      1.0000 0.26020  0.84960  0.85940  Biso   1.000  H
  H46      1.0000 0.73980  0.15040  0.14060  Biso   1.000  H
  C45      1.0000 0.26560  0.87420  0.96020  Biso   1.000  C
  C46      1.0000 0.73440  0.12580  0.03980  Biso   1.000  C
  C47      1.0000 0.28730  0.83820  0.02790  Biso   1.000  C
  C48      1.0000 0.71270  0.16180  0.97210  Biso   1.000  C
  C49      1.0000 0.29820  0.74960  0.03140  Biso   1.000  C
  C50      1.0000 0.70180  0.25040  0.96860  Biso   1.000  C
  C51      1.0000 0.32940  0.75180  0.15200  Biso   1.000  C
  C52      1.0000 0.67060  0.24820  0.84800  Biso   1.000  C
  H47      1.0000 0.34250  0.72330  0.19430  Biso   1.000  H
  H48      1.0000 0.65750  0.27670  0.80570  Biso   1.000  H
  C53      1.0000 0.32500  0.83930  0.15320  Biso   1.000  C
  C54      1.0000 0.67500  0.16070  0.84680  Biso   1.000  C
  H49      1.0000 0.33680  0.86840  0.19580  Biso   1.000  H
  H50      1.0000 0.66320  0.13160  0.80420  Biso   1.000  H
  C55      1.0000 0.30350  0.88210  0.09240  Biso   1.000  C
  C56      1.0000 0.69650  0.11790  0.90760  Biso   1.000  C
  H51      1.0000 0.29950  0.94070  0.09320  Biso   1.000  H
  H52      1.0000 0.70050  0.05930  0.90680  Biso   1.000  H
  C57      1.0000 0.20310  0.08470  0.90390  Biso   1.000  C
  C58      1.0000 0.79690  0.91530  0.09610  Biso   1.000  C
  C59      1.0000 0.22180  0.13800  0.96190  Biso   1.000  C
  C60      1.0000 0.77820  0.86200  0.03810  Biso   1.000  C
  H53      1.0000 0.24310  0.11570  0.00640  Biso   1.000  H
  H54      1.0000 0.75690  0.88430  0.99360  Biso   1.000  H
  C61      1.0000 0.20860  0.22640  0.95370  Biso   1.000  C
  C62      1.0000 0.79140  0.77360  0.04630  Biso   1.000  C
  H55      1.0000 0.22220  0.26300  0.99210  Biso   1.000  H
  H56      1.0000 0.77780  0.73700  0.00790  Biso   1.000  H
  C63      1.0000 0.17510  0.25550  0.88750  Biso   1.000  C
  C64      1.0000 0.82490  0.74450  0.11250  Biso   1.000  C
  C65      1.0000 0.15360  0.20120  0.83080  Biso   1.000  C
  C66      1.0000 0.84640  0.79880  0.16920  Biso   1.000  C
  H57      1.0000 0.13020  0.22280  0.78610  Biso   1.000  H
  H58      1.0000 0.86980  0.77720  0.21390  Biso   1.000  H
  C67      1.0000 0.16610  0.11590  0.83930  Biso   1.000  C
  C68      1.0000 0.83390  0.88410  0.16070  Biso   1.000  C
  H59      1.0000 0.14920  0.07970  0.80070  Biso   1.000  H
  H60      1.0000 0.85080  0.92030  0.19930  Biso   1.000  H
  N11      1.0000 0.27910  0.54300  0.17230  Biso   1.000  N
  N12      1.0000 0.72090  0.45700  0.82770  Biso   1.000  N
  H61      1.0000 0.36950  0.56660  0.20100  Biso   1.000  H
  H62      1.0000 0.63050  0.43340  0.79900  Biso   1.000  H
  H63      1.0000 0.16970  0.55830  0.18770  Biso   1.000  H
  H64      1.0000 0.83030  0.44170  0.81230  Biso   1.000  H
  N13      1.0000 0.29890  0.46160  0.05030  Biso   1.000  N
  N14      1.0000 0.70110  0.53840  0.94970  Biso   1.000  N
  H65      1.0000 0.22470  0.45230  0.01150  Biso   1.000  H
  H66      1.0000 0.77530  0.54770  0.98850  Biso   1.000  H
  H67      1.0000 0.41320  0.44560  0.04120  Biso   1.000  H
  H68      1.0000 0.58680  0.55440  0.95880  Biso   1.000  H
  N15      1.0000 0.24730  0.96710  0.96240  Biso   1.000  N
  N16      1.0000 0.75270  0.03290  0.03760  Biso   1.000  N
  N17      1.0000 0.21530  0.99070  0.90360  Biso   1.000  N
  N18      1.0000 0.78470  0.00930  0.09640  Biso   1.000  N
  N19      1.0000 0.31570  0.70820  0.09360  Biso   1.000  N
  N20      1.0000 0.68430  0.29180  0.90640  Biso   1.000  N
