data_image0
_cell_length_a       11.261
_cell_length_b       15.782
_cell_length_c       13.591
_cell_angle_alpha    90
_cell_angle_beta     113.407
_cell_angle_gamma    90

_symmetry_space_group_name_H-M    "P 1"
_symmetry_int_tables_number       1

loop_
  _symmetry_equiv_pos_as_xyz
  'x, y, z'

loop_
  _atom_site_label
  _atom_site_occupancy
  _atom_site_fract_x
  _atom_site_fract_y
  _atom_site_fract_z
  _atom_site_thermal_displace_type
  _atom_site_B_iso_or_equiv
  _atom_site_type_symbol
  C1       1.0000 0.67290  0.67390  0.09730  Biso   1.000  C
  C2       1.0000 0.32710  0.67390  0.90270  Biso   1.000  C
  C3       1.0000 0.17290  0.17390  0.09730  Biso   1.000  C
  C4       1.0000 0.82710  0.17390  0.90270  Biso   1.000  C
  C5       1.0000 0.32710  0.32610  0.90270  Biso   1.000  C
  C6       1.0000 0.67290  0.32610  0.09730  Biso   1.000  C
  C7       1.0000 0.82710  0.82610  0.90270  Biso   1.000  C
  C8       1.0000 0.17290  0.82610  0.09730  Biso   1.000  C
  H1       1.0000 0.70860  0.64880  0.05340  Biso   1.000  H
  H2       1.0000 0.29140  0.64880  0.94660  Biso   1.000  H
  H3       1.0000 0.20860  0.14880  0.05340  Biso   1.000  H
  H4       1.0000 0.79140  0.14880  0.94660  Biso   1.000  H
  H5       1.0000 0.29140  0.35120  0.94660  Biso   1.000  H
  H6       1.0000 0.70860  0.35120  0.05340  Biso   1.000  H
  H7       1.0000 0.79140  0.85120  0.94660  Biso   1.000  H
  H8       1.0000 0.20860  0.85120  0.05340  Biso   1.000  H
  C9       1.0000 0.68170  0.76380  0.11340  Biso   1.000  C
  C10      1.0000 0.31830  0.76380  0.88660  Biso   1.000  C
  C11      1.0000 0.18170  0.26380  0.11340  Biso   1.000  C
  C12      1.0000 0.81830  0.26380  0.88660  Biso   1.000  C
  C13      1.0000 0.31830  0.23620  0.88660  Biso   1.000  C
  C14      1.0000 0.68170  0.23620  0.11340  Biso   1.000  C
  C15      1.0000 0.81830  0.73620  0.88660  Biso   1.000  C
  C16      1.0000 0.18170  0.73620  0.11340  Biso   1.000  C
  H9       1.0000 0.72280  0.79740  0.08010  Biso   1.000  H
  H10      1.0000 0.27720  0.79740  0.91990  Biso   1.000  H
  H11      1.0000 0.22280  0.29740  0.08010  Biso   1.000  H
  H12      1.0000 0.77720  0.29740  0.91990  Biso   1.000  H
  H13      1.0000 0.27720  0.20260  0.91990  Biso   1.000  H
  H14      1.0000 0.72280  0.20260  0.08010  Biso   1.000  H
  H15      1.0000 0.77720  0.70260  0.91990  Biso   1.000  H
  H16      1.0000 0.22280  0.70260  0.08010  Biso   1.000  H
  C17      1.0000 0.62800  0.80010  0.17900  Biso   1.000  C
  C18      1.0000 0.37200  0.80010  0.82100  Biso   1.000  C
  C19      1.0000 0.12800  0.30010  0.17900  Biso   1.000  C
  C20      1.0000 0.87200  0.30010  0.82100  Biso   1.000  C
  C21      1.0000 0.37200  0.19990  0.82100  Biso   1.000  C
  C22      1.0000 0.62800  0.19990  0.17900  Biso   1.000  C
  C23      1.0000 0.87200  0.69990  0.82100  Biso   1.000  C
  C24      1.0000 0.12800  0.69990  0.17900  Biso   1.000  C
  H17      1.0000 0.63280  0.85840  0.18990  Biso   1.000  H
  H18      1.0000 0.36720  0.85840  0.81010  Biso   1.000  H
  H19      1.0000 0.13280  0.35840  0.18990  Biso   1.000  H
  H20      1.0000 0.86720  0.35840  0.81010  Biso   1.000  H
  H21      1.0000 0.36720  0.14160  0.81010  Biso   1.000  H
  H22      1.0000 0.63280  0.14160  0.18990  Biso   1.000  H
  H23      1.0000 0.86720  0.64160  0.81010  Biso   1.000  H
  H24      1.0000 0.13280  0.64160  0.18990  Biso   1.000  H
  C25      1.0000 0.56910  0.74950  0.22820  Biso   1.000  C
  C26      1.0000 0.43090  0.74950  0.77180  Biso   1.000  C
  C27      1.0000 0.06910  0.24950  0.22820  Biso   1.000  C
  C28      1.0000 0.93090  0.24950  0.77180  Biso   1.000  C
  C29      1.0000 0.43090  0.25050  0.77180  Biso   1.000  C
  C30      1.0000 0.56910  0.25050  0.22820  Biso   1.000  C
  C31      1.0000 0.93090  0.75050  0.77180  Biso   1.000  C
  C32      1.0000 0.06910  0.75050  0.22820  Biso   1.000  C
  C33      1.0000 0.56270  0.66280  0.21040  Biso   1.000  C
  C34      1.0000 0.43730  0.66280  0.78960  Biso   1.000  C
  C35      1.0000 0.06270  0.16280  0.21040  Biso   1.000  C
  C36      1.0000 0.93730  0.16280  0.78960  Biso   1.000  C
  C37      1.0000 0.43730  0.33720  0.78960  Biso   1.000  C
  C38      1.0000 0.56270  0.33720  0.21040  Biso   1.000  C
  C39      1.0000 0.93730  0.83720  0.78960  Biso   1.000  C
  C40      1.0000 0.06270  0.83720  0.21040  Biso   1.000  C
  H25      1.0000 0.52280  0.62850  0.24390  Biso   1.000  H
  H26      1.0000 0.47720  0.62850  0.75610  Biso   1.000  H
  H27      1.0000 0.02280  0.12850  0.24390  Biso   1.000  H
  H28      1.0000 0.97720  0.12850  0.75610  Biso   1.000  H
  H29      1.0000 0.47720  0.37150  0.75610  Biso   1.000  H
  H30      1.0000 0.52280  0.37150  0.24390  Biso   1.000  H
  H31      1.0000 0.97720  0.87150  0.75610  Biso   1.000  H
  H32      1.0000 0.02280  0.87150  0.24390  Biso   1.000  H
  C41      1.0000 0.51560  0.78870  0.29700  Biso   1.000  C
  C42      1.0000 0.48440  0.78870  0.70300  Biso   1.000  C
  C43      1.0000 0.01560  0.28870  0.29700  Biso   1.000  C
  C44      1.0000 0.98440  0.28870  0.70300  Biso   1.000  C
  C45      1.0000 0.48440  0.21130  0.70300  Biso   1.000  C
  C46      1.0000 0.51560  0.21130  0.29700  Biso   1.000  C
  C47      1.0000 0.98440  0.71130  0.70300  Biso   1.000  C
  C48      1.0000 0.01560  0.71130  0.29700  Biso   1.000  C
  H33      1.0000 0.44850  0.82930  0.25540  Biso   1.000  H
  H34      1.0000 0.55150  0.82930  0.74460  Biso   1.000  H
  H35      1.0000 0.94850  0.32930  0.25540  Biso   1.000  H
  H36      1.0000 0.05150  0.32930  0.74460  Biso   1.000  H
  H37      1.0000 0.55150  0.17070  0.74460  Biso   1.000  H
  H38      1.0000 0.44850  0.17070  0.25540  Biso   1.000  H
  H39      1.0000 0.05150  0.67070  0.74460  Biso   1.000  H
  H40      1.0000 0.94850  0.67070  0.25540  Biso   1.000  H
  C49      1.0000 0.56900  0.88010  0.44960  Biso   1.000  C
  C50      1.0000 0.43100  0.88010  0.55040  Biso   1.000  C
  C51      1.0000 0.06900  0.38010  0.44960  Biso   1.000  C
  C52      1.0000 0.93100  0.38010  0.55040  Biso   1.000  C
  C53      1.0000 0.43100  0.11990  0.55040  Biso   1.000  C
  C54      1.0000 0.56900  0.11990  0.44960  Biso   1.000  C
  C55      1.0000 0.93100  0.61990  0.55040  Biso   1.000  C
  C56      1.0000 0.06900  0.61990  0.44960  Biso   1.000  C
  H41      1.0000 0.50870  0.92250  0.40580  Biso   1.000  H
  H42      1.0000 0.49130  0.92250  0.59420  Biso   1.000  H
  H43      1.0000 0.00870  0.42250  0.40580  Biso   1.000  H
  H44      1.0000 0.99130  0.42250  0.59420  Biso   1.000  H
  H45      1.0000 0.49130  0.07750  0.59420  Biso   1.000  H
  H46      1.0000 0.50870  0.07750  0.40580  Biso   1.000  H
  H47      1.0000 0.99130  0.57750  0.59420  Biso   1.000  H
  H48      1.0000 0.00870  0.57750  0.40580  Biso   1.000  H
  H49      1.0000 0.63920  0.90930  0.50590  Biso   1.000  H
  H50      1.0000 0.36080  0.90930  0.49410  Biso   1.000  H
  H51      1.0000 0.13920  0.40930  0.50590  Biso   1.000  H
  H52      1.0000 0.86080  0.40930  0.49410  Biso   1.000  H
  H53      1.0000 0.36080  0.09070  0.49410  Biso   1.000  H
  H54      1.0000 0.63920  0.09070  0.50590  Biso   1.000  H
  H55      1.0000 0.86080  0.59070  0.49410  Biso   1.000  H
  H56      1.0000 0.13920  0.59070  0.50590  Biso   1.000  H
  C57      1.0000 0.50000  0.82190  0.50000  Biso   1.000  C
  C58      1.0000 0.00000  0.32190  0.50000  Biso   1.000  C
  C59      1.0000 0.50000  0.17810  0.50000  Biso   1.000  C
  C60      1.0000 0.00000  0.67810  0.50000  Biso   1.000  C
  C61      1.0000 0.40250  0.76770  0.41200  Biso   1.000  C
  C62      1.0000 0.59750  0.76770  0.58800  Biso   1.000  C
  C63      1.0000 0.90250  0.26770  0.41200  Biso   1.000  C
  C64      1.0000 0.09750  0.26770  0.58800  Biso   1.000  C
  C65      1.0000 0.59750  0.23230  0.58800  Biso   1.000  C
  C66      1.0000 0.40250  0.23230  0.41200  Biso   1.000  C
  C67      1.0000 0.09750  0.73230  0.58800  Biso   1.000  C
  C68      1.0000 0.90250  0.73230  0.41200  Biso   1.000  C
  H57      1.0000 0.36880  0.72410  0.44420  Biso   1.000  H
  H58      1.0000 0.63120  0.72410  0.55580  Biso   1.000  H
  H59      1.0000 0.86880  0.22410  0.44420  Biso   1.000  H
  H60      1.0000 0.13120  0.22410  0.55580  Biso   1.000  H
  H61      1.0000 0.63120  0.27590  0.55580  Biso   1.000  H
  H62      1.0000 0.36880  0.27590  0.44420  Biso   1.000  H
  H63      1.0000 0.13120  0.77590  0.55580  Biso   1.000  H
  H64      1.0000 0.86880  0.77590  0.44420  Biso   1.000  H
  H65      1.0000 0.33070  0.80270  0.36710  Biso   1.000  H
  H66      1.0000 0.66930  0.80270  0.63290  Biso   1.000  H
  H67      1.0000 0.83070  0.30270  0.36710  Biso   1.000  H
  H68      1.0000 0.16930  0.30270  0.63290  Biso   1.000  H
  H69      1.0000 0.66930  0.19730  0.63290  Biso   1.000  H
  H70      1.0000 0.33070  0.19730  0.36710  Biso   1.000  H
  H71      1.0000 0.16930  0.69730  0.63290  Biso   1.000  H
  H72      1.0000 0.83070  0.69730  0.36710  Biso   1.000  H
  Cl1      1.0000 0.83160  0.50000  0.22120  Biso   1.000  Cl
  Cl2      1.0000 0.16840  0.50000  0.77880  Biso   1.000  Cl
  Cl3      1.0000 0.33160  0.00000  0.22120  Biso   1.000  Cl
  Cl4      1.0000 0.66840  0.00000  0.77880  Biso   1.000  Cl
  Cl5      1.0000 0.38970  0.50000  0.07400  Biso   1.000  Cl
  Cl6      1.0000 0.61030  0.50000  0.92600  Biso   1.000  Cl
  Cl7      1.0000 0.88970  0.00000  0.07400  Biso   1.000  Cl
  Cl8      1.0000 0.11030  0.00000  0.92600  Biso   1.000  Cl
  Cu1      1.0000 0.61180  0.50000  0.13164  Biso   1.000  Cu
  Cu2      1.0000 0.38820  0.50000  0.86836  Biso   1.000  Cu
  Cu3      1.0000 0.11180  0.00000  0.13164  Biso   1.000  Cu
  Cu4      1.0000 0.88820  0.00000  0.86836  Biso   1.000  Cu
  N1       1.0000 0.61400  0.62660  0.14460  Biso   1.000  N
  N2       1.0000 0.38600  0.62660  0.85540  Biso   1.000  N
  N3       1.0000 0.11400  0.12660  0.14460  Biso   1.000  N
  N4       1.0000 0.88600  0.12660  0.85540  Biso   1.000  N
  N5       1.0000 0.38600  0.37340  0.85540  Biso   1.000  N
  N6       1.0000 0.61400  0.37340  0.14460  Biso   1.000  N
  N7       1.0000 0.88600  0.87340  0.85540  Biso   1.000  N
  N8       1.0000 0.11400  0.87340  0.14460  Biso   1.000  N
  O1       1.0000 0.61900  0.83400  0.38580  Biso   1.000  O
  O2       1.0000 0.38100  0.83400  0.61420  Biso   1.000  O
  O3       1.0000 0.11900  0.33400  0.38580  Biso   1.000  O
  O4       1.0000 0.88100  0.33400  0.61420  Biso   1.000  O
  O5       1.0000 0.38100  0.16600  0.61420  Biso   1.000  O
  O6       1.0000 0.61900  0.16600  0.38580  Biso   1.000  O
  O7       1.0000 0.88100  0.66600  0.61420  Biso   1.000  O
  O8       1.0000 0.11900  0.66600  0.38580  Biso   1.000  O
  O9       1.0000 0.46170  0.72870  0.34740  Biso   1.000  O
  O10      1.0000 0.53830  0.72870  0.65260  Biso   1.000  O
  O11      1.0000 0.96170  0.22870  0.34740  Biso   1.000  O
  O12      1.0000 0.03830  0.22870  0.65260  Biso   1.000  O
  O13      1.0000 0.53830  0.27130  0.65260  Biso   1.000  O
  O14      1.0000 0.46170  0.27130  0.34740  Biso   1.000  O
  O15      1.0000 0.03830  0.77130  0.65260  Biso   1.000  O
  O16      1.0000 0.96170  0.77130  0.34740  Biso   1.000  O
