data_image0
_cell_length_a       12.5237
_cell_length_b       7.331
_cell_length_c       16.8926
_cell_angle_alpha    90
_cell_angle_beta     92.569
_cell_angle_gamma    90

_symmetry_space_group_name_H-M    "P 1"
_symmetry_int_tables_number       1

loop_
  _symmetry_equiv_pos_as_xyz
  'x, y, z'

loop_
  _atom_site_label
  _atom_site_occupancy
  _atom_site_fract_x
  _atom_site_fract_y
  _atom_site_fract_z
  _atom_site_thermal_displace_type
  _atom_site_B_iso_or_equiv
  _atom_site_type_symbol
  Cu1      1.0000 0.00000  0.62241  0.25000  Biso   1.000  Cu
  Cu2      1.0000 0.00000  0.37759  0.75000  Biso   1.000  Cu
  O1       1.0000 0.02706  0.63370  0.36479  Biso   1.000  O
  O2       1.0000 0.97294  0.63370  0.13521  Biso   1.000  O
  O3       1.0000 0.97294  0.36630  0.63521  Biso   1.000  O
  O4       1.0000 0.02706  0.36630  0.86479  Biso   1.000  O
  O5       1.0000 0.12130  0.56410  0.73822  Biso   1.000  O
  O6       1.0000 0.87870  0.56410  0.76178  Biso   1.000  O
  O7       1.0000 0.87870  0.43590  0.26178  Biso   1.000  O
  O8       1.0000 0.12130  0.43590  0.23822  Biso   1.000  O
  O9       1.0000 0.00000  0.88370  0.25000  Biso   1.000  O
  O10      1.0000 0.00000  0.11630  0.75000  Biso   1.000  O
  H1       1.0000 0.98840  0.95040  0.20950  Biso   1.000  H
  H2       1.0000 0.01160  0.95040  0.29050  Biso   1.000  H
  H3       1.0000 0.01160  0.04960  0.79050  Biso   1.000  H
  H4       1.0000 0.98840  0.04960  0.70950  Biso   1.000  H
  N1       1.0000 0.11160  0.69440  0.48095  Biso   1.000  N
  N2       1.0000 0.88840  0.69440  0.01905  Biso   1.000  N
  N3       1.0000 0.88840  0.30560  0.51905  Biso   1.000  N
  N4       1.0000 0.11160  0.30560  0.98095  Biso   1.000  N
  H5       1.0000 0.05120  0.73420  0.49600  Biso   1.000  H
  H6       1.0000 0.94880  0.73420  0.00400  Biso   1.000  H
  H7       1.0000 0.94880  0.26580  0.50400  Biso   1.000  H
  H8       1.0000 0.05120  0.26580  0.99600  Biso   1.000  H
  N5       1.0000 0.20820  0.60220  0.37544  Biso   1.000  N
  N6       1.0000 0.79180  0.60220  0.12456  Biso   1.000  N
  N7       1.0000 0.79180  0.39780  0.62456  Biso   1.000  N
  N8       1.0000 0.20820  0.39780  0.87544  Biso   1.000  N
  H9       1.0000 0.20790  0.57220  0.32620  Biso   1.000  H
  H10      1.0000 0.79210  0.57220  0.17380  Biso   1.000  H
  H11      1.0000 0.79210  0.42780  0.67380  Biso   1.000  H
  H12      1.0000 0.20790  0.42780  0.82620  Biso   1.000  H
  N9       1.0000 0.16120  0.59570  0.60943  Biso   1.000  N
  N10      1.0000 0.83880  0.59570  0.89057  Biso   1.000  N
  N11      1.0000 0.83880  0.40430  0.39057  Biso   1.000  N
  N12      1.0000 0.16120  0.40430  0.10943  Biso   1.000  N
  H13      1.0000 0.13470  0.48880  0.60110  Biso   1.000  H
  H14      1.0000 0.86530  0.48880  0.89890  Biso   1.000  H
  H15      1.0000 0.86530  0.51120  0.39890  Biso   1.000  H
  H16      1.0000 0.13470  0.51120  0.10110  Biso   1.000  H
  N13      1.0000 0.21260  0.81130  0.70241  Biso   1.000  N
  N14      1.0000 0.78740  0.81130  0.79759  Biso   1.000  N
  N15      1.0000 0.78740  0.18870  0.29759  Biso   1.000  N
  N16      1.0000 0.21260  0.18870  0.20241  Biso   1.000  N
  H17      1.0000 0.20720  0.85310  0.74960  Biso   1.000  H
  H18      1.0000 0.79280  0.85310  0.75040  Biso   1.000  H
  H19      1.0000 0.79280  0.14690  0.25040  Biso   1.000  H
  H20      1.0000 0.20720  0.14690  0.24960  Biso   1.000  H
  C1       1.0000 0.11530  0.64150  0.40510  Biso   1.000  C
  C2       1.0000 0.88470  0.64150  0.09490  Biso   1.000  C
  C3       1.0000 0.88470  0.35850  0.59490  Biso   1.000  C
  C4       1.0000 0.11530  0.35850  0.90510  Biso   1.000  C
  C5       1.0000 0.31200  0.60520  0.41930  Biso   1.000  C
  C6       1.0000 0.68800  0.60520  0.08070  Biso   1.000  C
  C7       1.0000 0.68800  0.39480  0.58070  Biso   1.000  C
  C8       1.0000 0.31200  0.39480  0.91930  Biso   1.000  C
  C9       1.0000 0.28940  0.57640  0.50690  Biso   1.000  C
  C10      1.0000 0.71060  0.57640  0.99310  Biso   1.000  C
  C11      1.0000 0.71060  0.42360  0.49310  Biso   1.000  C
  C12      1.0000 0.28940  0.42360  0.00690  Biso   1.000  C
  H21      1.0000 0.35470  0.60130  0.53800  Biso   1.000  H
  H22      1.0000 0.64530  0.60130  0.96200  Biso   1.000  H
  H23      1.0000 0.64530  0.39870  0.46200  Biso   1.000  H
  H24      1.0000 0.35470  0.39870  0.03800  Biso   1.000  H
  H25      1.0000 0.27220  0.44870  0.51440  Biso   1.000  H
  H26      1.0000 0.72780  0.44870  0.98560  Biso   1.000  H
  H27      1.0000 0.72780  0.55130  0.48560  Biso   1.000  H
  H28      1.0000 0.27220  0.55130  0.01440  Biso   1.000  H
  C13      1.0000 0.19960  0.69130  0.54050  Biso   1.000  C
  C14      1.0000 0.80040  0.69130  0.95950  Biso   1.000  C
  C15      1.0000 0.80040  0.30870  0.45950  Biso   1.000  C
  C16      1.0000 0.19960  0.30870  0.04050  Biso   1.000  C
  C17      1.0000 0.37680  0.44330  0.39160  Biso   1.000  C
  C18      1.0000 0.62320  0.44330  0.10840  Biso   1.000  C
  C19      1.0000 0.62320  0.55670  0.60840  Biso   1.000  C
  C20      1.0000 0.37680  0.55670  0.89160  Biso   1.000  C
  H29      1.0000 0.33900  0.33230  0.40140  Biso   1.000  H
  H30      1.0000 0.66100  0.33230  0.09860  Biso   1.000  H
  H31      1.0000 0.66100  0.66770  0.59860  Biso   1.000  H
  H32      1.0000 0.33900  0.66770  0.90140  Biso   1.000  H
  H33      1.0000 0.44490  0.44110  0.42000  Biso   1.000  H
  H34      1.0000 0.55510  0.44110  0.08000  Biso   1.000  H
  H35      1.0000 0.55510  0.55890  0.58000  Biso   1.000  H
  H36      1.0000 0.44490  0.55890  0.92000  Biso   1.000  H
  H37      1.0000 0.38750  0.45460  0.33590  Biso   1.000  H
  H38      1.0000 0.61250  0.45460  0.16410  Biso   1.000  H
  H39      1.0000 0.61250  0.54540  0.66410  Biso   1.000  H
  H40      1.0000 0.38750  0.54540  0.83590  Biso   1.000  H
  C21      1.0000 0.37160  0.78080  0.40240  Biso   1.000  C
  C22      1.0000 0.62840  0.78080  0.09760  Biso   1.000  C
  C23      1.0000 0.62840  0.21920  0.59760  Biso   1.000  C
  C24      1.0000 0.37160  0.21920  0.90240  Biso   1.000  C
  H41      1.0000 0.39330  0.77980  0.34860  Biso   1.000  H
  H42      1.0000 0.60670  0.77980  0.15140  Biso   1.000  H
  H43      1.0000 0.60670  0.22020  0.65140  Biso   1.000  H
  H44      1.0000 0.39330  0.22020  0.84860  Biso   1.000  H
  H45      1.0000 0.43370  0.79000  0.43770  Biso   1.000  H
  H46      1.0000 0.56630  0.79000  0.06230  Biso   1.000  H
  H47      1.0000 0.56630  0.21000  0.56230  Biso   1.000  H
  H48      1.0000 0.43370  0.21000  0.93770  Biso   1.000  H
  H49      1.0000 0.32560  0.88330  0.41020  Biso   1.000  H
  H50      1.0000 0.67440  0.88330  0.08980  Biso   1.000  H
  H51      1.0000 0.67440  0.11670  0.58980  Biso   1.000  H
  H52      1.0000 0.32560  0.11670  0.91020  Biso   1.000  H
  C25      1.0000 0.16270  0.65630  0.68460  Biso   1.000  C
  C26      1.0000 0.83730  0.65630  0.81540  Biso   1.000  C
  C27      1.0000 0.83730  0.34370  0.31540  Biso   1.000  C
  C28      1.0000 0.16270  0.34370  0.18460  Biso   1.000  C
  C29      1.0000 0.27570  0.91610  0.64830  Biso   1.000  C
  C30      1.0000 0.72430  0.91610  0.85170  Biso   1.000  C
  C31      1.0000 0.72430  0.08390  0.35170  Biso   1.000  C
  C32      1.0000 0.27570  0.08390  0.14830  Biso   1.000  C
  C33      1.0000 0.22580  0.88720  0.56460  Biso   1.000  C
  C34      1.0000 0.77420  0.88720  0.93540  Biso   1.000  C
  C35      1.0000 0.77420  0.11280  0.43540  Biso   1.000  C
  C36      1.0000 0.22580  0.11280  0.06460  Biso   1.000  C
  H53      1.0000 0.16050  0.95800  0.55980  Biso   1.000  H
  H54      1.0000 0.83950  0.95800  0.94020  Biso   1.000  H
  H55      1.0000 0.83950  0.04200  0.44020  Biso   1.000  H
  H56      1.0000 0.16050  0.04200  0.05980  Biso   1.000  H
  H57      1.0000 0.27450  0.93660  0.52690  Biso   1.000  H
  H58      1.0000 0.72550  0.93660  0.97310  Biso   1.000  H
  H59      1.0000 0.72550  0.06340  0.47310  Biso   1.000  H
  H60      1.0000 0.27450  0.06340  0.02690  Biso   1.000  H
  C37      1.0000 0.26540  0.11740  0.66930  Biso   1.000  C
  C38      1.0000 0.73460  0.11740  0.83070  Biso   1.000  C
  C39      1.0000 0.73460  0.88260  0.33070  Biso   1.000  C
  C40      1.0000 0.26540  0.88260  0.16930  Biso   1.000  C
  H61      1.0000 0.19180  0.15320  0.66370  Biso   1.000  H
  H62      1.0000 0.80820  0.15320  0.83630  Biso   1.000  H
  H63      1.0000 0.80820  0.84680  0.33630  Biso   1.000  H
  H64      1.0000 0.19180  0.84680  0.16370  Biso   1.000  H
  H65      1.0000 0.30690  0.18910  0.63440  Biso   1.000  H
  H66      1.0000 0.69310  0.18910  0.86560  Biso   1.000  H
  H67      1.0000 0.69310  0.81090  0.36560  Biso   1.000  H
  H68      1.0000 0.30690  0.81090  0.13440  Biso   1.000  H
  H69      1.0000 0.29120  0.13650  0.72300  Biso   1.000  H
  H70      1.0000 0.70880  0.13650  0.77700  Biso   1.000  H
  H71      1.0000 0.70880  0.86350  0.27700  Biso   1.000  H
  H72      1.0000 0.29120  0.86350  0.22300  Biso   1.000  H
  C41      1.0000 0.39260  0.85720  0.65820  Biso   1.000  C
  C42      1.0000 0.60740  0.85720  0.84180  Biso   1.000  C
  C43      1.0000 0.60740  0.14280  0.34180  Biso   1.000  C
  C44      1.0000 0.39260  0.14280  0.15820  Biso   1.000  C
  H73      1.0000 0.42080  0.89280  0.70970  Biso   1.000  H
  H74      1.0000 0.57920  0.89280  0.79030  Biso   1.000  H
  H75      1.0000 0.57920  0.10720  0.29030  Biso   1.000  H
  H76      1.0000 0.42080  0.10720  0.20970  Biso   1.000  H
  H77      1.0000 0.43320  0.91460  0.61830  Biso   1.000  H
  H78      1.0000 0.56680  0.91460  0.88170  Biso   1.000  H
  H79      1.0000 0.56680  0.08540  0.38170  Biso   1.000  H
  H80      1.0000 0.43320  0.08540  0.11830  Biso   1.000  H
  H81      1.0000 0.39730  0.72710  0.65290  Biso   1.000  H
  H82      1.0000 0.60270  0.72710  0.84710  Biso   1.000  H
  H83      1.0000 0.60270  0.27290  0.34710  Biso   1.000  H
  H84      1.0000 0.39730  0.27290  0.15290  Biso   1.000  H
  O11      1.0000 0.11170  0.24130  0.46900  Biso   1.000  O
  O12      1.0000 0.88830  0.24130  0.03100  Biso   1.000  O
  O13      1.0000 0.88830  0.75870  0.53100  Biso   1.000  O
  O14      1.0000 0.11170  0.75870  0.96900  Biso   1.000  O
  O15      1.0000 0.19160  0.10530  0.37485  Biso   1.000  O
  O16      1.0000 0.80840  0.10530  0.12515  Biso   1.000  O
  O17      1.0000 0.80840  0.89470  0.62515  Biso   1.000  O
  O18      1.0000 0.19160  0.89470  0.87485  Biso   1.000  O
  O19      1.0000 0.02010  0.09480  0.38044  Biso   1.000  O
  O20      1.0000 0.97990  0.09480  0.11956  Biso   1.000  O
  O21      1.0000 0.97990  0.90520  0.61956  Biso   1.000  O
  O22      1.0000 0.02010  0.90520  0.88044  Biso   1.000  O
  N17      1.0000 0.10790  0.14660  0.40730  Biso   1.000  N
  N18      1.0000 0.89210  0.14660  0.09270  Biso   1.000  N
  N19      1.0000 0.89210  0.85340  0.59270  Biso   1.000  N
  N20      1.0000 0.10790  0.85340  0.90730  Biso   1.000  N
