data_image0
_cell_length_a       7.663
_cell_length_b       9.6149
_cell_length_c       13.1391
_cell_angle_alpha    111.325
_cell_angle_beta     92.204
_cell_angle_gamma    103.213

_symmetry_space_group_name_H-M    "P 1"
_symmetry_int_tables_number       1

loop_
  _symmetry_equiv_pos_as_xyz
  'x, y, z'

loop_
  _atom_site_label
  _atom_site_occupancy
  _atom_site_fract_x
  _atom_site_fract_y
  _atom_site_fract_z
  _atom_site_thermal_displace_type
  _atom_site_B_iso_or_equiv
  _atom_site_type_symbol
  Cu1      1.0000 0.77987  0.03083  0.49191  Biso   1.000  Cu
  Cu2      1.0000 0.22013  0.96917  0.50809  Biso   1.000  Cu
  O1       1.0000 0.99530  0.19330  0.56930  Biso   1.000  O
  O2       1.0000 0.00470  0.80670  0.43070  Biso   1.000  O
  O3       1.0000 0.83320  0.09550  0.37320  Biso   1.000  O
  O4       1.0000 0.16680  0.90450  0.62680  Biso   1.000  O
  N1       1.0000 0.56650  0.86710  0.40110  Biso   1.000  N
  N2       1.0000 0.43350  0.13290  0.59890  Biso   1.000  N
  N3       1.0000 0.76120  0.97480  0.62360  Biso   1.000  N
  N4       1.0000 0.23880  0.02520  0.37640  Biso   1.000  N
  O5       1.0000 0.44860  0.79010  0.45280  Biso   1.000  O
  O6       1.0000 0.55140  0.20990  0.54720  Biso   1.000  O
  C1       1.0000 0.60830  0.89410  0.22760  Biso   1.000  C
  C2       1.0000 0.39170  0.10590  0.77240  Biso   1.000  C
  C3       1.0000 0.51790  0.82560  0.29540  Biso   1.000  C
  C4       1.0000 0.48210  0.17440  0.70460  Biso   1.000  C
  O7       1.0000 0.24520  0.45090  0.63560  Biso   1.000  O
  O8       1.0000 0.75480  0.54910  0.36440  Biso   1.000  O
  C5       1.0000 0.84130  0.05870  0.72270  Biso   1.000  C
  C6       1.0000 0.15870  0.94130  0.27730  Biso   1.000  C
  O9       1.0000 0.65450  0.83220  0.61060  Biso   1.000  O
  O10      1.0000 0.34550  0.16780  0.38940  Biso   1.000  O
  C7       1.0000 0.04470  0.26210  0.67650  Biso   1.000  C
  C8       1.0000 0.95530  0.73790  0.32350  Biso   1.000  C
  O11      1.0000 0.98210  0.21480  0.23870  Biso   1.000  O
  O12      1.0000 0.01790  0.78520  0.76130  Biso   1.000  O
  C9       1.0000 0.75920  0.02710  0.27000  Biso   1.000  C
  C10      1.0000 0.24080  0.97290  0.73000  Biso   1.000  C
  C11      1.0000 0.97090  0.20420  0.75400  Biso   1.000  C
  C12      1.0000 0.02910  0.79580  0.24600  Biso   1.000  C
  C13      1.0000 0.18330  0.40350  0.71690  Biso   1.000  C
  C14      1.0000 0.81670  0.59650  0.28310  Biso   1.000  C
  C15      1.0000 0.83500  0.08910  0.19110  Biso   1.000  C
  C16      1.0000 0.16500  0.91090  0.80890  Biso   1.000  C
  C17      1.0000 0.24480  0.48060  0.82870  Biso   1.000  C
  C18      1.0000 0.75520  0.51940  0.17130  Biso   1.000  C
  C19      1.0000 0.03850  0.28810  0.86830  Biso   1.000  C
  C20      1.0000 0.96150  0.71190  0.13170  Biso   1.000  C
  C21      1.0000 0.54100  0.83320  0.11470  Biso   1.000  C
  C22      1.0000 0.45900  0.16680  0.88530  Biso   1.000  C
  C23      1.0000 0.76320  0.02460  0.08070  Biso   1.000  C
  C24      1.0000 0.23680  0.97540  0.91930  Biso   1.000  C
  C25      1.0000 0.16910  0.42090  0.90280  Biso   1.000  C
  C26      1.0000 0.83090  0.57910  0.09720  Biso   1.000  C
  C27      1.0000 0.61470  0.89760  0.04480  Biso   1.000  C
  C28      1.0000 0.38530  0.10240  0.95520  Biso   1.000  C
  Na1      1.0000 0.09820  0.29540  0.43840  Biso   1.000  Na
  Na2      1.0000 0.90180  0.70460  0.56160  Biso   1.000  Na
  C29      1.0000 0.16850  0.53390  0.41980  Biso   1.000  C
  C30      1.0000 0.83150  0.46610  0.58020  Biso   1.000  C
  C31      1.0000 0.07830  0.27480  0.16630  Biso   1.000  C
  C32      1.0000 0.92170  0.72520  0.83370  Biso   1.000  C
  C33      1.0000 0.39660  0.58100  0.66590  Biso   1.000  C
  C34      1.0000 0.60340  0.41900  0.33410  Biso   1.000  C
