data_image0
_cell_length_a       15.1945
_cell_length_b       32.3512
_cell_length_c       10.3612
_cell_angle_alpha    90
_cell_angle_beta     105.798
_cell_angle_gamma    90

_symmetry_space_group_name_H-M    "P 1"
_symmetry_int_tables_number       1

loop_
  _symmetry_equiv_pos_as_xyz
  'x, y, z'

loop_
  _atom_site_label
  _atom_site_occupancy
  _atom_site_fract_x
  _atom_site_fract_y
  _atom_site_fract_z
  _atom_site_thermal_displace_type
  _atom_site_B_iso_or_equiv
  _atom_site_type_symbol
  Cu1      1.0000 0.81675  0.72248  0.01212  Biso   1.000  Cu
  Cu2      1.0000 0.18325  0.22248  0.48788  Biso   1.000  Cu
  Cu3      1.0000 0.18325  0.27752  0.98788  Biso   1.000  Cu
  Cu4      1.0000 0.81675  0.77752  0.51212  Biso   1.000  Cu
  Cu5      1.0000 0.88434  0.77976  0.24278  Biso   1.000  Cu
  Cu6      1.0000 0.11566  0.27976  0.25722  Biso   1.000  Cu
  Cu7      1.0000 0.11566  0.22024  0.75722  Biso   1.000  Cu
  Cu8      1.0000 0.88434  0.72024  0.74278  Biso   1.000  Cu
  Cu9      1.0000 0.95375  0.71551  0.48282  Biso   1.000  Cu
  Cu10     1.0000 0.04625  0.21551  0.01718  Biso   1.000  Cu
  Cu11     1.0000 0.04625  0.28449  0.51718  Biso   1.000  Cu
  Cu12     1.0000 0.95375  0.78449  0.98282  Biso   1.000  Cu
  F1       1.0000 0.36220  0.64200  0.12440  Biso   1.000  F
  F2       1.0000 0.63780  0.14200  0.37560  Biso   1.000  F
  F3       1.0000 0.63780  0.35800  0.87560  Biso   1.000  F
  F4       1.0000 0.36220  0.85800  0.62440  Biso   1.000  F
  F5       1.0000 0.33040  0.68830  0.97140  Biso   1.000  F
  F6       1.0000 0.66960  0.18830  0.52860  Biso   1.000  F
  F7       1.0000 0.66960  0.31170  0.02860  Biso   1.000  F
  F8       1.0000 0.33040  0.81170  0.47140  Biso   1.000  F
  F9       1.0000 0.44080  0.64760  0.98180  Biso   1.000  F
  F10      1.0000 0.55920  0.14760  0.51820  Biso   1.000  F
  F11      1.0000 0.55920  0.35240  0.01820  Biso   1.000  F
  F12      1.0000 0.44080  0.85240  0.48180  Biso   1.000  F
  F13      1.0000 0.42070  0.64420  0.38870  Biso   1.000  F
  F14      1.0000 0.57930  0.14420  0.11130  Biso   1.000  F
  F15      1.0000 0.57930  0.35580  0.61130  Biso   1.000  F
  F16      1.0000 0.42070  0.85580  0.88870  Biso   1.000  F
  F17      1.0000 0.44720  0.69220  0.53040  Biso   1.000  F
  F18      1.0000 0.55280  0.19220  0.96960  Biso   1.000  F
  F19      1.0000 0.55280  0.30780  0.46960  Biso   1.000  F
  F20      1.0000 0.44720  0.80780  0.03040  Biso   1.000  F
  F21      1.0000 0.34100  0.64900  0.52770  Biso   1.000  F
  F22      1.0000 0.65900  0.14900  0.97230  Biso   1.000  F
  F23      1.0000 0.65900  0.35100  0.47230  Biso   1.000  F
  F24      1.0000 0.34100  0.85100  0.02770  Biso   1.000  F
  F25      1.0000 0.75380  0.52480  0.88560  Biso   1.000  F
  F26      1.0000 0.24620  0.02480  0.61440  Biso   1.000  F
  F27      1.0000 0.24620  0.47520  0.11440  Biso   1.000  F
  F28      1.0000 0.75380  0.97520  0.38560  Biso   1.000  F
  F29      1.0000 0.76320  0.47565  0.02670  Biso   1.000  F
  F30      1.0000 0.23680  0.97565  0.47330  Biso   1.000  F
  F31      1.0000 0.23680  0.52435  0.97330  Biso   1.000  F
  F32      1.0000 0.76320  0.02435  0.52670  Biso   1.000  F
  F33      1.0000 0.87630  0.48910  0.95210  Biso   1.000  F
  F34      1.0000 0.12370  0.98910  0.54790  Biso   1.000  F
  F35      1.0000 0.12370  0.51090  0.04790  Biso   1.000  F
  F36      1.0000 0.87630  0.01090  0.45210  Biso   1.000  F
  F37      1.0000 0.83180  0.49060  0.48940  Biso   1.000  F
  F38      1.0000 0.16820  0.99060  0.01060  Biso   1.000  F
  F39      1.0000 0.16820  0.50940  0.51060  Biso   1.000  F
  F40      1.0000 0.83180  0.00940  0.98940  Biso   1.000  F
  F41      1.0000 0.76180  0.43321  0.42370  Biso   1.000  F
  F42      1.0000 0.23820  0.93321  0.07630  Biso   1.000  F
  F43      1.0000 0.23820  0.56679  0.57630  Biso   1.000  F
  F44      1.0000 0.76180  0.06679  0.92370  Biso   1.000  F
  F45      1.0000 0.73930  0.48600  0.29230  Biso   1.000  F
  F46      1.0000 0.26070  0.98600  0.20770  Biso   1.000  F
  F47      1.0000 0.26070  0.51400  0.70770  Biso   1.000  F
  F48      1.0000 0.73930  0.01400  0.79230  Biso   1.000  F
  O1       1.0000 0.70820  0.72480  0.07370  Biso   1.000  O
  O2       1.0000 0.29180  0.22480  0.42630  Biso   1.000  O
  O3       1.0000 0.29180  0.27520  0.92630  Biso   1.000  O
  O4       1.0000 0.70820  0.77520  0.57370  Biso   1.000  O
  O5       1.0000 0.75840  0.76461  0.25870  Biso   1.000  O
  O6       1.0000 0.24160  0.26461  0.24130  Biso   1.000  O
  O7       1.0000 0.24160  0.23539  0.74130  Biso   1.000  O
  O8       1.0000 0.75840  0.73539  0.75870  Biso   1.000  O
  O9       1.0000 0.05700  0.71523  0.41100  Biso   1.000  O
  O10      1.0000 0.94300  0.21523  0.08900  Biso   1.000  O
  O11      1.0000 0.94300  0.28477  0.58900  Biso   1.000  O
  O12      1.0000 0.05700  0.78477  0.91100  Biso   1.000  O
  O13      1.0000 0.00860  0.75410  0.22500  Biso   1.000  O
  O14      1.0000 0.99140  0.25410  0.27500  Biso   1.000  O
  O15      1.0000 0.99140  0.24590  0.77500  Biso   1.000  O
  O16      1.0000 0.00860  0.74590  0.72500  Biso   1.000  O
  O17      1.0000 0.81990  0.66278  0.02150  Biso   1.000  O
  O18      1.0000 0.18010  0.16278  0.47850  Biso   1.000  O
  O19      1.0000 0.18010  0.33722  0.97850  Biso   1.000  O
  O20      1.0000 0.81990  0.83722  0.52150  Biso   1.000  O
  O21      1.0000 0.87140  0.67935  0.23940  Biso   1.000  O
  O22      1.0000 0.12860  0.17935  0.26060  Biso   1.000  O
  O23      1.0000 0.12860  0.32065  0.76060  Biso   1.000  O
  O24      1.0000 0.87140  0.82065  0.73940  Biso   1.000  O
  O25      1.0000 0.00870  0.33821  0.44020  Biso   1.000  O
  O26      1.0000 0.99130  0.83821  0.05980  Biso   1.000  O
  O27      1.0000 0.99130  0.66179  0.55980  Biso   1.000  O
  O28      1.0000 0.00870  0.16179  0.94020  Biso   1.000  O
  O29      1.0000 0.06360  0.33993  0.25730  Biso   1.000  O
  O30      1.0000 0.93640  0.83993  0.24270  Biso   1.000  O
  O31      1.0000 0.93640  0.66007  0.74270  Biso   1.000  O
  O32      1.0000 0.06360  0.16007  0.75730  Biso   1.000  O
  O33      1.0000 0.84550  0.78063  0.04860  Biso   1.000  O
  O34      1.0000 0.15450  0.28063  0.45140  Biso   1.000  O
  O35      1.0000 0.15450  0.21937  0.95140  Biso   1.000  O
  O36      1.0000 0.84550  0.71937  0.54860  Biso   1.000  O
  H1       1.0000 0.80440  0.79690  0.01460  Biso   1.000  H
  H2       1.0000 0.19560  0.29690  0.48540  Biso   1.000  H
  H3       1.0000 0.19560  0.20310  0.98540  Biso   1.000  H
  H4       1.0000 0.80440  0.70310  0.51460  Biso   1.000  H
  O37      1.0000 0.92020  0.77387  0.43400  Biso   1.000  O
  O38      1.0000 0.07980  0.27387  0.06600  Biso   1.000  O
  O39      1.0000 0.07980  0.22613  0.56600  Biso   1.000  O
  O40      1.0000 0.92020  0.72613  0.93400  Biso   1.000  O
  H5       1.0000 0.96950  0.79300  0.47700  Biso   1.000  H
  H6       1.0000 0.03050  0.29300  0.02300  Biso   1.000  H
  H7       1.0000 0.03050  0.20700  0.52300  Biso   1.000  H
  H8       1.0000 0.96950  0.70700  0.97700  Biso   1.000  H
  C1       1.0000 0.69980  0.74250  0.17740  Biso   1.000  C
  C2       1.0000 0.30020  0.24250  0.32260  Biso   1.000  C
  C3       1.0000 0.30020  0.25750  0.82260  Biso   1.000  C
  C4       1.0000 0.69980  0.75750  0.67740  Biso   1.000  C
  C5       1.0000 0.60890  0.73550  0.20480  Biso   1.000  C
  C6       1.0000 0.39110  0.23550  0.29520  Biso   1.000  C
  C7       1.0000 0.39110  0.26450  0.79520  Biso   1.000  C
  C8       1.0000 0.60890  0.76450  0.70480  Biso   1.000  C
  C9       1.0000 0.55040  0.70540  0.13290  Biso   1.000  C
  C10      1.0000 0.44960  0.20540  0.36710  Biso   1.000  C
  C11      1.0000 0.44960  0.29460  0.86710  Biso   1.000  C
  C12      1.0000 0.55040  0.79460  0.63290  Biso   1.000  C
  H9       1.0000 0.57010  0.68910  0.07240  Biso   1.000  H
  H10      1.0000 0.42990  0.18910  0.42760  Biso   1.000  H
  H11      1.0000 0.42990  0.31090  0.92760  Biso   1.000  H
  H12      1.0000 0.57010  0.81090  0.57240  Biso   1.000  H
  C13      1.0000 0.46290  0.69900  0.14860  Biso   1.000  C
  C14      1.0000 0.53710  0.19900  0.35140  Biso   1.000  C
  C15      1.0000 0.53710  0.30100  0.85140  Biso   1.000  C
  C16      1.0000 0.46290  0.80100  0.64860  Biso   1.000  C
  C17      1.0000 0.43440  0.72350  0.24130  Biso   1.000  C
  C18      1.0000 0.56560  0.22350  0.25870  Biso   1.000  C
  C19      1.0000 0.56560  0.27650  0.75870  Biso   1.000  C
  C20      1.0000 0.43440  0.77650  0.74130  Biso   1.000  C
  C21      1.0000 0.49240  0.75350  0.31070  Biso   1.000  C
  C22      1.0000 0.50760  0.25350  0.18930  Biso   1.000  C
  C23      1.0000 0.50760  0.24650  0.68930  Biso   1.000  C
  C24      1.0000 0.49240  0.74650  0.81070  Biso   1.000  C
  H13      1.0000 0.47350  0.76970  0.37230  Biso   1.000  H
  H14      1.0000 0.52650  0.26970  0.12770  Biso   1.000  H
  H15      1.0000 0.52650  0.23030  0.62770  Biso   1.000  H
  H16      1.0000 0.47350  0.73030  0.87230  Biso   1.000  H
  C25      1.0000 0.57760  0.76040  0.29190  Biso   1.000  C
  C26      1.0000 0.42240  0.26040  0.20810  Biso   1.000  C
  C27      1.0000 0.42240  0.23960  0.70810  Biso   1.000  C
  C28      1.0000 0.57760  0.73960  0.79190  Biso   1.000  C
  H17      1.0000 0.61400  0.78180  0.33760  Biso   1.000  H
  H18      1.0000 0.38600  0.28180  0.16240  Biso   1.000  H
  H19      1.0000 0.38600  0.21820  0.66240  Biso   1.000  H
  H20      1.0000 0.61400  0.71820  0.83760  Biso   1.000  H
  C29      1.0000 0.40010  0.66830  0.05870  Biso   1.000  C
  C30      1.0000 0.59990  0.16830  0.44130  Biso   1.000  C
  C31      1.0000 0.59990  0.33170  0.94130  Biso   1.000  C
  C32      1.0000 0.40010  0.83170  0.55870  Biso   1.000  C
  C33      1.0000 0.33940  0.72190  0.25810  Biso   1.000  C
  C34      1.0000 0.66060  0.22190  0.24190  Biso   1.000  C
  C35      1.0000 0.66060  0.27810  0.74190  Biso   1.000  C
  C36      1.0000 0.33940  0.77810  0.75810  Biso   1.000  C
  C37      1.0000 0.31290  0.69820  0.35450  Biso   1.000  C
  C38      1.0000 0.68710  0.19820  0.14550  Biso   1.000  C
  C39      1.0000 0.68710  0.30180  0.64550  Biso   1.000  C
  C40      1.0000 0.31290  0.80180  0.85450  Biso   1.000  C
  C41      1.0000 0.22470  0.70180  0.36790  Biso   1.000  C
  C42      1.0000 0.77530  0.20180  0.13210  Biso   1.000  C
  C43      1.0000 0.77530  0.29820  0.63210  Biso   1.000  C
  C44      1.0000 0.22470  0.79820  0.86790  Biso   1.000  C
  H21      1.0000 0.20730  0.68570  0.43120  Biso   1.000  H
  H22      1.0000 0.79270  0.18570  0.06880  Biso   1.000  H
  H23      1.0000 0.79270  0.31430  0.56880  Biso   1.000  H
  H24      1.0000 0.20730  0.81430  0.93120  Biso   1.000  H
  C45      1.0000 0.16210  0.72900  0.28820  Biso   1.000  C
  C46      1.0000 0.83790  0.22900  0.21180  Biso   1.000  C
  C47      1.0000 0.83790  0.27100  0.71180  Biso   1.000  C
  C48      1.0000 0.16210  0.77100  0.78820  Biso   1.000  C
  C49      1.0000 0.18770  0.75290  0.19520  Biso   1.000  C
  C50      1.0000 0.81230  0.25290  0.30480  Biso   1.000  C
  C51      1.0000 0.81230  0.24710  0.80480  Biso   1.000  C
  C52      1.0000 0.18770  0.74710  0.69520  Biso   1.000  C
  H25      1.0000 0.14660  0.77130  0.14170  Biso   1.000  H
  H26      1.0000 0.85340  0.27130  0.35830  Biso   1.000  H
  H27      1.0000 0.85340  0.22870  0.85830  Biso   1.000  H
  H28      1.0000 0.14660  0.72870  0.64170  Biso   1.000  H
  C53      1.0000 0.27590  0.74920  0.18230  Biso   1.000  C
  C54      1.0000 0.72410  0.24920  0.31770  Biso   1.000  C
  C55      1.0000 0.72410  0.25080  0.81770  Biso   1.000  C
  C56      1.0000 0.27590  0.75080  0.68230  Biso   1.000  C
  H29      1.0000 0.29310  0.76580  0.11990  Biso   1.000  H
  H30      1.0000 0.70690  0.26580  0.38010  Biso   1.000  H
  H31      1.0000 0.70690  0.23420  0.88010  Biso   1.000  H
  H32      1.0000 0.29310  0.73420  0.61990  Biso   1.000  H
  C57      1.0000 0.37800  0.67080  0.44910  Biso   1.000  C
  C58      1.0000 0.62200  0.17080  0.05090  Biso   1.000  C
  C59      1.0000 0.62200  0.32920  0.55090  Biso   1.000  C
  C60      1.0000 0.37800  0.82920  0.94910  Biso   1.000  C
  C61      1.0000 0.06820  0.73350  0.30820  Biso   1.000  C
  C62      1.0000 0.93180  0.23350  0.19180  Biso   1.000  C
  C63      1.0000 0.93180  0.26650  0.69180  Biso   1.000  C
  C64      1.0000 0.06820  0.76650  0.80820  Biso   1.000  C
  C65      1.0000 0.85090  0.65350  0.14630  Biso   1.000  C
  C66      1.0000 0.14910  0.15350  0.35370  Biso   1.000  C
  C67      1.0000 0.14910  0.34650  0.85370  Biso   1.000  C
  C68      1.0000 0.85090  0.84650  0.64630  Biso   1.000  C
  C69      1.0000 0.86260  0.60810  0.17760  Biso   1.000  C
  C70      1.0000 0.13740  0.10810  0.32240  Biso   1.000  C
  C71      1.0000 0.13740  0.39190  0.82240  Biso   1.000  C
  C72      1.0000 0.86260  0.89190  0.67760  Biso   1.000  C
  C73      1.0000 0.83030  0.57890  0.07840  Biso   1.000  C
  C74      1.0000 0.16970  0.07890  0.42160  Biso   1.000  C
  C75      1.0000 0.16970  0.42110  0.92160  Biso   1.000  C
  C76      1.0000 0.83030  0.92110  0.57840  Biso   1.000  C
  H33      1.0000 0.79780  0.58740  0.99300  Biso   1.000  H
  H34      1.0000 0.20220  0.08740  0.50700  Biso   1.000  H
  H35      1.0000 0.20220  0.41260  0.00700  Biso   1.000  H
  H36      1.0000 0.79780  0.91260  0.49300  Biso   1.000  H
  C77      1.0000 0.84560  0.53690  0.10480  Biso   1.000  C
  C78      1.0000 0.15440  0.03690  0.39520  Biso   1.000  C
  C79      1.0000 0.15440  0.46310  0.89520  Biso   1.000  C
  C80      1.0000 0.84560  0.96310  0.60480  Biso   1.000  C
  C81      1.0000 0.89430  0.52380  0.23200  Biso   1.000  C
  C82      1.0000 0.10570  0.02380  0.26800  Biso   1.000  C
  C83      1.0000 0.10570  0.47620  0.76800  Biso   1.000  C
  C84      1.0000 0.89430  0.97620  0.73200  Biso   1.000  C
  C85      1.0000 0.92620  0.55320  0.32970  Biso   1.000  C
  C86      1.0000 0.07380  0.05320  0.17030  Biso   1.000  C
  C87      1.0000 0.07380  0.44680  0.67030  Biso   1.000  C
  C88      1.0000 0.92620  0.94680  0.82970  Biso   1.000  C
  H37      1.0000 0.95900  0.54470  0.41510  Biso   1.000  H
  H38      1.0000 0.04100  0.04470  0.08490  Biso   1.000  H
  H39      1.0000 0.04100  0.45530  0.58490  Biso   1.000  H
  H40      1.0000 0.95900  0.95530  0.91510  Biso   1.000  H
  C89      1.0000 0.91070  0.59500  0.30390  Biso   1.000  C
  C90      1.0000 0.08930  0.09500  0.19610  Biso   1.000  C
  C91      1.0000 0.08930  0.40500  0.69610  Biso   1.000  C
  C92      1.0000 0.91070  0.90500  0.80390  Biso   1.000  C
  H41      1.0000 0.93260  0.61420  0.37180  Biso   1.000  H
  H42      1.0000 0.06740  0.11420  0.12820  Biso   1.000  H
  H43      1.0000 0.06740  0.38580  0.62820  Biso   1.000  H
  H44      1.0000 0.93260  0.88580  0.87180  Biso   1.000  H
  C93      1.0000 0.80770  0.50730  0.99350  Biso   1.000  C
  C94      1.0000 0.19230  0.00730  0.50650  Biso   1.000  C
  C95      1.0000 0.19230  0.49270  0.00650  Biso   1.000  C
  C96      1.0000 0.80770  0.99270  0.49350  Biso   1.000  C
  C97      1.0000 0.92210  0.47940  0.26020  Biso   1.000  C
  C98      1.0000 0.07790  0.97940  0.23980  Biso   1.000  C
  C99      1.0000 0.07790  0.52060  0.73980  Biso   1.000  C
  C100     1.0000 0.92210  0.02060  0.76020  Biso   1.000  C
  C101     1.0000 0.88090  0.45200  0.32960  Biso   1.000  C
  C102     1.0000 0.11910  0.95200  0.17040  Biso   1.000  C
  C103     1.0000 0.11910  0.54800  0.67040  Biso   1.000  C
  C104     1.0000 0.88090  0.04800  0.82960  Biso   1.000  C
  C105     1.0000 0.91550  0.41200  0.35560  Biso   1.000  C
  C106     1.0000 0.08450  0.91200  0.14440  Biso   1.000  C
  C107     1.0000 0.08450  0.58800  0.64440  Biso   1.000  C
  C108     1.0000 0.91550  0.08800  0.85560  Biso   1.000  C
  H45      1.0000 0.88890  0.39400  0.40420  Biso   1.000  H
  H46      1.0000 0.11110  0.89400  0.09580  Biso   1.000  H
  H47      1.0000 0.11110  0.60600  0.59580  Biso   1.000  H
  H48      1.0000 0.88890  0.10600  0.90420  Biso   1.000  H
  C109     1.0000 0.98810  0.39830  0.31120  Biso   1.000  C
  C110     1.0000 0.01190  0.89830  0.18880  Biso   1.000  C
  C111     1.0000 0.01190  0.60170  0.68880  Biso   1.000  C
  C112     1.0000 0.98810  0.10170  0.81120  Biso   1.000  C
  C113     1.0000 0.02940  0.42600  0.24340  Biso   1.000  C
  C114     1.0000 0.97060  0.92600  0.25660  Biso   1.000  C
  C115     1.0000 0.97060  0.57400  0.75660  Biso   1.000  C
  C116     1.0000 0.02940  0.07400  0.74340  Biso   1.000  C
  H49      1.0000 0.07920  0.41770  0.21390  Biso   1.000  H
  H50      1.0000 0.92080  0.91770  0.28610  Biso   1.000  H
  H51      1.0000 0.92080  0.58230  0.78610  Biso   1.000  H
  H52      1.0000 0.07920  0.08230  0.71390  Biso   1.000  H
  C117     1.0000 0.99730  0.46550  0.21990  Biso   1.000  C
  C118     1.0000 0.00270  0.96550  0.28010  Biso   1.000  C
  C119     1.0000 0.00270  0.53450  0.78010  Biso   1.000  C
  C120     1.0000 0.99730  0.03450  0.71990  Biso   1.000  C
  H53      1.0000 0.02650  0.48370  0.17560  Biso   1.000  H
  H54      1.0000 0.97350  0.98370  0.32440  Biso   1.000  H
  H55      1.0000 0.97350  0.51630  0.82440  Biso   1.000  H
  H56      1.0000 0.02650  0.01630  0.67560  Biso   1.000  H
  C121     1.0000 0.80340  0.46490  0.38350  Biso   1.000  C
  C122     1.0000 0.19660  0.96490  0.11650  Biso   1.000  C
  C123     1.0000 0.19660  0.53510  0.61650  Biso   1.000  C
  C124     1.0000 0.80340  0.03510  0.88350  Biso   1.000  C
  C125     1.0000 0.02290  0.35501  0.33820  Biso   1.000  C
  C126     1.0000 0.97710  0.85501  0.16180  Biso   1.000  C
  C127     1.0000 0.97710  0.64499  0.66180  Biso   1.000  C
  C128     1.0000 0.02290  0.14499  0.83820  Biso   1.000  C
  F49      1.0000 0.82400  0.46820  0.02900  Biso   1.000  F
  F50      1.0000 0.17600  0.96820  0.47100  Biso   1.000  F
  F51      1.0000 0.17600  0.53180  0.97100  Biso   1.000  F
  F52      1.0000 0.82400  0.03180  0.52900  Biso   1.000  F
  F53      1.0000 0.83800  0.51380  0.88700  Biso   1.000  F
  F54      1.0000 0.16200  0.01380  0.61300  Biso   1.000  F
  F55      1.0000 0.16200  0.48620  0.11300  Biso   1.000  F
  F56      1.0000 0.83800  0.98620  0.38700  Biso   1.000  F
  F57      1.0000 0.71610  0.51080  0.94800  Biso   1.000  F
  F58      1.0000 0.28390  0.01080  0.55200  Biso   1.000  F
  F59      1.0000 0.28390  0.48920  0.05200  Biso   1.000  F
  F60      1.0000 0.71610  0.98920  0.44800  Biso   1.000  F
  F61      1.0000 0.82500  0.46300  0.51680  Biso   1.000  F
  F62      1.0000 0.17500  0.96300  0.98320  Biso   1.000  F
  F63      1.0000 0.17500  0.53700  0.48320  Biso   1.000  F
  F64      1.0000 0.82500  0.03700  0.01680  Biso   1.000  F
  F65      1.0000 0.77600  0.50340  0.35000  Biso   1.000  F
  F66      1.0000 0.22400  0.00340  0.15000  Biso   1.000  F
  F67      1.0000 0.22400  0.49660  0.65000  Biso   1.000  F
  F68      1.0000 0.77600  0.99660  0.85000  Biso   1.000  F
  F69      1.0000 0.73000  0.44080  0.33800  Biso   1.000  F
  F70      1.0000 0.27000  0.94080  0.16200  Biso   1.000  F
  F71      1.0000 0.27000  0.55920  0.66200  Biso   1.000  F
  F72      1.0000 0.73000  0.05920  0.83800  Biso   1.000  F
  F73      1.0000 0.38900  0.67610  0.93040  Biso   1.000  F
  F74      1.0000 0.61100  0.17610  0.56960  Biso   1.000  F
  F75      1.0000 0.61100  0.32390  0.06960  Biso   1.000  F
  F76      1.0000 0.38900  0.82390  0.43040  Biso   1.000  F
  F77      1.0000 0.31890  0.66630  0.08200  Biso   1.000  F
  F78      1.0000 0.68110  0.16630  0.41800  Biso   1.000  F
  F79      1.0000 0.68110  0.33370  0.91800  Biso   1.000  F
  F80      1.0000 0.31890  0.83370  0.58200  Biso   1.000  F
  F81      1.0000 0.43630  0.63000  0.08100  Biso   1.000  F
  F82      1.0000 0.56370  0.13000  0.41900  Biso   1.000  F
  F83      1.0000 0.56370  0.37000  0.91900  Biso   1.000  F
  F84      1.0000 0.43630  0.87000  0.58100  Biso   1.000  F
  F85      1.0000 0.35810  0.63070  0.42400  Biso   1.000  F
  F86      1.0000 0.64190  0.13070  0.07600  Biso   1.000  F
  F87      1.0000 0.64190  0.36930  0.57600  Biso   1.000  F
  F88      1.0000 0.35810  0.86930  0.92400  Biso   1.000  F
  F89      1.0000 0.37580  0.67600  0.57580  Biso   1.000  F
  F90      1.0000 0.62420  0.17600  0.92420  Biso   1.000  F
  F91      1.0000 0.62420  0.32400  0.42420  Biso   1.000  F
  F92      1.0000 0.37580  0.82400  0.07580  Biso   1.000  F
  F93      1.0000 0.46410  0.67510  0.44900  Biso   1.000  F
  F94      1.0000 0.53590  0.17510  0.05100  Biso   1.000  F
  F95      1.0000 0.53590  0.32490  0.55100  Biso   1.000  F
  F96      1.0000 0.46410  0.82490  0.94900  Biso   1.000  F
  O41      1.0000 0.70960  0.63140  0.75970  Biso   1.000  O
  O42      1.0000 0.29040  0.13140  0.74030  Biso   1.000  O
  O43      1.0000 0.29040  0.36860  0.24030  Biso   1.000  O
  O44      1.0000 0.70960  0.86860  0.25970  Biso   1.000  O
  H57      1.0000 0.74200  0.64000  0.83140  Biso   1.000  H
  H58      1.0000 0.25800  0.14000  0.66860  Biso   1.000  H
  H59      1.0000 0.25800  0.36000  0.16860  Biso   1.000  H
  H60      1.0000 0.74200  0.86000  0.33140  Biso   1.000  H
  C129     1.0000 0.62170  0.62420  0.79200  Biso   1.000  C
  C130     1.0000 0.37830  0.12420  0.70800  Biso   1.000  C
  C131     1.0000 0.37830  0.37580  0.20800  Biso   1.000  C
  C132     1.0000 0.62170  0.87580  0.29200  Biso   1.000  C
  H61      1.0000 0.63270  0.61680  0.88610  Biso   1.000  H
  H62      1.0000 0.36730  0.11680  0.61390  Biso   1.000  H
  H63      1.0000 0.36730  0.38320  0.11390  Biso   1.000  H
  H64      1.0000 0.63270  0.88320  0.38610  Biso   1.000  H
  H65      1.0000 0.58430  0.64900  0.77520  Biso   1.000  H
  H66      1.0000 0.41570  0.14900  0.72480  Biso   1.000  H
  H67      1.0000 0.41570  0.35100  0.22480  Biso   1.000  H
  H68      1.0000 0.58430  0.85100  0.27520  Biso   1.000  H
  C133     1.0000 0.57500  0.59000  0.70600  Biso   1.000  C
  C134     1.0000 0.42500  0.09000  0.79400  Biso   1.000  C
  C135     1.0000 0.42500  0.41000  0.29400  Biso   1.000  C
  C136     1.0000 0.57500  0.91000  0.20600  Biso   1.000  C
  H69      1.0000 0.61690  0.56700  0.71130  Biso   1.000  H
  H70      1.0000 0.38310  0.06700  0.78870  Biso   1.000  H
  H71      1.0000 0.38310  0.43300  0.28870  Biso   1.000  H
  H72      1.0000 0.61690  0.93300  0.21130  Biso   1.000  H
  H73      1.0000 0.55530  0.59920  0.61320  Biso   1.000  H
  H74      1.0000 0.44470  0.09920  0.88680  Biso   1.000  H
  H75      1.0000 0.44470  0.40080  0.38680  Biso   1.000  H
  H76      1.0000 0.55530  0.90080  0.11320  Biso   1.000  H
  C137     1.0000 0.49390  0.57630  0.75100  Biso   1.000  C
  C138     1.0000 0.50610  0.07630  0.74900  Biso   1.000  C
  C139     1.0000 0.50610  0.42370  0.24900  Biso   1.000  C
  C140     1.0000 0.49390  0.92370  0.25100  Biso   1.000  C
  H77      1.0000 0.44300  0.59420  0.71270  Biso   1.000  H
  H78      1.0000 0.55700  0.09420  0.78730  Biso   1.000  H
  H79      1.0000 0.55700  0.40580  0.28730  Biso   1.000  H
  H80      1.0000 0.44300  0.90580  0.21270  Biso   1.000  H
  H81      1.0000 0.50840  0.57760  0.84680  Biso   1.000  H
  H82      1.0000 0.49160  0.07760  0.65320  Biso   1.000  H
  H83      1.0000 0.49160  0.42240  0.15320  Biso   1.000  H
  H84      1.0000 0.50840  0.92240  0.34680  Biso   1.000  H
  H85      1.0000 0.47820  0.54850  0.72150  Biso   1.000  H
  H86      1.0000 0.52180  0.04850  0.77850  Biso   1.000  H
  H87      1.0000 0.52180  0.45150  0.27850  Biso   1.000  H
  H88      1.0000 0.47820  0.95150  0.22150  Biso   1.000  H
  O45      1.0000 0.74490  0.65590  0.52010  Biso   1.000  O
  O46      1.0000 0.25510  0.15590  0.97990  Biso   1.000  O
  O47      1.0000 0.25510  0.34410  0.47990  Biso   1.000  O
  O48      1.0000 0.74490  0.84410  0.02010  Biso   1.000  O
  H89      1.0000 0.71320  0.64830  0.57070  Biso   1.000  H
  H90      1.0000 0.28680  0.14830  0.92930  Biso   1.000  H
  H91      1.0000 0.28680  0.35170  0.42930  Biso   1.000  H
  H92      1.0000 0.71320  0.85170  0.07070  Biso   1.000  H
  C141     1.0000 0.68580  0.64150  0.39380  Biso   1.000  C
  C142     1.0000 0.31420  0.14150  0.10620  Biso   1.000  C
  C143     1.0000 0.31420  0.35850  0.60620  Biso   1.000  C
  C144     1.0000 0.68580  0.85850  0.89380  Biso   1.000  C
  H93      1.0000 0.70590  0.65300  0.32010  Biso   1.000  H
  H94      1.0000 0.29410  0.15300  0.17990  Biso   1.000  H
  H95      1.0000 0.29410  0.34700  0.67990  Biso   1.000  H
  H96      1.0000 0.70590  0.84700  0.82010  Biso   1.000  H
  H97      1.0000 0.62360  0.65070  0.38460  Biso   1.000  H
  H98      1.0000 0.37640  0.15070  0.11540  Biso   1.000  H
  H99      1.0000 0.37640  0.34930  0.61540  Biso   1.000  H
  H100     1.0000 0.62360  0.84930  0.88460  Biso   1.000  H
  C145     1.0000 0.68800  0.59600  0.38900  Biso   1.000  C
  C146     1.0000 0.31200  0.09600  0.11100  Biso   1.000  C
  C147     1.0000 0.31200  0.40400  0.61100  Biso   1.000  C
  C148     1.0000 0.68800  0.90400  0.88900  Biso   1.000  C
  H101     1.0000 0.67210  0.58450  0.46580  Biso   1.000  H
  H102     1.0000 0.32790  0.08450  0.03420  Biso   1.000  H
  H103     1.0000 0.32790  0.41550  0.53420  Biso   1.000  H
  H104     1.0000 0.67210  0.91550  0.96580  Biso   1.000  H
  H105     1.0000 0.74960  0.58680  0.39170  Biso   1.000  H
  H106     1.0000 0.25040  0.08680  0.10830  Biso   1.000  H
  H107     1.0000 0.25040  0.41320  0.60830  Biso   1.000  H
  H108     1.0000 0.74960  0.91320  0.89170  Biso   1.000  H
  C149     1.0000 0.62200  0.58160  0.26170  Biso   1.000  C
  C150     1.0000 0.37800  0.08160  0.23830  Biso   1.000  C
  C151     1.0000 0.37800  0.41840  0.73830  Biso   1.000  C
  C152     1.0000 0.62200  0.91840  0.76170  Biso   1.000  C
  H109     1.0000 0.62320  0.55190  0.25760  Biso   1.000  H
  H110     1.0000 0.37680  0.05190  0.24240  Biso   1.000  H
  H111     1.0000 0.37680  0.44810  0.74240  Biso   1.000  H
  H112     1.0000 0.62320  0.94810  0.75760  Biso   1.000  H
  H113     1.0000 0.56150  0.59060  0.25990  Biso   1.000  H
  H114     1.0000 0.43850  0.09060  0.24010  Biso   1.000  H
  H115     1.0000 0.43850  0.40940  0.74010  Biso   1.000  H
  H116     1.0000 0.56150  0.90940  0.75990  Biso   1.000  H
  H117     1.0000 0.63870  0.59290  0.18610  Biso   1.000  H
  H118     1.0000 0.36130  0.09290  0.31390  Biso   1.000  H
  H119     1.0000 0.36130  0.40710  0.81390  Biso   1.000  H
  H120     1.0000 0.63870  0.90710  0.68610  Biso   1.000  H
  O49      1.0000 0.71460  0.65780  0.53300  Biso   1.000  O
  O50      1.0000 0.28540  0.15780  0.96700  Biso   1.000  O
  O51      1.0000 0.28540  0.34220  0.46700  Biso   1.000  O
  O52      1.0000 0.71460  0.84220  0.03300  Biso   1.000  O
  H121     1.0000 0.74990  0.63730  0.54600  Biso   1.000  H
  H122     1.0000 0.25010  0.13730  0.95400  Biso   1.000  H
  H123     1.0000 0.25010  0.36270  0.45400  Biso   1.000  H
  H124     1.0000 0.74990  0.86270  0.04600  Biso   1.000  H
  H125     1.0000 0.64150  0.66000  0.33680  Biso   1.000  H
  H126     1.0000 0.35850  0.16000  0.16320  Biso   1.000  H
  H127     1.0000 0.35850  0.34000  0.66320  Biso   1.000  H
  H128     1.0000 0.64150  0.84000  0.83680  Biso   1.000  H
  H129     1.0000 0.73810  0.63930  0.35770  Biso   1.000  H
  H130     1.0000 0.26190  0.13930  0.14230  Biso   1.000  H
  H131     1.0000 0.26190  0.36070  0.64230  Biso   1.000  H
  H132     1.0000 0.73810  0.86070  0.85770  Biso   1.000  H
  H133     1.0000 0.59520  0.55480  0.26440  Biso   1.000  H
  H134     1.0000 0.40480  0.05480  0.23560  Biso   1.000  H
  H135     1.0000 0.40480  0.44520  0.73560  Biso   1.000  H
  H136     1.0000 0.59520  0.94520  0.76440  Biso   1.000  H
  H137     1.0000 0.57930  0.59890  0.19960  Biso   1.000  H
  H138     1.0000 0.42070  0.09890  0.30040  Biso   1.000  H
  H139     1.0000 0.42070  0.40110  0.80040  Biso   1.000  H
  H140     1.0000 0.57930  0.90110  0.69960  Biso   1.000  H
  H141     1.0000 0.67670  0.57870  0.23320  Biso   1.000  H
  H142     1.0000 0.32330  0.07870  0.26680  Biso   1.000  H
  H143     1.0000 0.32330  0.42130  0.76680  Biso   1.000  H
  H144     1.0000 0.67670  0.92130  0.73320  Biso   1.000  H
  C153     1.0000 0.64500  0.60060  0.39800  Biso   1.000  C
  C154     1.0000 0.35500  0.10060  0.10200  Biso   1.000  C
  C155     1.0000 0.35500  0.39940  0.60200  Biso   1.000  C
  C156     1.0000 0.64500  0.89940  0.89800  Biso   1.000  C
  H145     1.0000 0.58970  0.60330  0.42810  Biso   1.000  H
  H146     1.0000 0.41030  0.10330  0.07190  Biso   1.000  H
  H147     1.0000 0.41030  0.39670  0.57190  Biso   1.000  H
  H148     1.0000 0.58970  0.89670  0.92810  Biso   1.000  H
  H149     1.0000 0.68740  0.58300  0.46170  Biso   1.000  H
  H150     1.0000 0.31260  0.08300  0.03830  Biso   1.000  H
  H151     1.0000 0.31260  0.41700  0.53830  Biso   1.000  H
  H152     1.0000 0.68740  0.91700  0.96170  Biso   1.000  H
  O53      1.0000 0.03940  0.66630  0.01340  Biso   1.000  O
  O54      1.0000 0.96060  0.16630  0.48660  Biso   1.000  O
  O55      1.0000 0.96060  0.33370  0.98660  Biso   1.000  O
  O56      1.0000 0.03940  0.83370  0.51340  Biso   1.000  O
  H153     1.0000 0.02380  0.64450  0.94110  Biso   1.000  H
  H154     1.0000 0.97620  0.14450  0.55890  Biso   1.000  H
  H155     1.0000 0.97620  0.35550  0.05890  Biso   1.000  H
  H156     1.0000 0.02380  0.85550  0.44110  Biso   1.000  H
  C157     1.0000 0.05890  0.63470  0.11550  Biso   1.000  C
  C158     1.0000 0.94110  0.13470  0.38450  Biso   1.000  C
  C159     1.0000 0.94110  0.36530  0.88450  Biso   1.000  C
  C160     1.0000 0.05890  0.86530  0.61550  Biso   1.000  C
  H157     1.0000 0.01410  0.61270  0.09090  Biso   1.000  H
  H158     1.0000 0.98590  0.11270  0.40910  Biso   1.000  H
  H159     1.0000 0.98590  0.38730  0.90910  Biso   1.000  H
  H160     1.0000 0.01410  0.88730  0.59090  Biso   1.000  H
  H161     1.0000 0.05520  0.64640  0.20010  Biso   1.000  H
  H162     1.0000 0.94480  0.14640  0.29990  Biso   1.000  H
  H163     1.0000 0.94480  0.35360  0.79990  Biso   1.000  H
  H164     1.0000 0.05520  0.85360  0.70010  Biso   1.000  H
  C161     1.0000 0.15150  0.61790  0.13040  Biso   1.000  C
  C162     1.0000 0.84850  0.11790  0.36960  Biso   1.000  C
  C163     1.0000 0.84850  0.38210  0.86960  Biso   1.000  C
  C164     1.0000 0.15150  0.88210  0.63040  Biso   1.000  C
  H165     1.0000 0.19580  0.64020  0.14590  Biso   1.000  H
  H166     1.0000 0.80420  0.14020  0.35410  Biso   1.000  H
  H167     1.0000 0.80420  0.35980  0.85410  Biso   1.000  H
  H168     1.0000 0.19580  0.85980  0.64590  Biso   1.000  H
  H169     1.0000 0.15360  0.60350  0.04910  Biso   1.000  H
  H170     1.0000 0.84640  0.10350  0.45090  Biso   1.000  H
  H171     1.0000 0.84640  0.39650  0.95090  Biso   1.000  H
  H172     1.0000 0.15360  0.89650  0.54910  Biso   1.000  H
  C165     1.0000 0.17430  0.58850  0.24700  Biso   1.000  C
  C166     1.0000 0.82570  0.08850  0.25300  Biso   1.000  C
  C167     1.0000 0.82570  0.41150  0.75300  Biso   1.000  C
  C168     1.0000 0.17430  0.91150  0.74700  Biso   1.000  C
  H173     1.0000 0.13710  0.56420  0.22460  Biso   1.000  H
  H174     1.0000 0.86290  0.06420  0.27540  Biso   1.000  H
  H175     1.0000 0.86290  0.43580  0.77540  Biso   1.000  H
  H176     1.0000 0.13710  0.93580  0.72460  Biso   1.000  H
  H177     1.0000 0.16280  0.60160  0.32390  Biso   1.000  H
  H178     1.0000 0.83720  0.10160  0.17610  Biso   1.000  H
  H179     1.0000 0.83720  0.39840  0.67610  Biso   1.000  H
  H180     1.0000 0.16280  0.89840  0.82390  Biso   1.000  H
  H181     1.0000 0.23770  0.58090  0.26690  Biso   1.000  H
  H182     1.0000 0.76230  0.08090  0.23310  Biso   1.000  H
  H183     1.0000 0.76230  0.41910  0.73310  Biso   1.000  H
  H184     1.0000 0.23770  0.91910  0.76690  Biso   1.000  H
  C169     1.0000 0.13150  0.65270  0.02600  Biso   1.000  C
  C170     1.0000 0.86850  0.15270  0.47400  Biso   1.000  C
  C171     1.0000 0.86850  0.34730  0.97400  Biso   1.000  C
  C172     1.0000 0.13150  0.84730  0.52600  Biso   1.000  C
  H185     1.0000 0.17390  0.66810  0.09620  Biso   1.000  H
  H186     1.0000 0.82610  0.16810  0.40380  Biso   1.000  H
  H187     1.0000 0.82610  0.33190  0.90380  Biso   1.000  H
  H188     1.0000 0.17390  0.83190  0.59620  Biso   1.000  H
  H189     1.0000 0.14720  0.65760  0.94230  Biso   1.000  H
  H190     1.0000 0.85280  0.15760  0.55770  Biso   1.000  H
  H191     1.0000 0.85280  0.34240  0.05770  Biso   1.000  H
  H192     1.0000 0.14720  0.84240  0.44230  Biso   1.000  H
  C173     1.0000 0.13840  0.60810  0.05800  Biso   1.000  C
  C174     1.0000 0.86160  0.10810  0.44200  Biso   1.000  C
  C175     1.0000 0.86160  0.39190  0.94200  Biso   1.000  C
  C176     1.0000 0.13840  0.89190  0.55800  Biso   1.000  C
  H193     1.0000 0.19400  0.59700  0.04260  Biso   1.000  H
  H194     1.0000 0.80600  0.09700  0.45740  Biso   1.000  H
  H195     1.0000 0.80600  0.40300  0.95740  Biso   1.000  H
  H196     1.0000 0.19400  0.90300  0.54260  Biso   1.000  H
  H197     1.0000 0.08680  0.59360  0.99970  Biso   1.000  H
  H198     1.0000 0.91320  0.09360  0.50030  Biso   1.000  H
  H199     1.0000 0.91320  0.40640  0.00030  Biso   1.000  H
  H200     1.0000 0.08680  0.90640  0.49970  Biso   1.000  H
  C177     1.0000 0.13900  0.60150  0.20100  Biso   1.000  C
  C178     1.0000 0.86100  0.10150  0.29900  Biso   1.000  C
  C179     1.0000 0.86100  0.39850  0.79900  Biso   1.000  C
  C180     1.0000 0.13900  0.89850  0.70100  Biso   1.000  C
  H201     1.0000 0.12570  0.62710  0.23810  Biso   1.000  H
  H202     1.0000 0.87430  0.12710  0.26190  Biso   1.000  H
  H203     1.0000 0.87430  0.37290  0.76190  Biso   1.000  H
  H204     1.0000 0.12570  0.87290  0.73810  Biso   1.000  H
  H205     1.0000 0.19890  0.59210  0.25060  Biso   1.000  H
  H206     1.0000 0.80110  0.09210  0.24940  Biso   1.000  H
  H207     1.0000 0.80110  0.40790  0.74940  Biso   1.000  H
  H208     1.0000 0.19890  0.90790  0.75060  Biso   1.000  H
  H209     1.0000 0.09440  0.58120  0.20550  Biso   1.000  H
  H210     1.0000 0.90560  0.08120  0.29450  Biso   1.000  H
  H211     1.0000 0.90560  0.41880  0.79450  Biso   1.000  H
  H212     1.0000 0.09440  0.91880  0.70550  Biso   1.000  H
