data_image0
_cell_length_a       8.8921
_cell_length_b       10.6269
_cell_length_c       13.6506
_cell_angle_alpha    91.073
_cell_angle_beta     100.74
_cell_angle_gamma    114.173

_symmetry_space_group_name_H-M    "P 1"
_symmetry_int_tables_number       1

loop_
  _symmetry_equiv_pos_as_xyz
  'x, y, z'

loop_
  _atom_site_label
  _atom_site_occupancy
  _atom_site_fract_x
  _atom_site_fract_y
  _atom_site_fract_z
  _atom_site_thermal_displace_type
  _atom_site_B_iso_or_equiv
  _atom_site_type_symbol
  Cu1      1.0000 0.24236  0.77571  0.90738  Biso   1.000  Cu
  Cu2      1.0000 0.75764  0.22429  0.09262  Biso   1.000  Cu
  O1       1.0000 0.12050  0.63650  0.79088  Biso   1.000  O
  O2       1.0000 0.87950  0.36350  0.20912  Biso   1.000  O
  O3       1.0000 0.06340  0.83720  0.91271  Biso   1.000  O
  O4       1.0000 0.93660  0.16280  0.08729  Biso   1.000  O
  N1       1.0000 0.50100  0.81180  0.94478  Biso   1.000  N
  N2       1.0000 0.49900  0.18820  0.05522  Biso   1.000  N
  O5       1.0000 0.25410  0.50270  0.83881  Biso   1.000  O
  O6       1.0000 0.74590  0.49730  0.16119  Biso   1.000  O
  O7       1.0000 0.04280  0.78760  0.06925  Biso   1.000  O
  O8       1.0000 0.95720  0.21240  0.93075  Biso   1.000  O
  N3       1.0000 0.26950  0.66190  0.03617  Biso   1.000  N
  N4       1.0000 0.73050  0.33810  0.96383  Biso   1.000  N
  N5       1.0000 0.54760  0.97000  0.83036  Biso   1.000  N
  N6       1.0000 0.45240  0.03000  0.16964  Biso   1.000  N
  N7       1.0000 0.42140  0.65360  0.05817  Biso   1.000  N
  N8       1.0000 0.57860  0.34640  0.94183  Biso   1.000  N
  N9       1.0000 0.80900  0.22000  0.53920  Biso   1.000  N
  N10      1.0000 0.19100  0.78000  0.46080  Biso   1.000  N
  N11      1.0000 0.88980  0.05260  0.60600  Biso   1.000  N
  N12      1.0000 0.11020  0.94740  0.39400  Biso   1.000  N
  N13      1.0000 0.38590  0.95350  0.82760  Biso   1.000  N
  N14      1.0000 0.61410  0.04650  0.17240  Biso   1.000  N
  N15      1.0000 0.70770  0.37240  0.46610  Biso   1.000  N
  N16      1.0000 0.29230  0.62760  0.53390  Biso   1.000  N
  C1       1.0000 0.76790  0.89130  0.89810  Biso   1.000  C
  C2       1.0000 0.23210  0.10870  0.10190  Biso   1.000  C
  H1       1.0000 0.83890  0.94260  0.85740  Biso   1.000  H
  H2       1.0000 0.16110  0.05740  0.14260  Biso   1.000  H
  C3       1.0000 0.61020  0.88950  0.89280  Biso   1.000  C
  C4       1.0000 0.38980  0.11050  0.10720  Biso   1.000  C
  C5       1.0000 0.70470  0.73360  0.02460  Biso   1.000  C
  C6       1.0000 0.29530  0.26640  0.97540  Biso   1.000  C
  H3       1.0000 0.73580  0.68220  0.07220  Biso   1.000  H
  H4       1.0000 0.26420  0.31780  0.92780  Biso   1.000  H
  C7       1.0000 0.14630  0.52720  0.78250  Biso   1.000  C
  C8       1.0000 0.85370  0.47280  0.21750  Biso   1.000  C
  C9       1.0000 0.98950  0.81240  0.98530  Biso   1.000  C
  C10      1.0000 0.01050  0.18760  0.01470  Biso   1.000  C
  C11      1.0000 0.54760  0.73360  0.00870  Biso   1.000  C
  C12      1.0000 0.45240  0.26640  0.99130  Biso   1.000  C
  C13      1.0000 0.81550  0.81280  0.96730  Biso   1.000  C
  C14      1.0000 0.18450  0.18720  0.03270  Biso   1.000  C
  C15      1.0000 0.02030  0.28650  0.69210  Biso   1.000  C
  C16      1.0000 0.97970  0.71350  0.30790  Biso   1.000  C
  H5       1.0000 0.08790  0.26190  0.74140  Biso   1.000  H
  H6       1.0000 0.91210  0.73810  0.25860  Biso   1.000  H
  C17      1.0000 0.02760  0.41970  0.69580  Biso   1.000  C
  C18      1.0000 0.97240  0.58030  0.30420  Biso   1.000  C
  C19      1.0000 0.27010  0.51680  0.15430  Biso   1.000  C
  C20      1.0000 0.72990  0.48320  0.84570  Biso   1.000  C
  H7       1.0000 0.23310  0.45470  0.20090  Biso   1.000  H
  H8       1.0000 0.76690  0.54530  0.79910  Biso   1.000  H
  N17      1.0000 0.96650  0.00560  0.68250  Biso   1.000  N
  N18      1.0000 0.03350  0.99440  0.31750  Biso   1.000  N
  C21      1.0000 0.17950  0.57900  0.09510  Biso   1.000  C
  C22      1.0000 0.82050  0.42100  0.90490  Biso   1.000  C
  H9       1.0000 0.06950  0.56400  0.09680  Biso   1.000  H
  H10      1.0000 0.93050  0.43600  0.90320  Biso   1.000  H
  C23      1.0000 0.90930  0.19210  0.61300  Biso   1.000  C
  C24      1.0000 0.09070  0.80790  0.38700  Biso   1.000  C
  C25      1.0000 0.81940  0.34820  0.54530  Biso   1.000  C
  C26      1.0000 0.18060  0.65180  0.45470  Biso   1.000  C
  C27      1.0000 0.42390  0.56640  0.12940  Biso   1.000  C
  C28      1.0000 0.57610  0.43360  0.87060  Biso   1.000  C
  H11      1.0000 0.51350  0.54480  0.15610  Biso   1.000  H
  H12      1.0000 0.48650  0.45520  0.84390  Biso   1.000  H
  C29      1.0000 0.92410  0.45220  0.62110  Biso   1.000  C
  C30      1.0000 0.07590  0.54780  0.37890  Biso   1.000  C
  H13      1.0000 0.92520  0.54010  0.62200  Biso   1.000  H
  H14      1.0000 0.07480  0.45990  0.37800  Biso   1.000  H
  N19      1.0000 0.69240  0.49310  0.46950  Biso   1.000  N
  N20      1.0000 0.30760  0.50690  0.53050  Biso   1.000  N
  C31      1.0000 0.62440  0.06760  0.77330  Biso   1.000  C
  C32      1.0000 0.37560  0.93240  0.22670  Biso   1.000  C
  H15      1.0000 0.73430  0.09650  0.76450  Biso   1.000  H
  H16      1.0000 0.26570  0.90350  0.23550  Biso   1.000  H
  C33      1.0000 0.36600  0.04380  0.76720  Biso   1.000  C
  C34      1.0000 0.63400  0.95620  0.23280  Biso   1.000  C
  H17      1.0000 0.26750  0.05700  0.75110  Biso   1.000  H
  H18      1.0000 0.73250  0.94300  0.24890  Biso   1.000  H
  C35      1.0000 0.51040  0.11660  0.73080  Biso   1.000  C
  C36      1.0000 0.48960  0.88340  0.26920  Biso   1.000  C
  H19      1.0000 0.52590  0.18440  0.68670  Biso   1.000  H
  H20      1.0000 0.47410  0.81560  0.31330  Biso   1.000  H
  C37      1.0000 0.60940  0.28570  0.38450  Biso   1.000  C
  C38      1.0000 0.39060  0.71430  0.61550  Biso   1.000  C
  H21      1.0000 0.60140  0.19760  0.36750  Biso   1.000  H
  H22      1.0000 0.39860  0.80240  0.63250  Biso   1.000  H
  C39      1.0000 0.57860  0.47850  0.38710  Biso   1.000  C
  C40      1.0000 0.42140  0.52150  0.61290  Biso   1.000  C
  H23      1.0000 0.54030  0.54580  0.36900  Biso   1.000  H
  H24      1.0000 0.45970  0.45420  0.63100  Biso   1.000  H
  C41      1.0000 0.80010  0.95240  0.52910  Biso   1.000  C
  C42      1.0000 0.19990  0.04760  0.47090  Biso   1.000  C
  H25      1.0000 0.73670  0.96110  0.46940  Biso   1.000  H
  H26      1.0000 0.26330  0.03890  0.53060  Biso   1.000  H
  C43      1.0000 0.52300  0.35230  0.33090  Biso   1.000  C
  C44      1.0000 0.47700  0.64770  0.66910  Biso   1.000  C
  H27      1.0000 0.44470  0.31980  0.27040  Biso   1.000  H
  H28      1.0000 0.55530  0.68020  0.72960  Biso   1.000  H
  C45      1.0000 0.92160  0.87390  0.65010  Biso   1.000  C
  C46      1.0000 0.07840  0.12610  0.34990  Biso   1.000  C
  H29      1.0000 0.95520  0.81390  0.68720  Biso   1.000  H
  H30      1.0000 0.04480  0.18610  0.31280  Biso   1.000  H
  C47      1.0000 0.81970  0.83630  0.55530  Biso   1.000  C
  C48      1.0000 0.18030  0.16370  0.44470  Biso   1.000  C
  H31      1.0000 0.77430  0.75040  0.51750  Biso   1.000  H
  H32      1.0000 0.22570  0.24960  0.48250  Biso   1.000  H
