data_image0
_cell_length_a       15.3648
_cell_length_b       15.8941
_cell_length_c       20.3983
_cell_angle_alpha    90
_cell_angle_beta     92.834
_cell_angle_gamma    90

_symmetry_space_group_name_H-M    "P 1"
_symmetry_int_tables_number       1

loop_
  _symmetry_equiv_pos_as_xyz
  'x, y, z'

loop_
  _atom_site_label
  _atom_site_occupancy
  _atom_site_fract_x
  _atom_site_fract_y
  _atom_site_fract_z
  _atom_site_thermal_displace_type
  _atom_site_B_iso_or_equiv
  _atom_site_type_symbol
  W1       1.0000 0.97436  0.16557  0.06884  Biso   1.000  W
  W2       1.0000 0.52564  0.66557  0.43116  Biso   1.000  W
  W3       1.0000 0.02564  0.83443  0.93116  Biso   1.000  W
  W4       1.0000 0.47436  0.33443  0.56884  Biso   1.000  W
  W5       1.0000 0.84229  0.96437  0.07295  Biso   1.000  W
  W6       1.0000 0.65771  0.46437  0.42705  Biso   1.000  W
  W7       1.0000 0.15771  0.03563  0.92705  Biso   1.000  W
  W8       1.0000 0.34229  0.53563  0.57295  Biso   1.000  W
  W9       1.0000 0.97830  0.14559  0.90981  Biso   1.000  W
  W10      1.0000 0.52170  0.64559  0.59019  Biso   1.000  W
  W11      1.0000 0.02170  0.85441  0.09019  Biso   1.000  W
  W12      1.0000 0.47830  0.35441  0.40981  Biso   1.000  W
  W13      1.0000 0.84670  0.94426  0.91352  Biso   1.000  W
  W14      1.0000 0.65330  0.44426  0.58648  Biso   1.000  W
  W15      1.0000 0.15330  0.05574  0.08648  Biso   1.000  W
  W16      1.0000 0.34670  0.55574  0.41352  Biso   1.000  W
  W17      1.0000 0.85142  0.77621  0.00696  Biso   1.000  W
  W18      1.0000 0.64858  0.27621  0.49304  Biso   1.000  W
  W19      1.0000 0.14858  0.22379  0.99304  Biso   1.000  W
  W20      1.0000 0.35142  0.72379  0.50696  Biso   1.000  W
  O1       1.0000 0.91550  0.04420  0.91550  Biso   1.000  O
  O2       1.0000 0.58450  0.54420  0.58450  Biso   1.000  O
  O3       1.0000 0.08450  0.95580  0.08450  Biso   1.000  O
  O4       1.0000 0.41550  0.45580  0.41550  Biso   1.000  O
  O5       1.0000 0.91120  0.06030  0.06940  Biso   1.000  O
  O6       1.0000 0.58880  0.56030  0.43060  Biso   1.000  O
  O7       1.0000 0.08880  0.93970  0.93060  Biso   1.000  O
  O8       1.0000 0.41120  0.43970  0.56940  Biso   1.000  O
  O9       1.0000 0.93270  0.89760  0.00250  Biso   1.000  O
  O10      1.0000 0.56730  0.39760  0.49750  Biso   1.000  O
  O11      1.0000 0.06730  0.10240  0.99750  Biso   1.000  O
  O12      1.0000 0.43270  0.60240  0.50250  Biso   1.000  O
  O13      1.0000 0.05710  0.25210  0.05240  Biso   1.000  O
  O14      1.0000 0.44290  0.75210  0.44760  Biso   1.000  O
  O15      1.0000 0.94290  0.74790  0.94760  Biso   1.000  O
  O16      1.0000 0.55710  0.24790  0.55240  Biso   1.000  O
  O17      1.0000 0.91940  0.18790  0.98390  Biso   1.000  O
  O18      1.0000 0.58060  0.68790  0.51610  Biso   1.000  O
  O19      1.0000 0.08060  0.81210  0.01610  Biso   1.000  O
  O20      1.0000 0.41940  0.31210  0.48390  Biso   1.000  O
  O21      1.0000 0.93890  0.76250  0.07550  Biso   1.000  O
  O22      1.0000 0.56110  0.26250  0.42450  Biso   1.000  O
  O23      1.0000 0.06110  0.23750  0.92450  Biso   1.000  O
  O24      1.0000 0.43890  0.73750  0.57550  Biso   1.000  O
  O25      1.0000 0.06100  0.11300  0.12720  Biso   1.000  O
  O26      1.0000 0.43900  0.61300  0.37280  Biso   1.000  O
  O27      1.0000 0.93900  0.88700  0.87280  Biso   1.000  O
  O28      1.0000 0.56100  0.38700  0.62720  Biso   1.000  O
  O29      1.0000 0.79030  0.68520  0.00940  Biso   1.000  O
  O30      1.0000 0.70970  0.18520  0.49060  Biso   1.000  O
  O31      1.0000 0.20970  0.31480  0.99060  Biso   1.000  O
  O32      1.0000 0.29030  0.81480  0.50940  Biso   1.000  O
  O33      1.0000 0.92850  0.91300  0.13100  Biso   1.000  O
  O34      1.0000 0.57150  0.41300  0.36900  Biso   1.000  O
  O35      1.0000 0.07150  0.08700  0.86900  Biso   1.000  O
  O36      1.0000 0.42850  0.58700  0.63100  Biso   1.000  O
  O37      1.0000 0.92210  0.19280  0.84500  Biso   1.000  O
  O38      1.0000 0.57790  0.69280  0.65500  Biso   1.000  O
  O39      1.0000 0.07790  0.80720  0.15500  Biso   1.000  O
  O40      1.0000 0.42210  0.30720  0.34500  Biso   1.000  O
  O41      1.0000 0.79060  0.98810  0.98800  Biso   1.000  O
  O42      1.0000 0.70940  0.48810  0.51200  Biso   1.000  O
  O43      1.0000 0.20940  0.01190  0.01200  Biso   1.000  O
  O44      1.0000 0.29060  0.51190  0.48800  Biso   1.000  O
  O45      1.0000 0.79780  0.83640  0.93420  Biso   1.000  O
  O46      1.0000 0.70220  0.33640  0.56580  Biso   1.000  O
  O47      1.0000 0.20220  0.16360  0.06580  Biso   1.000  O
  O48      1.0000 0.29780  0.66360  0.43420  Biso   1.000  O
  O49      1.0000 0.77680  0.96770  0.84890  Biso   1.000  O
  O50      1.0000 0.72320  0.46770  0.65110  Biso   1.000  O
  O51      1.0000 0.22320  0.03230  0.15110  Biso   1.000  O
  O52      1.0000 0.27680  0.53230  0.34890  Biso   1.000  O
  O53      1.0000 0.76430  0.99870  0.12490  Biso   1.000  O
  O54      1.0000 0.73570  0.49870  0.37510  Biso   1.000  O
  O55      1.0000 0.23570  0.00130  0.87510  Biso   1.000  O
  O56      1.0000 0.26430  0.50130  0.62490  Biso   1.000  O
  O57      1.0000 0.79340  0.85050  0.06230  Biso   1.000  O
  O58      1.0000 0.70660  0.35050  0.43770  Biso   1.000  O
  O59      1.0000 0.20660  0.14950  0.93770  Biso   1.000  O
  O60      1.0000 0.29340  0.64950  0.56230  Biso   1.000  O
  O61      1.0000 0.91360  0.22350  0.12090  Biso   1.000  O
  O62      1.0000 0.58640  0.72350  0.37910  Biso   1.000  O
  O63      1.0000 0.08640  0.77650  0.87910  Biso   1.000  O
  O64      1.0000 0.41360  0.27650  0.62090  Biso   1.000  O
  Cu1      1.0000 0.99967  0.51922  0.24763  Biso   1.000  Cu
  Cu2      1.0000 0.50033  0.01922  0.25237  Biso   1.000  Cu
  Cu3      1.0000 0.00033  0.48078  0.75237  Biso   1.000  Cu
  Cu4      1.0000 0.49967  0.98078  0.74763  Biso   1.000  Cu
  O65      1.0000 0.99790  0.52380  0.12880  Biso   1.000  O
  O66      1.0000 0.50210  0.02380  0.37120  Biso   1.000  O
  O67      1.0000 0.00210  0.47620  0.87120  Biso   1.000  O
  O68      1.0000 0.49790  0.97620  0.62880  Biso   1.000  O
  C1       1.0000 0.84380  0.43050  0.19440  Biso   1.000  C
  C2       1.0000 0.65620  0.93050  0.30560  Biso   1.000  C
  C3       1.0000 0.15620  0.56950  0.80560  Biso   1.000  C
  C4       1.0000 0.34380  0.06950  0.69440  Biso   1.000  C
  H1       1.0000 0.84840  0.47010  0.15990  Biso   1.000  H
  H2       1.0000 0.65160  0.97010  0.34010  Biso   1.000  H
  H3       1.0000 0.15160  0.52990  0.84010  Biso   1.000  H
  H4       1.0000 0.34840  0.02990  0.65990  Biso   1.000  H
  C5       1.0000 0.77890  0.36870  0.18870  Biso   1.000  C
  C6       1.0000 0.72110  0.86870  0.31130  Biso   1.000  C
  C7       1.0000 0.22110  0.63130  0.81130  Biso   1.000  C
  C8       1.0000 0.27890  0.13130  0.68870  Biso   1.000  C
  C9       1.0000 0.77010  0.31640  0.24060  Biso   1.000  C
  C10      1.0000 0.72990  0.81640  0.25940  Biso   1.000  C
  C11      1.0000 0.22990  0.68360  0.75940  Biso   1.000  C
  C12      1.0000 0.27010  0.18360  0.74060  Biso   1.000  C
  C13      1.0000 0.82540  0.32320  0.29560  Biso   1.000  C
  C14      1.0000 0.67460  0.82320  0.20440  Biso   1.000  C
  C15      1.0000 0.17460  0.67680  0.70440  Biso   1.000  C
  C16      1.0000 0.32540  0.17680  0.79560  Biso   1.000  C
  H5       1.0000 0.82000  0.28670  0.33200  Biso   1.000  H
  H6       1.0000 0.68000  0.78670  0.16800  Biso   1.000  H
  H7       1.0000 0.18000  0.71330  0.66800  Biso   1.000  H
  H8       1.0000 0.32000  0.21330  0.83200  Biso   1.000  H
  C17      1.0000 0.89010  0.38580  0.29620  Biso   1.000  C
  C18      1.0000 0.60990  0.88580  0.20380  Biso   1.000  C
  C19      1.0000 0.10990  0.61420  0.70380  Biso   1.000  C
  C20      1.0000 0.39010  0.11420  0.79620  Biso   1.000  C
  H9       1.0000 0.92830  0.39170  0.33400  Biso   1.000  H
  H10      1.0000 0.57170  0.89170  0.16600  Biso   1.000  H
  H11      1.0000 0.07170  0.60830  0.66600  Biso   1.000  H
  H12      1.0000 0.42830  0.10830  0.83400  Biso   1.000  H
  C21      1.0000 0.64180  0.11880  0.19990  Biso   1.000  C
  C22      1.0000 0.85820  0.61880  0.30010  Biso   1.000  C
  C23      1.0000 0.35820  0.88120  0.80010  Biso   1.000  C
  C24      1.0000 0.14180  0.38120  0.69990  Biso   1.000  C
  H13      1.0000 0.64330  0.07370  0.16940  Biso   1.000  H
  H14      1.0000 0.85670  0.57370  0.33060  Biso   1.000  H
  H15      1.0000 0.35670  0.92630  0.83060  Biso   1.000  H
  H16      1.0000 0.14330  0.42630  0.66940  Biso   1.000  H
  C25      1.0000 0.70050  0.18460  0.19400  Biso   1.000  C
  C26      1.0000 0.79950  0.68460  0.30600  Biso   1.000  C
  C27      1.0000 0.29950  0.81540  0.80600  Biso   1.000  C
  C28      1.0000 0.20050  0.31540  0.69400  Biso   1.000  C
  C29      1.0000 0.70370  0.24760  0.24040  Biso   1.000  C
  C30      1.0000 0.79630  0.74760  0.25960  Biso   1.000  C
  C31      1.0000 0.29630  0.75240  0.75960  Biso   1.000  C
  C32      1.0000 0.20370  0.25240  0.74040  Biso   1.000  C
  C33      1.0000 0.64190  0.24340  0.28750  Biso   1.000  C
  C34      1.0000 0.85810  0.74340  0.21250  Biso   1.000  C
  C35      1.0000 0.35810  0.75660  0.71250  Biso   1.000  C
  C36      1.0000 0.14190  0.25660  0.78750  Biso   1.000  C
  H17      1.0000 0.63990  0.28630  0.31980  Biso   1.000  H
  H18      1.0000 0.86010  0.78630  0.18020  Biso   1.000  H
  H19      1.0000 0.36010  0.71370  0.68020  Biso   1.000  H
  H20      1.0000 0.13990  0.21370  0.81980  Biso   1.000  H
  C37      1.0000 0.58410  0.17850  0.28800  Biso   1.000  C
  C38      1.0000 0.91590  0.67850  0.21200  Biso   1.000  C
  C39      1.0000 0.41590  0.82150  0.71200  Biso   1.000  C
  C40      1.0000 0.08410  0.32150  0.78800  Biso   1.000  C
  H21      1.0000 0.54160  0.17820  0.32030  Biso   1.000  H
  H22      1.0000 0.95840  0.67820  0.17970  Biso   1.000  H
  H23      1.0000 0.45840  0.82180  0.67970  Biso   1.000  H
  H24      1.0000 0.04160  0.32180  0.82030  Biso   1.000  H
  C41      1.0000 0.35700  0.91120  0.20370  Biso   1.000  C
  C42      1.0000 0.14300  0.41120  0.29630  Biso   1.000  C
  C43      1.0000 0.64300  0.08880  0.79630  Biso   1.000  C
  C44      1.0000 0.85700  0.58880  0.70370  Biso   1.000  C
  H25      1.0000 0.35400  0.95170  0.16950  Biso   1.000  H
  H26      1.0000 0.14600  0.45170  0.33050  Biso   1.000  H
  H27      1.0000 0.64600  0.04830  0.83050  Biso   1.000  H
  H28      1.0000 0.85400  0.54830  0.66950  Biso   1.000  H
  C45      1.0000 0.29740  0.84670  0.20120  Biso   1.000  C
  C46      1.0000 0.20260  0.34670  0.29880  Biso   1.000  C
  C47      1.0000 0.70260  0.15330  0.79880  Biso   1.000  C
  C48      1.0000 0.79740  0.65330  0.70120  Biso   1.000  C
  C49      1.0000 0.29880  0.79020  0.25200  Biso   1.000  C
  C50      1.0000 0.20120  0.29020  0.24800  Biso   1.000  C
  C51      1.0000 0.70120  0.20980  0.74800  Biso   1.000  C
  C52      1.0000 0.79880  0.70980  0.75200  Biso   1.000  C
  C53      1.0000 0.36140  0.79830  0.30180  Biso   1.000  C
  C54      1.0000 0.13860  0.29830  0.19820  Biso   1.000  C
  C55      1.0000 0.63860  0.20170  0.69820  Biso   1.000  C
  C56      1.0000 0.86140  0.70170  0.80180  Biso   1.000  C
  H29      1.0000 0.36430  0.75930  0.33710  Biso   1.000  H
  H30      1.0000 0.13570  0.25930  0.16290  Biso   1.000  H
  H31      1.0000 0.63570  0.24070  0.66290  Biso   1.000  H
  H32      1.0000 0.86430  0.74070  0.83710  Biso   1.000  H
  C57      1.0000 0.41930  0.86280  0.30010  Biso   1.000  C
  C58      1.0000 0.08070  0.36280  0.19990  Biso   1.000  C
  C59      1.0000 0.58070  0.13720  0.69990  Biso   1.000  C
  C60      1.0000 0.91930  0.63720  0.80010  Biso   1.000  C
  H33      1.0000 0.46230  0.86780  0.33500  Biso   1.000  H
  H34      1.0000 0.03770  0.36780  0.16500  Biso   1.000  H
  H35      1.0000 0.53770  0.13220  0.66500  Biso   1.000  H
  H36      1.0000 0.96230  0.63220  0.83500  Biso   1.000  H
  C61      1.0000 0.16390  0.59740  0.21150  Biso   1.000  C
  C62      1.0000 0.33610  0.09740  0.28850  Biso   1.000  C
  C63      1.0000 0.83610  0.40260  0.78850  Biso   1.000  C
  C64      1.0000 0.66390  0.90260  0.71150  Biso   1.000  C
  H37      1.0000 0.16380  0.55100  0.18210  Biso   1.000  H
  H38      1.0000 0.33620  0.05100  0.31790  Biso   1.000  H
  H39      1.0000 0.83620  0.44900  0.81790  Biso   1.000  H
  H40      1.0000 0.66380  0.94900  0.68210  Biso   1.000  H
  C65      1.0000 0.22990  0.65610  0.20740  Biso   1.000  C
  C66      1.0000 0.27010  0.15610  0.29260  Biso   1.000  C
  C67      1.0000 0.77010  0.34390  0.79260  Biso   1.000  C
  C68      1.0000 0.72990  0.84390  0.70740  Biso   1.000  C
  C69      1.0000 0.23090  0.72320  0.25470  Biso   1.000  C
  C70      1.0000 0.26910  0.22320  0.24530  Biso   1.000  C
  C71      1.0000 0.76910  0.27680  0.74530  Biso   1.000  C
  C72      1.0000 0.73090  0.77680  0.75470  Biso   1.000  C
  C73      1.0000 0.17170  0.72110  0.30150  Biso   1.000  C
  C74      1.0000 0.32830  0.22110  0.19850  Biso   1.000  C
  C75      1.0000 0.82830  0.27890  0.69850  Biso   1.000  C
  C76      1.0000 0.67170  0.77890  0.80150  Biso   1.000  C
  C77      1.0000 0.10560  0.66160  0.29840  Biso   1.000  C
  C78      1.0000 0.39440  0.16160  0.20160  Biso   1.000  C
  C79      1.0000 0.89440  0.33840  0.70160  Biso   1.000  C
  C80      1.0000 0.60560  0.83840  0.79840  Biso   1.000  C
  H41      1.0000 0.06190  0.66420  0.32970  Biso   1.000  H
  H42      1.0000 0.43810  0.16420  0.17030  Biso   1.000  H
  H43      1.0000 0.93810  0.33580  0.67030  Biso   1.000  H
  H44      1.0000 0.56190  0.83580  0.82970  Biso   1.000  H
  C81      1.0000 0.10900  0.60660  0.00000  Biso   1.000  C
  C82      1.0000 0.39100  0.10660  0.50000  Biso   1.000  C
  C83      1.0000 0.89100  0.39340  0.00000  Biso   1.000  C
  C84      1.0000 0.60900  0.89340  0.50000  Biso   1.000  C
  H45      1.0000 0.07770  0.65930  0.00630  Biso   1.000  H
  H46      1.0000 0.42230  0.15930  0.49370  Biso   1.000  H
  H47      1.0000 0.92230  0.34070  0.99370  Biso   1.000  H
  H48      1.0000 0.57770  0.84070  0.50630  Biso   1.000  H
  H49      1.0000 0.09460  0.58460  0.95590  Biso   1.000  H
  H50      1.0000 0.40540  0.08460  0.54410  Biso   1.000  H
  H51      1.0000 0.90540  0.41540  0.04410  Biso   1.000  H
  H52      1.0000 0.59460  0.91540  0.45590  Biso   1.000  H
  H53      1.0000 0.17210  0.61690  0.00490  Biso   1.000  H
  H54      1.0000 0.32790  0.11690  0.49510  Biso   1.000  H
  H55      1.0000 0.82790  0.38310  0.99510  Biso   1.000  H
  H56      1.0000 0.67210  0.88310  0.50490  Biso   1.000  H
  C85      1.0000 0.12710  0.46580  0.04350  Biso   1.000  C
  C86      1.0000 0.37290  0.96580  0.45650  Biso   1.000  C
  C87      1.0000 0.87290  0.53420  0.95650  Biso   1.000  C
  C88      1.0000 0.62710  0.03420  0.54350  Biso   1.000  C
  H57      1.0000 0.10500  0.43030  0.07830  Biso   1.000  H
  H58      1.0000 0.39500  0.93030  0.42170  Biso   1.000  H
  H59      1.0000 0.89500  0.56970  0.92170  Biso   1.000  H
  H60      1.0000 0.60500  0.06970  0.57830  Biso   1.000  H
  H61      1.0000 0.19040  0.47180  0.05010  Biso   1.000  H
  H62      1.0000 0.30960  0.97180  0.44990  Biso   1.000  H
  H63      1.0000 0.80960  0.52820  0.94990  Biso   1.000  H
  H64      1.0000 0.69040  0.02820  0.55010  Biso   1.000  H
  H65      1.0000 0.11320  0.43960  0.00080  Biso   1.000  H
  H66      1.0000 0.38680  0.93960  0.49920  Biso   1.000  H
  H67      1.0000 0.88680  0.56040  0.99920  Biso   1.000  H
  H68      1.0000 0.61320  0.06040  0.50080  Biso   1.000  H
  C89      1.0000 0.02870  0.56730  0.08770  Biso   1.000  C
  C90      1.0000 0.47130  0.06730  0.41230  Biso   1.000  C
  C91      1.0000 0.97130  0.43270  0.91230  Biso   1.000  C
  C92      1.0000 0.52870  0.93270  0.58770  Biso   1.000  C
  H69      1.0000 0.00780  0.62350  0.08590  Biso   1.000  H
  H70      1.0000 0.49220  0.12350  0.41410  Biso   1.000  H
  H71      1.0000 0.99220  0.37650  0.91410  Biso   1.000  H
  H72      1.0000 0.50780  0.87650  0.58590  Biso   1.000  H
  N1       1.0000 0.89920  0.43590  0.24640  Biso   1.000  N
  N2       1.0000 0.60080  0.93590  0.25360  Biso   1.000  N
  N3       1.0000 0.10080  0.56410  0.75360  Biso   1.000  N
  N4       1.0000 0.39920  0.06410  0.74640  Biso   1.000  N
  N5       1.0000 0.58480  0.11580  0.24520  Biso   1.000  N
  N6       1.0000 0.91520  0.61580  0.25480  Biso   1.000  N
  N7       1.0000 0.41520  0.88420  0.75480  Biso   1.000  N
  N8       1.0000 0.08480  0.38420  0.74520  Biso   1.000  N
  N9       1.0000 0.41870  0.92010  0.25130  Biso   1.000  N
  N10      1.0000 0.08130  0.42010  0.24870  Biso   1.000  N
  N11      1.0000 0.58130  0.07990  0.74870  Biso   1.000  N
  N12      1.0000 0.91870  0.57990  0.75130  Biso   1.000  N
  N13      1.0000 0.10110  0.60110  0.25340  Biso   1.000  N
  N14      1.0000 0.39890  0.10110  0.24660  Biso   1.000  N
  N15      1.0000 0.89890  0.39890  0.74660  Biso   1.000  N
  N16      1.0000 0.60110  0.89890  0.75340  Biso   1.000  N
  N17      1.0000 0.24900  0.83070  0.14440  Biso   1.000  N
  N18      1.0000 0.25100  0.33070  0.35560  Biso   1.000  N
  N19      1.0000 0.75100  0.16930  0.85560  Biso   1.000  N
  N20      1.0000 0.74900  0.66930  0.64440  Biso   1.000  N
  H73      1.0000 0.21870  0.78390  0.14030  Biso   1.000  H
  H74      1.0000 0.28130  0.28390  0.35970  Biso   1.000  H
  H75      1.0000 0.78130  0.21610  0.85970  Biso   1.000  H
  H76      1.0000 0.71870  0.71610  0.64030  Biso   1.000  H
  H77      1.0000 0.24840  0.86730  0.11190  Biso   1.000  H
  H78      1.0000 0.25160  0.36730  0.38810  Biso   1.000  H
  H79      1.0000 0.75160  0.13270  0.88810  Biso   1.000  H
  H80      1.0000 0.74840  0.63270  0.61190  Biso   1.000  H
  N21      1.0000 0.74400  0.19300  0.13960  Biso   1.000  N
  N22      1.0000 0.75600  0.69300  0.36040  Biso   1.000  N
  N23      1.0000 0.25600  0.80700  0.86040  Biso   1.000  N
  N24      1.0000 0.24400  0.30700  0.63960  Biso   1.000  N
  H81      1.0000 0.77530  0.23830  0.13340  Biso   1.000  H
  H82      1.0000 0.72470  0.73830  0.36660  Biso   1.000  H
  H83      1.0000 0.22470  0.76170  0.86660  Biso   1.000  H
  H84      1.0000 0.27530  0.26170  0.63340  Biso   1.000  H
  H85      1.0000 0.74220  0.15240  0.11000  Biso   1.000  H
  H86      1.0000 0.75780  0.65240  0.39000  Biso   1.000  H
  H87      1.0000 0.25780  0.84760  0.89000  Biso   1.000  H
  H88      1.0000 0.24220  0.34760  0.61000  Biso   1.000  H
  N25      1.0000 0.08590  0.54930  0.04560  Biso   1.000  N
  N26      1.0000 0.41410  0.04930  0.45440  Biso   1.000  N
  N27      1.0000 0.91410  0.45070  0.95440  Biso   1.000  N
  N28      1.0000 0.58590  0.95070  0.54560  Biso   1.000  N
  O69      1.0000 0.84800  0.99900  0.60220  Biso   1.000  O
  O70      1.0000 0.65200  0.49900  0.89780  Biso   1.000  O
  O71      1.0000 0.15200  0.00100  0.39780  Biso   1.000  O
  O72      1.0000 0.34800  0.50100  0.10220  Biso   1.000  O
  C93      1.0000 0.88800  0.03500  0.73180  Biso   1.000  C
  C94      1.0000 0.61200  0.53500  0.76820  Biso   1.000  C
  C95      1.0000 0.11200  0.96500  0.26820  Biso   1.000  C
  C96      1.0000 0.38800  0.46500  0.23180  Biso   1.000  C
  H89      1.0000 0.91330  0.05520  0.77380  Biso   1.000  H
  H90      1.0000 0.58670  0.55520  0.72620  Biso   1.000  H
  H91      1.0000 0.08670  0.94480  0.22620  Biso   1.000  H
  H92      1.0000 0.41330  0.44480  0.27380  Biso   1.000  H
  H93      1.0000 0.89060  0.97300  0.73110  Biso   1.000  H
  H94      1.0000 0.60940  0.47300  0.76890  Biso   1.000  H
  H95      1.0000 0.10940  0.02700  0.26890  Biso   1.000  H
  H96      1.0000 0.39060  0.52700  0.23110  Biso   1.000  H
  H97      1.0000 0.82720  0.05290  0.72640  Biso   1.000  H
  H98      1.0000 0.67280  0.55290  0.77360  Biso   1.000  H
  H99      1.0000 0.17280  0.94710  0.27360  Biso   1.000  H
  H100     1.0000 0.32720  0.44710  0.22640  Biso   1.000  H
  C97      1.0000 0.01200  0.11600  0.69200  Biso   1.000  C
  C98      1.0000 0.48800  0.61600  0.80800  Biso   1.000  C
  C99      1.0000 0.98800  0.88400  0.30800  Biso   1.000  C
  C100     1.0000 0.51200  0.38400  0.19200  Biso   1.000  C
  H101     1.0000 0.02120  0.12580  0.73950  Biso   1.000  H
  H102     1.0000 0.47880  0.62580  0.76050  Biso   1.000  H
  H103     1.0000 0.97880  0.87420  0.26050  Biso   1.000  H
  H104     1.0000 0.52120  0.37420  0.23950  Biso   1.000  H
  H105     1.0000 0.00620  0.17010  0.66940  Biso   1.000  H
  H106     1.0000 0.49380  0.67010  0.83060  Biso   1.000  H
  H107     1.0000 0.99380  0.82990  0.33060  Biso   1.000  H
  H108     1.0000 0.50620  0.32990  0.16940  Biso   1.000  H
  H109     1.0000 0.06270  0.08560  0.67620  Biso   1.000  H
  H110     1.0000 0.43730  0.58560  0.82380  Biso   1.000  H
  H111     1.0000 0.93730  0.91440  0.32380  Biso   1.000  H
  H112     1.0000 0.56270  0.41440  0.17620  Biso   1.000  H
  C101     1.0000 0.91200  0.04200  0.61500  Biso   1.000  C
  C102     1.0000 0.58800  0.54200  0.88500  Biso   1.000  C
  C103     1.0000 0.08800  0.95800  0.38500  Biso   1.000  C
  C104     1.0000 0.41200  0.45800  0.11500  Biso   1.000  C
  H113     1.0000 0.94730  0.05890  0.57990  Biso   1.000  H
  H114     1.0000 0.55270  0.55890  0.92010  Biso   1.000  H
  H115     1.0000 0.05270  0.94110  0.42010  Biso   1.000  H
  H116     1.0000 0.44730  0.44110  0.07990  Biso   1.000  H
  N29      1.0000 0.93600  0.06700  0.67990  Biso   1.000  N
  N30      1.0000 0.56400  0.56700  0.82010  Biso   1.000  N
  N31      1.0000 0.06400  0.93300  0.32010  Biso   1.000  N
  N32      1.0000 0.43600  0.43300  0.17990  Biso   1.000  N
  C105     1.0000 0.05050  0.55480  0.43410  Biso   1.000  C
  C106     1.0000 0.44950  0.05480  0.06590  Biso   1.000  C
  C107     1.0000 0.94950  0.44520  0.56590  Biso   1.000  C
  C108     1.0000 0.55050  0.94520  0.93410  Biso   1.000  C
  C109     1.0000 0.09700  0.59700  0.49610  Biso   1.000  C
  C110     1.0000 0.40300  0.09700  0.00390  Biso   1.000  C
  C111     1.0000 0.90300  0.40300  0.50390  Biso   1.000  C
  C112     1.0000 0.59700  0.90300  0.99610  Biso   1.000  C
  H117     1.0000 0.06210  0.64440  0.51080  Biso   1.000  H
  H118     1.0000 0.43790  0.14440  0.98920  Biso   1.000  H
  H119     1.0000 0.93790  0.35560  0.48920  Biso   1.000  H
  H120     1.0000 0.56210  0.85560  0.01080  Biso   1.000  H
  H121     1.0000 0.15470  0.61820  0.48450  Biso   1.000  H
  H122     1.0000 0.34530  0.11820  0.01550  Biso   1.000  H
  H123     1.0000 0.84530  0.38180  0.51550  Biso   1.000  H
  H124     1.0000 0.65470  0.88180  0.98450  Biso   1.000  H
  H125     1.0000 0.10470  0.55580  0.53150  Biso   1.000  H
  H126     1.0000 0.39530  0.05580  0.96850  Biso   1.000  H
  H127     1.0000 0.89530  0.44420  0.46850  Biso   1.000  H
  H128     1.0000 0.60470  0.94420  0.03150  Biso   1.000  H
  N33      1.0000 0.01110  0.51680  0.38850  Biso   1.000  N
  N34      1.0000 0.48890  0.01680  0.11150  Biso   1.000  N
  N35      1.0000 0.98890  0.48320  0.61150  Biso   1.000  N
  N36      1.0000 0.51110  0.98320  0.88850  Biso   1.000  N
  C113     1.0000 0.99800  0.17400  0.28700  Biso   1.000  C
  C114     1.0000 0.50200  0.67400  0.21300  Biso   1.000  C
  C115     1.0000 0.00200  0.82600  0.71300  Biso   1.000  C
  C116     1.0000 0.49800  0.32600  0.78700  Biso   1.000  C
  C117     1.0000 0.92600  0.11700  0.30500  Biso   1.000  C
  C118     1.0000 0.57400  0.61700  0.19500  Biso   1.000  C
  C119     1.0000 0.07400  0.88300  0.69500  Biso   1.000  C
  C120     1.0000 0.42600  0.38300  0.80500  Biso   1.000  C
  H129     1.0000 0.90310  0.08700  0.26610  Biso   1.000  H
  H130     1.0000 0.59690  0.58700  0.23390  Biso   1.000  H
  H131     1.0000 0.09690  0.91300  0.73390  Biso   1.000  H
  H132     1.0000 0.40310  0.41300  0.76610  Biso   1.000  H
  H133     1.0000 0.87850  0.15080  0.32290  Biso   1.000  H
  H134     1.0000 0.62150  0.65080  0.17710  Biso   1.000  H
  H135     1.0000 0.12150  0.84920  0.67710  Biso   1.000  H
  H136     1.0000 0.37850  0.34920  0.82290  Biso   1.000  H
  H137     1.0000 0.94740  0.07700  0.33830  Biso   1.000  H
  H138     1.0000 0.55260  0.57700  0.16170  Biso   1.000  H
  H139     1.0000 0.05260  0.92300  0.66170  Biso   1.000  H
  H140     1.0000 0.44740  0.42300  0.83830  Biso   1.000  H
  N37      1.0000 0.02500  0.21400  0.34300  Biso   1.000  N
  N38      1.0000 0.47500  0.71400  0.15700  Biso   1.000  N
  N39      1.0000 0.97500  0.78600  0.65700  Biso   1.000  N
  N40      1.0000 0.52500  0.28600  0.84300  Biso   1.000  N
  N41      1.0000 0.16700  0.78500  0.34700  Biso   1.000  N
  N42      1.0000 0.33300  0.28500  0.15300  Biso   1.000  N
  N43      1.0000 0.83300  0.21500  0.65300  Biso   1.000  N
  N44      1.0000 0.66700  0.71500  0.84700  Biso   1.000  N
  H141     1.0000 0.20270  0.82810  0.34570  Biso   1.000  H
  H142     1.0000 0.29730  0.32810  0.15430  Biso   1.000  H
  H143     1.0000 0.79730  0.17190  0.65430  Biso   1.000  H
  H144     1.0000 0.70270  0.67190  0.84570  Biso   1.000  H
  H145     1.0000 0.12790  0.78270  0.37710  Biso   1.000  H
  H146     1.0000 0.37210  0.28270  0.12290  Biso   1.000  H
  H147     1.0000 0.87210  0.21730  0.62290  Biso   1.000  H
  H148     1.0000 0.62790  0.71730  0.87710  Biso   1.000  H
  N45      1.0000 0.72550  0.37000  0.13290  Biso   1.000  N
  N46      1.0000 0.77450  0.87000  0.36710  Biso   1.000  N
  N47      1.0000 0.27450  0.63000  0.86710  Biso   1.000  N
  N48      1.0000 0.22550  0.13000  0.63290  Biso   1.000  N
  H149     1.0000 0.68130  0.33490  0.12870  Biso   1.000  H
  H150     1.0000 0.81870  0.83490  0.37130  Biso   1.000  H
  H151     1.0000 0.31870  0.66510  0.87130  Biso   1.000  H
  H152     1.0000 0.18130  0.16510  0.62870  Biso   1.000  H
  H153     1.0000 0.73540  0.40590  0.10130  Biso   1.000  H
  H154     1.0000 0.76460  0.90590  0.39870  Biso   1.000  H
  H155     1.0000 0.26460  0.59410  0.89870  Biso   1.000  H
  H156     1.0000 0.23540  0.09410  0.60130  Biso   1.000  H
  N49      1.0000 0.28730  0.65020  0.15890  Biso   1.000  N
  N50      1.0000 0.21270  0.15020  0.34110  Biso   1.000  N
  N51      1.0000 0.71270  0.34980  0.84110  Biso   1.000  N
  N52      1.0000 0.78730  0.84980  0.65890  Biso   1.000  N
  H157     1.0000 0.28250  0.60900  0.13010  Biso   1.000  H
  H158     1.0000 0.21750  0.10900  0.36990  Biso   1.000  H
  H159     1.0000 0.71750  0.39100  0.86990  Biso   1.000  H
  H160     1.0000 0.78250  0.89100  0.63010  Biso   1.000  H
  H161     1.0000 0.32930  0.68760  0.15630  Biso   1.000  H
  H162     1.0000 0.17070  0.18760  0.34370  Biso   1.000  H
  H163     1.0000 0.67070  0.31240  0.84370  Biso   1.000  H
  H164     1.0000 0.82930  0.81240  0.65630  Biso   1.000  H
