data_image0
_cell_length_a       15.3648
_cell_length_b       15.8941
_cell_length_c       20.3983
_cell_angle_alpha    90
_cell_angle_beta     92.834
_cell_angle_gamma    90

_symmetry_space_group_name_H-M    "P 1"
_symmetry_int_tables_number       1

loop_
  _symmetry_equiv_pos_as_xyz
  'x, y, z'

loop_
  _atom_site_label
  _atom_site_occupancy
  _atom_site_fract_x
  _atom_site_fract_y
  _atom_site_fract_z
  _atom_site_thermal_displace_type
  _atom_site_B_iso_or_equiv
  _atom_site_type_symbol
  W1       1.0000 0.97437  0.16557  0.06884  Biso   1.000  W
  W2       1.0000 0.52563  0.66557  0.43116  Biso   1.000  W
  W3       1.0000 0.02563  0.83443  0.93116  Biso   1.000  W
  W4       1.0000 0.47437  0.33443  0.56884  Biso   1.000  W
  O1       1.0000 0.91160  0.06050  0.06950  Biso   1.000  O
  O2       1.0000 0.58840  0.56050  0.43050  Biso   1.000  O
  O3       1.0000 0.08840  0.93950  0.93050  Biso   1.000  O
  O4       1.0000 0.41160  0.43950  0.56950  Biso   1.000  O
  O5       1.0000 0.05660  0.25210  0.05240  Biso   1.000  O
  O6       1.0000 0.44340  0.75210  0.44760  Biso   1.000  O
  O7       1.0000 0.94340  0.74790  0.94760  Biso   1.000  O
  O8       1.0000 0.55660  0.24790  0.55240  Biso   1.000  O
  O9       1.0000 0.91940  0.18810  0.98400  Biso   1.000  O
  O10      1.0000 0.58060  0.68810  0.51600  Biso   1.000  O
  O11      1.0000 0.08060  0.81190  0.01600  Biso   1.000  O
  O12      1.0000 0.41940  0.31190  0.48400  Biso   1.000  O
  O13      1.0000 0.06080  0.11290  0.12700  Biso   1.000  O
  O14      1.0000 0.43920  0.61290  0.37300  Biso   1.000  O
  O15      1.0000 0.93920  0.88710  0.87300  Biso   1.000  O
  O16      1.0000 0.56080  0.38710  0.62700  Biso   1.000  O
  O17      1.0000 0.91400  0.22340  0.12080  Biso   1.000  O
  O18      1.0000 0.58600  0.72340  0.37920  Biso   1.000  O
  O19      1.0000 0.08600  0.77660  0.87920  Biso   1.000  O
  O20      1.0000 0.41400  0.27660  0.62080  Biso   1.000  O
  O21      1.0000 0.06750  0.10230  0.99750  Biso   1.000  O
  O22      1.0000 0.43250  0.60230  0.50250  Biso   1.000  O
  O23      1.0000 0.93250  0.89770  0.00250  Biso   1.000  O
  O24      1.0000 0.56750  0.39770  0.49750  Biso   1.000  O
  W5       1.0000 0.84229  0.96437  0.07297  Biso   1.000  W
  W6       1.0000 0.65771  0.46437  0.42703  Biso   1.000  W
  W7       1.0000 0.15771  0.03563  0.92703  Biso   1.000  W
  W8       1.0000 0.34229  0.53563  0.57297  Biso   1.000  W
  W9       1.0000 0.14858  0.22379  0.99303  Biso   1.000  W
  W10      1.0000 0.35142  0.72379  0.50697  Biso   1.000  W
  W11      1.0000 0.85142  0.77621  0.00697  Biso   1.000  W
  W12      1.0000 0.64858  0.27621  0.49303  Biso   1.000  W
  W13      1.0000 0.97830  0.14558  0.90981  Biso   1.000  W
  W14      1.0000 0.52170  0.64558  0.59019  Biso   1.000  W
  W15      1.0000 0.02170  0.85442  0.09019  Biso   1.000  W
  W16      1.0000 0.47830  0.35442  0.40981  Biso   1.000  W
  W17      1.0000 0.15330  0.05574  0.08648  Biso   1.000  W
  W18      1.0000 0.34670  0.55574  0.41352  Biso   1.000  W
  W19      1.0000 0.84670  0.94426  0.91352  Biso   1.000  W
  W20      1.0000 0.65330  0.44426  0.58648  Biso   1.000  W
  O25      1.0000 0.92830  0.91290  0.13090  Biso   1.000  O
  O26      1.0000 0.57170  0.41290  0.36910  Biso   1.000  O
  O27      1.0000 0.07170  0.08710  0.86910  Biso   1.000  O
  O28      1.0000 0.42830  0.58710  0.63090  Biso   1.000  O
  O29      1.0000 0.79070  0.98810  0.98780  Biso   1.000  O
  O30      1.0000 0.70930  0.48810  0.51220  Biso   1.000  O
  O31      1.0000 0.20930  0.01190  0.01220  Biso   1.000  O
  O32      1.0000 0.29070  0.51190  0.48780  Biso   1.000  O
  O33      1.0000 0.76440  0.99870  0.12500  Biso   1.000  O
  O34      1.0000 0.73560  0.49870  0.37500  Biso   1.000  O
  O35      1.0000 0.23560  0.00130  0.87500  Biso   1.000  O
  O36      1.0000 0.26440  0.50130  0.62500  Biso   1.000  O
  O37      1.0000 0.79350  0.85040  0.06210  Biso   1.000  O
  O38      1.0000 0.70650  0.35040  0.43790  Biso   1.000  O
  O39      1.0000 0.20650  0.14960  0.93790  Biso   1.000  O
  O40      1.0000 0.29350  0.64960  0.56210  Biso   1.000  O
  O41      1.0000 0.06110  0.23740  0.92450  Biso   1.000  O
  O42      1.0000 0.43890  0.73740  0.57550  Biso   1.000  O
  O43      1.0000 0.93890  0.76260  0.07550  Biso   1.000  O
  O44      1.0000 0.56110  0.26260  0.42450  Biso   1.000  O
  O45      1.0000 0.20970  0.31480  0.99010  Biso   1.000  O
  O46      1.0000 0.29030  0.81480  0.50990  Biso   1.000  O
  O47      1.0000 0.79030  0.68520  0.00990  Biso   1.000  O
  O48      1.0000 0.70970  0.18520  0.49010  Biso   1.000  O
  O49      1.0000 0.20210  0.16330  0.06600  Biso   1.000  O
  O50      1.0000 0.29790  0.66330  0.43400  Biso   1.000  O
  O51      1.0000 0.79790  0.83670  0.93400  Biso   1.000  O
  O52      1.0000 0.70210  0.33670  0.56600  Biso   1.000  O
  O53      1.0000 0.91520  0.04430  0.91530  Biso   1.000  O
  O54      1.0000 0.58480  0.54430  0.58470  Biso   1.000  O
  O55      1.0000 0.08480  0.95570  0.08470  Biso   1.000  O
  O56      1.0000 0.41520  0.45570  0.41530  Biso   1.000  O
  O57      1.0000 0.92180  0.19250  0.84520  Biso   1.000  O
  O58      1.0000 0.57820  0.69250  0.65480  Biso   1.000  O
  O59      1.0000 0.07820  0.80750  0.15480  Biso   1.000  O
  O60      1.0000 0.42180  0.30750  0.34520  Biso   1.000  O
  O61      1.0000 0.22340  0.03210  0.15090  Biso   1.000  O
  O62      1.0000 0.27660  0.53210  0.34910  Biso   1.000  O
  O63      1.0000 0.77660  0.96790  0.84910  Biso   1.000  O
  O64      1.0000 0.72340  0.46790  0.65090  Biso   1.000  O
  Cu1      1.0000 0.99967  0.51921  0.24763  Biso   1.000  Cu
  Cu2      1.0000 0.50033  0.01921  0.25237  Biso   1.000  Cu
  Cu3      1.0000 0.00033  0.48079  0.75237  Biso   1.000  Cu
  Cu4      1.0000 0.49967  0.98079  0.74763  Biso   1.000  Cu
  O65      1.0000 0.99760  0.52360  0.12870  Biso   1.000  O
  O66      1.0000 0.50240  0.02360  0.37130  Biso   1.000  O
  O67      1.0000 0.00240  0.47640  0.87130  Biso   1.000  O
  O68      1.0000 0.49760  0.97640  0.62870  Biso   1.000  O
  N1       1.0000 0.89910  0.43570  0.24670  Biso   1.000  N
  N2       1.0000 0.60090  0.93570  0.25330  Biso   1.000  N
  N3       1.0000 0.10090  0.56430  0.75330  Biso   1.000  N
  N4       1.0000 0.39910  0.06430  0.74670  Biso   1.000  N
  N5       1.0000 0.58490  0.11570  0.24470  Biso   1.000  N
  N6       1.0000 0.91510  0.61570  0.25530  Biso   1.000  N
  N7       1.0000 0.41510  0.88430  0.75530  Biso   1.000  N
  N8       1.0000 0.08490  0.38430  0.74470  Biso   1.000  N
  N9       1.0000 0.08110  0.42010  0.24890  Biso   1.000  N
  N10      1.0000 0.41890  0.92010  0.25110  Biso   1.000  N
  N11      1.0000 0.91890  0.57990  0.75110  Biso   1.000  N
  N12      1.0000 0.58110  0.07990  0.74890  Biso   1.000  N
  N13      1.0000 0.39880  0.10100  0.24640  Biso   1.000  N
  N14      1.0000 0.10120  0.60100  0.25360  Biso   1.000  N
  N15      1.0000 0.60120  0.89900  0.75360  Biso   1.000  N
  N16      1.0000 0.89880  0.39900  0.74640  Biso   1.000  N
  N17      1.0000 0.25000  0.33030  0.35660  Biso   1.000  N
  N18      1.0000 0.25000  0.83030  0.14340  Biso   1.000  N
  N19      1.0000 0.75000  0.66970  0.64340  Biso   1.000  N
  N20      1.0000 0.75000  0.16970  0.85660  Biso   1.000  N
  H1       1.0000 0.24282  0.36046  0.39090  Biso   1.000  H
  H2       1.0000 0.25718  0.86046  0.10910  Biso   1.000  H
  H3       1.0000 0.75718  0.63954  0.60910  Biso   1.000  H
  H4       1.0000 0.74282  0.13954  0.89090  Biso   1.000  H
  H5       1.0000 0.28735  0.28984  0.35817  Biso   1.000  H
  H6       1.0000 0.21265  0.78984  0.14183  Biso   1.000  H
  H7       1.0000 0.71265  0.71016  0.64183  Biso   1.000  H
  H8       1.0000 0.78735  0.21016  0.85817  Biso   1.000  H
  N21      1.0000 0.08560  0.55030  0.04530  Biso   1.000  N
  N22      1.0000 0.41440  0.05030  0.45470  Biso   1.000  N
  N23      1.0000 0.91440  0.44970  0.95470  Biso   1.000  N
  N24      1.0000 0.58560  0.94970  0.54530  Biso   1.000  N
  C1       1.0000 0.84420  0.43040  0.19420  Biso   1.000  C
  C2       1.0000 0.65580  0.93040  0.30580  Biso   1.000  C
  C3       1.0000 0.15580  0.56960  0.80580  Biso   1.000  C
  C4       1.0000 0.34420  0.06960  0.69420  Biso   1.000  C
  H9       1.0000 0.84945  0.46885  0.16020  Biso   1.000  H
  H10      1.0000 0.65055  0.96885  0.33980  Biso   1.000  H
  H11      1.0000 0.15055  0.53115  0.83980  Biso   1.000  H
  H12      1.0000 0.34945  0.03115  0.66020  Biso   1.000  H
  C5       1.0000 0.77870  0.36890  0.18830  Biso   1.000  C
  C6       1.0000 0.72130  0.86890  0.31170  Biso   1.000  C
  C7       1.0000 0.22130  0.63110  0.81170  Biso   1.000  C
  C8       1.0000 0.27870  0.13110  0.68830  Biso   1.000  C
  C9       1.0000 0.77000  0.31680  0.24050  Biso   1.000  C
  C10      1.0000 0.73000  0.81680  0.25950  Biso   1.000  C
  C11      1.0000 0.23000  0.68320  0.75950  Biso   1.000  C
  C12      1.0000 0.27000  0.18320  0.74050  Biso   1.000  C
  C13      1.0000 0.82500  0.32380  0.29580  Biso   1.000  C
  C14      1.0000 0.67500  0.82380  0.20420  Biso   1.000  C
  C15      1.0000 0.17500  0.67620  0.70420  Biso   1.000  C
  C16      1.0000 0.32500  0.17620  0.79580  Biso   1.000  C
  H13      1.0000 0.81917  0.28843  0.33166  Biso   1.000  H
  H14      1.0000 0.68083  0.78843  0.16834  Biso   1.000  H
  H15      1.0000 0.18083  0.71157  0.66834  Biso   1.000  H
  H16      1.0000 0.31917  0.21157  0.83166  Biso   1.000  H
  C17      1.0000 0.88980  0.38590  0.29640  Biso   1.000  C
  C18      1.0000 0.61020  0.88590  0.20360  Biso   1.000  C
  C19      1.0000 0.11020  0.61410  0.70360  Biso   1.000  C
  C20      1.0000 0.38980  0.11410  0.79640  Biso   1.000  C
  H17      1.0000 0.92714  0.39165  0.33342  Biso   1.000  H
  H18      1.0000 0.57286  0.89165  0.16658  Biso   1.000  H
  H19      1.0000 0.07286  0.60835  0.66658  Biso   1.000  H
  H20      1.0000 0.42714  0.10835  0.83342  Biso   1.000  H
  C21      1.0000 0.64140  0.11830  0.19920  Biso   1.000  C
  C22      1.0000 0.85860  0.61830  0.30080  Biso   1.000  C
  C23      1.0000 0.35860  0.88170  0.80080  Biso   1.000  C
  C24      1.0000 0.14140  0.38170  0.69920  Biso   1.000  C
  H21      1.0000 0.64238  0.07446  0.16901  Biso   1.000  H
  H22      1.0000 0.85762  0.57446  0.33099  Biso   1.000  H
  H23      1.0000 0.35762  0.92554  0.83099  Biso   1.000  H
  H24      1.0000 0.14238  0.42554  0.66901  Biso   1.000  H
  C25      1.0000 0.70060  0.18410  0.19400  Biso   1.000  C
  C26      1.0000 0.79940  0.68410  0.30600  Biso   1.000  C
  C27      1.0000 0.29940  0.81590  0.80600  Biso   1.000  C
  C28      1.0000 0.20060  0.31590  0.69400  Biso   1.000  C
  C29      1.0000 0.70360  0.24740  0.24060  Biso   1.000  C
  C30      1.0000 0.79640  0.74740  0.25940  Biso   1.000  C
  C31      1.0000 0.29640  0.75260  0.75940  Biso   1.000  C
  C32      1.0000 0.20360  0.25260  0.74060  Biso   1.000  C
  C33      1.0000 0.64200  0.24310  0.28770  Biso   1.000  C
  C34      1.0000 0.85800  0.74310  0.21230  Biso   1.000  C
  C35      1.0000 0.35800  0.75690  0.71230  Biso   1.000  C
  C36      1.0000 0.14200  0.25690  0.78770  Biso   1.000  C
  H25      1.0000 0.63991  0.28503  0.31938  Biso   1.000  H
  H26      1.0000 0.86009  0.78503  0.18062  Biso   1.000  H
  H27      1.0000 0.36009  0.71497  0.68062  Biso   1.000  H
  H28      1.0000 0.13991  0.21497  0.81938  Biso   1.000  H
  C37      1.0000 0.58450  0.17830  0.28830  Biso   1.000  C
  C38      1.0000 0.91550  0.67830  0.21170  Biso   1.000  C
  C39      1.0000 0.41550  0.82170  0.71170  Biso   1.000  C
  C40      1.0000 0.08450  0.32170  0.78830  Biso   1.000  C
  H29      1.0000 0.54332  0.17748  0.32016  Biso   1.000  H
  H30      1.0000 0.95668  0.67748  0.17984  Biso   1.000  H
  H31      1.0000 0.45668  0.82252  0.67984  Biso   1.000  H
  H32      1.0000 0.04332  0.32252  0.82016  Biso   1.000  H
  C41      1.0000 0.14280  0.41130  0.29670  Biso   1.000  C
  C42      1.0000 0.35720  0.91130  0.20330  Biso   1.000  C
  C43      1.0000 0.85720  0.58870  0.70330  Biso   1.000  C
  C44      1.0000 0.64280  0.08870  0.79670  Biso   1.000  C
  H33      1.0000 0.14566  0.45124  0.33002  Biso   1.000  H
  H34      1.0000 0.35434  0.95124  0.16998  Biso   1.000  H
  H35      1.0000 0.85434  0.54876  0.66998  Biso   1.000  H
  H36      1.0000 0.64566  0.04876  0.83002  Biso   1.000  H
  C45      1.0000 0.20260  0.34660  0.29970  Biso   1.000  C
  C46      1.0000 0.29740  0.84660  0.20030  Biso   1.000  C
  C47      1.0000 0.79740  0.65340  0.70030  Biso   1.000  C
  C48      1.0000 0.70260  0.15340  0.79970  Biso   1.000  C
  C49      1.0000 0.20140  0.29020  0.24820  Biso   1.000  C
  C50      1.0000 0.29860  0.79020  0.25180  Biso   1.000  C
  C51      1.0000 0.79860  0.70980  0.75180  Biso   1.000  C
  C52      1.0000 0.70140  0.20980  0.74820  Biso   1.000  C
  C53      1.0000 0.13840  0.29840  0.19780  Biso   1.000  C
  C54      1.0000 0.36160  0.79840  0.30220  Biso   1.000  C
  C55      1.0000 0.86160  0.70160  0.80220  Biso   1.000  C
  C56      1.0000 0.63840  0.20160  0.69780  Biso   1.000  C
  H37      1.0000 0.13541  0.26022  0.16323  Biso   1.000  H
  H38      1.0000 0.36459  0.76022  0.33677  Biso   1.000  H
  H39      1.0000 0.86459  0.73978  0.83677  Biso   1.000  H
  H40      1.0000 0.63541  0.23978  0.66323  Biso   1.000  H
  C57      1.0000 0.08070  0.36350  0.19980  Biso   1.000  C
  C58      1.0000 0.41930  0.86350  0.30020  Biso   1.000  C
  C59      1.0000 0.91930  0.63650  0.80020  Biso   1.000  C
  C60      1.0000 0.58070  0.13650  0.69980  Biso   1.000  C
  H41      1.0000 0.03897  0.36908  0.16551  Biso   1.000  H
  H42      1.0000 0.46103  0.86908  0.33449  Biso   1.000  H
  H43      1.0000 0.96103  0.63092  0.83449  Biso   1.000  H
  H44      1.0000 0.53897  0.13092  0.66551  Biso   1.000  H
  C61      1.0000 0.33610  0.09730  0.28870  Biso   1.000  C
  C62      1.0000 0.16390  0.59730  0.21130  Biso   1.000  C
  C63      1.0000 0.66390  0.90270  0.71130  Biso   1.000  C
  C64      1.0000 0.83610  0.40270  0.78870  Biso   1.000  C
  H45      1.0000 0.33644  0.05199  0.31753  Biso   1.000  H
  H46      1.0000 0.16356  0.55199  0.18247  Biso   1.000  H
  H47      1.0000 0.66356  0.94801  0.68247  Biso   1.000  H
  H48      1.0000 0.83644  0.44801  0.81753  Biso   1.000  H
  C65      1.0000 0.27030  0.15620  0.29290  Biso   1.000  C
  C66      1.0000 0.22970  0.65620  0.20710  Biso   1.000  C
  C67      1.0000 0.72970  0.84380  0.70710  Biso   1.000  C
  C68      1.0000 0.77030  0.34380  0.79290  Biso   1.000  C
  C69      1.0000 0.26980  0.22300  0.24540  Biso   1.000  C
  C70      1.0000 0.23020  0.72300  0.25460  Biso   1.000  C
  C71      1.0000 0.73020  0.77700  0.75460  Biso   1.000  C
  C72      1.0000 0.76980  0.27700  0.74540  Biso   1.000  C
  C73      1.0000 0.32790  0.22080  0.19840  Biso   1.000  C
  C74      1.0000 0.17210  0.72080  0.30160  Biso   1.000  C
  C75      1.0000 0.67210  0.77920  0.80160  Biso   1.000  C
  C76      1.0000 0.82790  0.27920  0.69840  Biso   1.000  C
  C77      1.0000 0.39390  0.16140  0.20160  Biso   1.000  C
  C78      1.0000 0.10610  0.66140  0.29840  Biso   1.000  C
  C79      1.0000 0.60610  0.83860  0.79840  Biso   1.000  C
  C80      1.0000 0.89390  0.33860  0.70160  Biso   1.000  C
  H49      1.0000 0.43675  0.16410  0.17104  Biso   1.000  H
  H50      1.0000 0.06325  0.66410  0.32896  Biso   1.000  H
  H51      1.0000 0.56325  0.83590  0.82896  Biso   1.000  H
  H52      1.0000 0.93675  0.33590  0.67104  Biso   1.000  H
  C81      1.0000 0.11200  0.60790  0.99880  Biso   1.000  C
  C82      1.0000 0.38800  0.10790  0.50120  Biso   1.000  C
  C83      1.0000 0.88800  0.39210  0.00120  Biso   1.000  C
  C84      1.0000 0.61200  0.89210  0.49880  Biso   1.000  C
  H53      1.0000 0.15422  0.58220  0.97223  Biso   1.000  H
  H54      1.0000 0.34578  0.08220  0.52777  Biso   1.000  H
  H55      1.0000 0.84578  0.41780  0.02777  Biso   1.000  H
  H56      1.0000 0.65422  0.91780  0.47223  Biso   1.000  H
  H57      1.0000 0.06223  0.62497  0.97154  Biso   1.000  H
  H58      1.0000 0.43777  0.12497  0.52846  Biso   1.000  H
  H59      1.0000 0.93777  0.37503  0.02846  Biso   1.000  H
  H60      1.0000 0.56223  0.87503  0.47154  Biso   1.000  H
  H61      1.0000 0.13697  0.65619  0.02072  Biso   1.000  H
  H62      1.0000 0.36303  0.15619  0.47928  Biso   1.000  H
  H63      1.0000 0.86303  0.34381  0.97928  Biso   1.000  H
  H64      1.0000 0.63697  0.84381  0.52072  Biso   1.000  H
  C85      1.0000 0.12720  0.46450  0.04300  Biso   1.000  C
  C86      1.0000 0.37280  0.96450  0.45700  Biso   1.000  C
  C87      1.0000 0.87280  0.53550  0.95700  Biso   1.000  C
  C88      1.0000 0.62720  0.03550  0.54300  Biso   1.000  C
  H65      1.0000 0.16751  0.46309  0.00853  Biso   1.000  H
  H66      1.0000 0.33249  0.96309  0.49147  Biso   1.000  H
  H67      1.0000 0.83249  0.53691  0.99147  Biso   1.000  H
  H68      1.0000 0.66751  0.03691  0.50853  Biso   1.000  H
  H69      1.0000 0.15778  0.45315  0.08428  Biso   1.000  H
  H70      1.0000 0.34222  0.95315  0.41572  Biso   1.000  H
  H71      1.0000 0.84222  0.54685  0.91572  Biso   1.000  H
  H72      1.0000 0.65778  0.04685  0.58428  Biso   1.000  H
  H73      1.0000 0.08297  0.42267  0.03486  Biso   1.000  H
  H74      1.0000 0.41703  0.92267  0.46514  Biso   1.000  H
  H75      1.0000 0.91703  0.57733  0.96514  Biso   1.000  H
  H76      1.0000 0.58297  0.07733  0.53486  Biso   1.000  H
  C89      1.0000 0.02870  0.56750  0.08800  Biso   1.000  C
  C90      1.0000 0.47130  0.06750  0.41200  Biso   1.000  C
  C91      1.0000 0.97130  0.43250  0.91200  Biso   1.000  C
  C92      1.0000 0.52870  0.93250  0.58800  Biso   1.000  C
  H77      1.0000 0.00863  0.62268  0.08702  Biso   1.000  H
  H78      1.0000 0.49137  0.12268  0.41298  Biso   1.000  H
  H79      1.0000 0.99137  0.37732  0.91298  Biso   1.000  H
  H80      1.0000 0.50863  0.87732  0.58702  Biso   1.000  H
  N25      1.0000 0.74200  0.19200  0.13880  Biso   1.000  N
  N26      1.0000 0.75800  0.69200  0.36120  Biso   1.000  N
  N27      1.0000 0.25800  0.80800  0.86120  Biso   1.000  N
  N28      1.0000 0.24200  0.30800  0.63880  Biso   1.000  N
  H81      1.0000 0.77073  0.23711  0.13160  Biso   1.000  H
  H82      1.0000 0.72927  0.73711  0.36840  Biso   1.000  H
  H83      1.0000 0.22927  0.76289  0.86840  Biso   1.000  H
  H84      1.0000 0.27073  0.26289  0.63160  Biso   1.000  H
  H85      1.0000 0.73927  0.15234  0.11022  Biso   1.000  H
  H86      1.0000 0.76073  0.65234  0.38978  Biso   1.000  H
  H87      1.0000 0.26073  0.84766  0.88978  Biso   1.000  H
  H88      1.0000 0.23927  0.34766  0.61022  Biso   1.000  H
  O69      1.0000 0.15400  0.00000  0.39930  Biso   1.000  O
  O70      1.0000 0.34600  0.50000  0.10070  Biso   1.000  O
  O71      1.0000 0.84600  0.00000  0.60070  Biso   1.000  O
  O72      1.0000 0.65400  0.50000  0.89930  Biso   1.000  O
  N29      1.0000 0.06500  0.93300  0.32240  Biso   1.000  N
  N30      1.0000 0.43500  0.43300  0.17760  Biso   1.000  N
  N31      1.0000 0.93500  0.06700  0.67760  Biso   1.000  N
  N32      1.0000 0.56500  0.56700  0.82240  Biso   1.000  N
  C93      1.0000 0.11200  0.96300  0.27000  Biso   1.000  C
  C94      1.0000 0.38800  0.46300  0.23000  Biso   1.000  C
  C95      1.0000 0.88800  0.03700  0.73000  Biso   1.000  C
  C96      1.0000 0.61200  0.53700  0.77000  Biso   1.000  C
  H89      1.0000 0.16255  0.99368  0.28706  Biso   1.000  H
  H90      1.0000 0.33745  0.49368  0.21294  Biso   1.000  H
  H91      1.0000 0.83745  0.00632  0.71294  Biso   1.000  H
  H92      1.0000 0.66255  0.50632  0.78706  Biso   1.000  H
  H93      1.0000 0.13102  0.91688  0.24390  Biso   1.000  H
  H94      1.0000 0.36898  0.41688  0.25610  Biso   1.000  H
  H95      1.0000 0.86898  0.08312  0.75610  Biso   1.000  H
  H96      1.0000 0.63102  0.58312  0.74390  Biso   1.000  H
  H97      1.0000 0.07607  0.00001  0.24323  Biso   1.000  H
  H98      1.0000 0.42393  0.50001  0.25677  Biso   1.000  H
  H99      1.0000 0.92393  0.99999  0.75677  Biso   1.000  H
  H100     1.0000 0.57607  0.49999  0.74323  Biso   1.000  H
  C97      1.0000 0.98900  0.88600  0.30800  Biso   1.000  C
  C98      1.0000 0.51100  0.38600  0.19200  Biso   1.000  C
  C99      1.0000 0.01100  0.11400  0.69200  Biso   1.000  C
  C100     1.0000 0.48900  0.61400  0.80800  Biso   1.000  C
  H101     1.0000 0.96371  0.86928  0.34877  Biso   1.000  H
  H102     1.0000 0.53629  0.36928  0.15123  Biso   1.000  H
  H103     1.0000 0.03629  0.13072  0.65123  Biso   1.000  H
  H104     1.0000 0.46371  0.63072  0.84877  Biso   1.000  H
  H105     1.0000 0.94736  0.91948  0.28317  Biso   1.000  H
  H106     1.0000 0.55264  0.41948  0.21683  Biso   1.000  H
  H107     1.0000 0.05264  0.08052  0.71683  Biso   1.000  H
  H108     1.0000 0.44736  0.58052  0.78317  Biso   1.000  H
  H109     1.0000 0.00231  0.83635  0.28384  Biso   1.000  H
  H110     1.0000 0.49769  0.33635  0.21616  Biso   1.000  H
  H111     1.0000 0.99769  0.16365  0.71616  Biso   1.000  H
  H112     1.0000 0.50231  0.66365  0.78384  Biso   1.000  H
  C101     1.0000 0.08900  0.95700  0.38700  Biso   1.000  C
  C102     1.0000 0.41100  0.45700  0.11300  Biso   1.000  C
  C103     1.0000 0.91100  0.04300  0.61300  Biso   1.000  C
  C104     1.0000 0.58900  0.54300  0.88700  Biso   1.000  C
  H113     1.0000 0.05532  0.94048  0.42150  Biso   1.000  H
  H114     1.0000 0.44468  0.44048  0.07850  Biso   1.000  H
  H115     1.0000 0.94468  0.05952  0.57850  Biso   1.000  H
  H116     1.0000 0.55532  0.55952  0.92150  Biso   1.000  H
  N33      1.0000 0.01060  0.51660  0.38800  Biso   1.000  N
  N34      1.0000 0.48940  0.01660  0.11200  Biso   1.000  N
  N35      1.0000 0.98940  0.48340  0.61200  Biso   1.000  N
  N36      1.0000 0.51060  0.98340  0.88800  Biso   1.000  N
  C105     1.0000 0.05010  0.55350  0.43370  Biso   1.000  C
  C106     1.0000 0.44990  0.05350  0.06630  Biso   1.000  C
  C107     1.0000 0.94990  0.44650  0.56630  Biso   1.000  C
  C108     1.0000 0.55010  0.94650  0.93370  Biso   1.000  C
  C109     1.0000 0.09770  0.59700  0.49460  Biso   1.000  C
  C110     1.0000 0.40230  0.09700  0.00540  Biso   1.000  C
  C111     1.0000 0.90230  0.40300  0.50540  Biso   1.000  C
  C112     1.0000 0.59770  0.90300  0.99460  Biso   1.000  C
  N37      1.0000 0.02400  0.21400  0.34400  Biso   1.000  N
  N38      1.0000 0.47600  0.71400  0.15600  Biso   1.000  N
  N39      1.0000 0.97600  0.78600  0.65600  Biso   1.000  N
  N40      1.0000 0.52400  0.28600  0.84400  Biso   1.000  N
  C113     1.0000 0.99100  0.16800  0.28900  Biso   1.000  C
  C114     1.0000 0.50900  0.66800  0.21100  Biso   1.000  C
  C115     1.0000 0.00900  0.83200  0.71100  Biso   1.000  C
  C116     1.0000 0.49100  0.33200  0.78900  Biso   1.000  C
  C117     1.0000 0.91900  0.11500  0.30600  Biso   1.000  C
  C118     1.0000 0.58100  0.61500  0.19400  Biso   1.000  C
  C119     1.0000 0.08100  0.88500  0.69400  Biso   1.000  C
  C120     1.0000 0.41900  0.38500  0.80600  Biso   1.000  C
  N41      1.0000 0.33300  0.28500  0.15270  Biso   1.000  N
  N42      1.0000 0.16700  0.78500  0.34730  Biso   1.000  N
  N43      1.0000 0.66700  0.71500  0.84730  Biso   1.000  N
  N44      1.0000 0.83300  0.21500  0.65270  Biso   1.000  N
  H117     1.0000 0.29861  0.32733  0.15393  Biso   1.000  H
  H118     1.0000 0.20139  0.82733  0.34607  Biso   1.000  H
  H119     1.0000 0.70139  0.67267  0.84607  Biso   1.000  H
  H120     1.0000 0.79861  0.17267  0.65393  Biso   1.000  H
  H121     1.0000 0.37086  0.28204  0.12297  Biso   1.000  H
  H122     1.0000 0.12914  0.78204  0.37703  Biso   1.000  H
  H123     1.0000 0.62914  0.71796  0.87703  Biso   1.000  H
  H124     1.0000 0.87086  0.21796  0.62297  Biso   1.000  H
  N45      1.0000 0.21290  0.14950  0.34180  Biso   1.000  N
  N46      1.0000 0.28710  0.64950  0.15820  Biso   1.000  N
  N47      1.0000 0.78710  0.85050  0.65820  Biso   1.000  N
  N48      1.0000 0.71290  0.35050  0.84180  Biso   1.000  N
  H125     1.0000 0.21794  0.10898  0.36966  Biso   1.000  H
  H126     1.0000 0.28206  0.60898  0.13034  Biso   1.000  H
  H127     1.0000 0.78206  0.89102  0.63034  Biso   1.000  H
  H128     1.0000 0.71794  0.39102  0.86966  Biso   1.000  H
  H129     1.0000 0.17187  0.18592  0.34476  Biso   1.000  H
  H130     1.0000 0.32813  0.68592  0.15524  Biso   1.000  H
  H131     1.0000 0.82813  0.81408  0.65524  Biso   1.000  H
  H132     1.0000 0.67187  0.31408  0.84476  Biso   1.000  H
  N49      1.0000 0.72470  0.37030  0.13180  Biso   1.000  N
  N50      1.0000 0.77530  0.87030  0.36820  Biso   1.000  N
  N51      1.0000 0.27530  0.62970  0.86820  Biso   1.000  N
  N52      1.0000 0.22470  0.12970  0.63180  Biso   1.000  N
  H133     1.0000 0.68129  0.33624  0.12765  Biso   1.000  H
  H134     1.0000 0.81871  0.83624  0.37235  Biso   1.000  H
  H135     1.0000 0.31871  0.66376  0.87235  Biso   1.000  H
  H136     1.0000 0.18129  0.16376  0.62765  Biso   1.000  H
  H137     1.0000 0.73460  0.40532  0.10088  Biso   1.000  H
  H138     1.0000 0.76540  0.90532  0.39912  Biso   1.000  H
  H139     1.0000 0.26540  0.59468  0.89912  Biso   1.000  H
  H140     1.0000 0.23460  0.09468  0.60088  Biso   1.000  H
