data_image0
_cell_length_a       7.9026
_cell_length_b       11.137
_cell_length_c       12.978
_cell_angle_alpha    90
_cell_angle_beta     90
_cell_angle_gamma    90

_symmetry_space_group_name_H-M    "P 1"
_symmetry_int_tables_number       1

loop_
  _symmetry_equiv_pos_as_xyz
  'x, y, z'

loop_
  _atom_site_label
  _atom_site_occupancy
  _atom_site_fract_x
  _atom_site_fract_y
  _atom_site_fract_z
  _atom_site_thermal_displace_type
  _atom_site_B_iso_or_equiv
  _atom_site_type_symbol
  C1       1.0000 0.01251  0.82336  0.71376  Biso   1.000  C
  C2       1.0000 0.48749  0.17664  0.21376  Biso   1.000  C
  C3       1.0000 0.98749  0.32336  0.78624  Biso   1.000  C
  C4       1.0000 0.51251  0.67664  0.28624  Biso   1.000  C
  H1       1.0000 0.00380  0.85220  0.78250  Biso   1.000  H
  H2       1.0000 0.49620  0.14780  0.28250  Biso   1.000  H
  H3       1.0000 0.99620  0.35220  0.71750  Biso   1.000  H
  H4       1.0000 0.50380  0.64780  0.21750  Biso   1.000  H
  C5       1.0000 0.03975  0.86494  0.54064  Biso   1.000  C
  C6       1.0000 0.46025  0.13506  0.04064  Biso   1.000  C
  C7       1.0000 0.96025  0.36494  0.95936  Biso   1.000  C
  C8       1.0000 0.53975  0.63506  0.45936  Biso   1.000  C
  C9       1.0000 0.03966  0.74086  0.51973  Biso   1.000  C
  C10      1.0000 0.46034  0.25914  0.01973  Biso   1.000  C
  C11      1.0000 0.96034  0.24086  0.98027  Biso   1.000  C
  C12      1.0000 0.53966  0.75914  0.48027  Biso   1.000  C
  H5       1.0000 0.04850  0.71110  0.45130  Biso   1.000  H
  H6       1.0000 0.45150  0.28890  0.95130  Biso   1.000  H
  H7       1.0000 0.95150  0.21110  0.04870  Biso   1.000  H
  H8       1.0000 0.54850  0.78890  0.54870  Biso   1.000  H
  C13      1.0000 0.02613  0.66478  0.60268  Biso   1.000  C
  C14      1.0000 0.47387  0.33522  0.10268  Biso   1.000  C
  C15      1.0000 0.97387  0.16478  0.89732  Biso   1.000  C
  C16      1.0000 0.52613  0.83522  0.39732  Biso   1.000  C
  C17      1.0000 0.06790  0.49053  0.50114  Biso   1.000  C
  C18      1.0000 0.43210  0.50947  0.00114  Biso   1.000  C
  C19      1.0000 0.93210  0.99053  0.99886  Biso   1.000  C
  C20      1.0000 0.56790  0.00947  0.49886  Biso   1.000  C
  H9       1.0000 0.97870  0.50800  0.45090  Biso   1.000  H
  H10      1.0000 0.52130  0.49200  0.95090  Biso   1.000  H
  H11      1.0000 0.02130  0.00800  0.04910  Biso   1.000  H
  H12      1.0000 0.47870  0.99200  0.54910  Biso   1.000  H
  H13      1.0000 0.07840  0.40340  0.50980  Biso   1.000  H
  H14      1.0000 0.42160  0.59660  0.00980  Biso   1.000  H
  H15      1.0000 0.92160  0.90340  0.99020  Biso   1.000  H
  H16      1.0000 0.57840  0.09660  0.49020  Biso   1.000  H
  H17      1.0000 0.17560  0.52340  0.47650  Biso   1.000  H
  H18      1.0000 0.32440  0.47660  0.97650  Biso   1.000  H
  H19      1.0000 0.82440  0.02340  0.02350  Biso   1.000  H
  H20      1.0000 0.67560  0.97660  0.52350  Biso   1.000  H
  N1       1.0000 0.01322  0.70563  0.70083  Biso   1.000  N
  N2       1.0000 0.48678  0.29437  0.20083  Biso   1.000  N
  N3       1.0000 0.98678  0.20563  0.79917  Biso   1.000  N
  N4       1.0000 0.51322  0.79437  0.29917  Biso   1.000  N
  N5       1.0000 0.02295  0.90569  0.63891  Biso   1.000  N
  N6       1.0000 0.47705  0.09431  0.13891  Biso   1.000  N
  N7       1.0000 0.97705  0.40569  0.86109  Biso   1.000  N
  N8       1.0000 0.52295  0.59431  0.36109  Biso   1.000  N
  N9       1.0000 0.05521  0.94435  0.46412  Biso   1.000  N
  N10      1.0000 0.44479  0.05565  0.96412  Biso   1.000  N
  N11      1.0000 0.94479  0.44435  0.03588  Biso   1.000  N
  N12      1.0000 0.55521  0.55565  0.53588  Biso   1.000  N
  H21      1.0000 0.06300  0.92570  0.40530  Biso   1.000  H
  H22      1.0000 0.43700  0.07430  0.90530  Biso   1.000  H
  H23      1.0000 0.93700  0.42570  0.09470  Biso   1.000  H
  H24      1.0000 0.56300  0.57430  0.59470  Biso   1.000  H
  H25      1.0000 0.07200  0.00950  0.47510  Biso   1.000  H
  H26      1.0000 0.42800  0.99050  0.97510  Biso   1.000  H
  H27      1.0000 0.92800  0.50950  0.02490  Biso   1.000  H
  H28      1.0000 0.57200  0.49050  0.52490  Biso   1.000  H
  O1       1.0000 0.02518  0.54471  0.59872  Biso   1.000  O
  O2       1.0000 0.47482  0.45529  0.09872  Biso   1.000  O
  O3       1.0000 0.97482  0.04471  0.90128  Biso   1.000  O
  O4       1.0000 0.52518  0.95529  0.40128  Biso   1.000  O
  O5       1.0000 0.75332  0.04170  0.70996  Biso   1.000  O
  O6       1.0000 0.74668  0.95830  0.20996  Biso   1.000  O
  O7       1.0000 0.24668  0.54170  0.79004  Biso   1.000  O
  O8       1.0000 0.25332  0.45830  0.29004  Biso   1.000  O
  H29      1.0000 0.73500  0.98080  0.73580  Biso   1.000  H
  H30      1.0000 0.76500  0.01920  0.23580  Biso   1.000  H
  H31      1.0000 0.26500  0.48080  0.76420  Biso   1.000  H
  H32      1.0000 0.23500  0.51920  0.26420  Biso   1.000  H
  H33      1.0000 0.70400  0.09350  0.73690  Biso   1.000  H
  H34      1.0000 0.79600  0.90650  0.23690  Biso   1.000  H
  H35      1.0000 0.29600  0.59350  0.76310  Biso   1.000  H
  H36      1.0000 0.20400  0.40650  0.26310  Biso   1.000  H
  O9       1.0000 0.22892  0.10842  0.65568  Biso   1.000  O
  O10      1.0000 0.27108  0.89158  0.15568  Biso   1.000  O
  O11      1.0000 0.77108  0.60842  0.84432  Biso   1.000  O
  O12      1.0000 0.72892  0.39158  0.34432  Biso   1.000  O
  H37      1.0000 0.25400  0.17100  0.67060  Biso   1.000  H
  H38      1.0000 0.24600  0.82900  0.17060  Biso   1.000  H
  H39      1.0000 0.74600  0.67100  0.82940  Biso   1.000  H
  H40      1.0000 0.75400  0.32900  0.32940  Biso   1.000  H
  H41      1.0000 0.28600  0.05970  0.68100  Biso   1.000  H
  H42      1.0000 0.21400  0.94030  0.18100  Biso   1.000  H
  H43      1.0000 0.71400  0.55970  0.81900  Biso   1.000  H
  H44      1.0000 0.78600  0.44030  0.31900  Biso   1.000  H
  O13      1.0000 0.91573  0.20785  0.57060  Biso   1.000  O
  O14      1.0000 0.58427  0.79215  0.07060  Biso   1.000  O
  O15      1.0000 0.08427  0.70785  0.92940  Biso   1.000  O
  O16      1.0000 0.41573  0.29215  0.42940  Biso   1.000  O
  H45      1.0000 0.82050  0.22280  0.57910  Biso   1.000  H
  H46      1.0000 0.67950  0.77720  0.07910  Biso   1.000  H
  H47      1.0000 0.17950  0.72280  0.92090  Biso   1.000  H
  H48      1.0000 0.32050  0.27720  0.42090  Biso   1.000  H
  H49      1.0000 0.95300  0.21260  0.51300  Biso   1.000  H
  H50      1.0000 0.54700  0.78740  0.01300  Biso   1.000  H
  H51      1.0000 0.04700  0.71260  0.98700  Biso   1.000  H
  H52      1.0000 0.45300  0.28740  0.48700  Biso   1.000  H
  Cu1      1.0000 0.99048  0.07820  0.68644  Biso   1.000  Cu
  Cu2      1.0000 0.50952  0.92180  0.18644  Biso   1.000  Cu
  Cu3      1.0000 0.00952  0.57820  0.81356  Biso   1.000  Cu
  Cu4      1.0000 0.49048  0.42180  0.31356  Biso   1.000  Cu
  O17      1.0000 0.09580  0.20502  0.39422  Biso   1.000  O
  O18      1.0000 0.40420  0.79498  0.89422  Biso   1.000  O
  O19      1.0000 0.90420  0.70502  0.10578  Biso   1.000  O
  O20      1.0000 0.59580  0.29498  0.60578  Biso   1.000  O
  O21      1.0000 0.84281  0.17025  0.29526  Biso   1.000  O
  O22      1.0000 0.65719  0.82975  0.79526  Biso   1.000  O
  O23      1.0000 0.15719  0.67025  0.20474  Biso   1.000  O
  O24      1.0000 0.34281  0.32975  0.70474  Biso   1.000  O
  O25      1.0000 0.09647  0.06119  0.25519  Biso   1.000  O
  O26      1.0000 0.40353  0.93881  0.75519  Biso   1.000  O
  O27      1.0000 0.90353  0.56119  0.24481  Biso   1.000  O
  O28      1.0000 0.59647  0.43881  0.74481  Biso   1.000  O
  O29      1.0000 0.07907  0.27434  0.21795  Biso   1.000  O
  O30      1.0000 0.42093  0.72566  0.71795  Biso   1.000  O
  O31      1.0000 0.92093  0.77434  0.28205  Biso   1.000  O
  O32      1.0000 0.57907  0.22566  0.78205  Biso   1.000  O
  S1       1.0000 0.03095  0.17747  0.28950  Biso   1.000  S
  S2       1.0000 0.46905  0.82253  0.78950  Biso   1.000  S
  S3       1.0000 0.96905  0.67747  0.21050  Biso   1.000  S
  S4       1.0000 0.53095  0.32253  0.71050  Biso   1.000  S
