data_image0
_cell_length_a       16.6154
_cell_length_b       16.741
_cell_length_c       16.8408
_cell_angle_alpha    91.843
_cell_angle_beta     105.204
_cell_angle_gamma    117.988

_symmetry_space_group_name_H-M    "P 1"
_symmetry_int_tables_number       1

loop_
  _symmetry_equiv_pos_as_xyz
  'x, y, z'

loop_
  _atom_site_label
  _atom_site_occupancy
  _atom_site_fract_x
  _atom_site_fract_y
  _atom_site_fract_z
  _atom_site_thermal_displace_type
  _atom_site_B_iso_or_equiv
  _atom_site_type_symbol
  Cu1      1.0000 0.64153  0.83326  0.30359  Biso   1.000  Cu
  Cu2      1.0000 0.35847  0.16674  0.69641  Biso   1.000  Cu
  C1       1.0000 0.21400  0.05020  0.17120  Biso   1.000  C
  C2       1.0000 0.78600  0.94980  0.82880  Biso   1.000  C
  H1       1.0000 0.17090  0.05440  0.19450  Biso   1.000  H
  H2       1.0000 0.82910  0.94560  0.80550  Biso   1.000  H
  C3       1.0000 0.26400  0.00880  0.20820  Biso   1.000  C
  C4       1.0000 0.73600  0.99120  0.79180  Biso   1.000  C
  H3       1.0000 0.25480  0.98530  0.25630  Biso   1.000  H
  H4       1.0000 0.74520  0.01470  0.74370  Biso   1.000  H
  C5       1.0000 0.32900  0.00120  0.17430  Biso   1.000  C
  C6       1.0000 0.67100  0.99880  0.82570  Biso   1.000  C
  C7       1.0000 0.34330  0.04130  0.10440  Biso   1.000  C
  C8       1.0000 0.65670  0.95870  0.89560  Biso   1.000  C
  H5       1.0000 0.38810  0.04010  0.08160  Biso   1.000  H
  H6       1.0000 0.61190  0.95990  0.91840  Biso   1.000  H
  C9       1.0000 0.29110  0.08320  0.06850  Biso   1.000  C
  C10      1.0000 0.70890  0.91680  0.93150  Biso   1.000  C
  H7       1.0000 0.30100  0.10980  0.02180  Biso   1.000  H
  H8       1.0000 0.69900  0.89020  0.97820  Biso   1.000  H
  C11      1.0000 0.44190  0.89350  0.32400  Biso   1.000  C
  C12      1.0000 0.55810  0.10650  0.67600  Biso   1.000  C
  H9       1.0000 0.45260  0.88710  0.37990  Biso   1.000  H
  H10      1.0000 0.54740  0.11290  0.62010  Biso   1.000  H
  C13      1.0000 0.39500  0.93970  0.29300  Biso   1.000  C
  C14      1.0000 0.60500  0.06030  0.70700  Biso   1.000  C
  H11      1.0000 0.37330  0.96380  0.32750  Biso   1.000  H
  H12      1.0000 0.62670  0.03620  0.67250  Biso   1.000  H
  C15      1.0000 0.37960  0.95090  0.21020  Biso   1.000  C
  C16      1.0000 0.62040  0.04910  0.78980  Biso   1.000  C
  C17      1.0000 0.41170  0.91100  0.16070  Biso   1.000  C
  C18      1.0000 0.58830  0.08900  0.83930  Biso   1.000  C
  H13      1.0000 0.40190  0.91640  0.10470  Biso   1.000  H
  H14      1.0000 0.59810  0.08360  0.89530  Biso   1.000  H
  C19      1.0000 0.45710  0.86470  0.19390  Biso   1.000  C
  C20      1.0000 0.54290  0.13530  0.80610  Biso   1.000  C
  H15      1.0000 0.47750  0.83810  0.16010  Biso   1.000  H
  H16      1.0000 0.52250  0.16190  0.83990  Biso   1.000  H
  C21      1.0000 0.53110  0.66560  0.41220  Biso   1.000  C
  C22      1.0000 0.46890  0.33440  0.58780  Biso   1.000  C
  H17      1.0000 0.51920  0.71460  0.40950  Biso   1.000  H
  H18      1.0000 0.48080  0.28540  0.59050  Biso   1.000  H
  C23      1.0000 0.50120  0.60740  0.46600  Biso   1.000  C
  C24      1.0000 0.49880  0.39260  0.53400  Biso   1.000  C
  H19      1.0000 0.46950  0.61770  0.49970  Biso   1.000  H
  H20      1.0000 0.53050  0.38230  0.50030  Biso   1.000  H
  C25      1.0000 0.51690  0.53260  0.47160  Biso   1.000  C
  C26      1.0000 0.48310  0.46740  0.52840  Biso   1.000  C
  C27      1.0000 0.56650  0.52230  0.42090  Biso   1.000  C
  C28      1.0000 0.43350  0.47770  0.57910  Biso   1.000  C
  H21      1.0000 0.57940  0.47390  0.42290  Biso   1.000  H
  H22      1.0000 0.42060  0.52610  0.57710  Biso   1.000  H
  C29      1.0000 0.59680  0.58250  0.36790  Biso   1.000  C
  C30      1.0000 0.40320  0.41750  0.63210  Biso   1.000  C
  H23      1.0000 0.63060  0.57490  0.33500  Biso   1.000  H
  H24      1.0000 0.36940  0.42510  0.66500  Biso   1.000  H
  C31      1.0000 0.49560  0.67690  0.04560  Biso   1.000  C
  C32      1.0000 0.50440  0.32310  0.95440  Biso   1.000  C
  H25      1.0000 0.46160  0.70760  0.02820  Biso   1.000  H
  H26      1.0000 0.53840  0.29240  0.97180  Biso   1.000  H
  C33      1.0000 0.46640  0.59370  0.99960  Biso   1.000  C
  C34      1.0000 0.53360  0.40630  0.00040  Biso   1.000  C
  H27      1.0000 0.41340  0.56910  0.95150  Biso   1.000  H
  H28      1.0000 0.58660  0.43090  0.04850  Biso   1.000  H
  C35      1.0000 0.51490  0.54550  0.02370  Biso   1.000  C
  C36      1.0000 0.48510  0.45450  0.97630  Biso   1.000  C
  C37      1.0000 0.59420  0.58760  0.09570  Biso   1.000  C
  C38      1.0000 0.40580  0.41240  0.90430  Biso   1.000  C
  H29      1.0000 0.62980  0.55870  0.11410  Biso   1.000  H
  H30      1.0000 0.37020  0.44130  0.88590  Biso   1.000  H
  C39      1.0000 0.62090  0.67130  0.14020  Biso   1.000  C
  C40      1.0000 0.37910  0.32870  0.85980  Biso   1.000  C
  H31      1.0000 0.67380  0.69780  0.18850  Biso   1.000  H
  H32      1.0000 0.32620  0.30220  0.81150  Biso   1.000  H
  N1       1.0000 0.47290  0.85680  0.27480  Biso   1.000  N
  N2       1.0000 0.52710  0.14320  0.72520  Biso   1.000  N
  N3       1.0000 0.22590  0.08520  0.10130  Biso   1.000  N
  N4       1.0000 0.77410  0.91480  0.89870  Biso   1.000  N
  N5       1.0000 0.57130  0.71490  0.11460  Biso   1.000  N
  N6       1.0000 0.42870  0.28510  0.88540  Biso   1.000  N
  N7       1.0000 0.57780  0.65300  0.36310  Biso   1.000  N
  N8       1.0000 0.42220  0.34700  0.63690  Biso   1.000  N
  O1       1.0000 0.51640  0.80990  0.30800  Biso   1.000  O
  O2       1.0000 0.48360  0.19010  0.69200  Biso   1.000  O
  O3       1.0000 0.17100  0.11870  0.06330  Biso   1.000  O
  O4       1.0000 0.82900  0.88130  0.93670  Biso   1.000  O
  O5       1.0000 0.59650  0.79520  0.15740  Biso   1.000  O
  O6       1.0000 0.40350  0.20480  0.84260  Biso   1.000  O
  O7       1.0000 0.60170  0.70280  0.30550  Biso   1.000  O
  O8       1.0000 0.39830  0.29720  0.69450  Biso   1.000  O
  O9       1.0000 0.77050  0.85230  0.31210  Biso   1.000  O
  O10      1.0000 0.22950  0.14770  0.68790  Biso   1.000  O
  O11      1.0000 0.68430  0.96130  0.28080  Biso   1.000  O
  O12      1.0000 0.31570  0.03870  0.71920  Biso   1.000  O
  O13      1.0000 0.69220  0.88170  0.45230  Biso   1.000  O
  O14      1.0000 0.30780  0.11830  0.54770  Biso   1.000  O
  Cu3      1.0000 0.00000  0.50000  0.50000  Biso   1.000  Cu
  Cu4      1.0000 0.00000  0.00000  0.00000  Biso   1.000  Cu
  C41      1.0000 0.89250  0.36790  0.29960  Biso   1.000  C
  C42      1.0000 0.10750  0.63210  0.70040  Biso   1.000  C
  H33      1.0000 0.84360  0.34750  0.32390  Biso   1.000  H
  H34      1.0000 0.15640  0.65250  0.67610  Biso   1.000  H
  C43      1.0000 0.89000  0.30790  0.23880  Biso   1.000  C
  C44      1.0000 0.11000  0.69210  0.76120  Biso   1.000  C
  H35      1.0000 0.83920  0.24780  0.22170  Biso   1.000  H
  H36      1.0000 0.16080  0.75220  0.77830  Biso   1.000  H
  C45      1.0000 0.96390  0.33850  0.20390  Biso   1.000  C
  C46      1.0000 0.03610  0.66150  0.79610  Biso   1.000  C
  C47      1.0000 0.03550  0.42930  0.22940  Biso   1.000  C
  C48      1.0000 0.96450  0.57070  0.77060  Biso   1.000  C
  H37      1.0000 0.08480  0.45160  0.20560  Biso   1.000  H
  H38      1.0000 0.91520  0.54840  0.79440  Biso   1.000  H
  C49      1.0000 0.03610  0.48740  0.28860  Biso   1.000  C
  C50      1.0000 0.96390  0.51260  0.71140  Biso   1.000  C
  H39      1.0000 0.08490  0.54850  0.30460  Biso   1.000  H
  H40      1.0000 0.91510  0.45150  0.69540  Biso   1.000  H
  C51      1.0000 0.88770  0.15430  0.02350  Biso   1.000  C
  C52      1.0000 0.11230  0.84570  0.97650  Biso   1.000  C
  H41      1.0000 0.83250  0.11420  0.98010  Biso   1.000  H
  H42      1.0000 0.16750  0.88580  0.01990  Biso   1.000  H
  C53      1.0000 0.88400  0.21220  0.07960  Biso   1.000  C
  C54      1.0000 0.11600  0.78780  0.92040  Biso   1.000  C
  H43      1.0000 0.82580  0.20930  0.07550  Biso   1.000  H
  H44      1.0000 0.17420  0.79070  0.92450  Biso   1.000  H
  C55      1.0000 0.96630  0.27530  0.14250  Biso   1.000  C
  C56      1.0000 0.03370  0.72470  0.85750  Biso   1.000  C
  C57      1.0000 0.05130  0.27540  0.14720  Biso   1.000  C
  C58      1.0000 0.94870  0.72460  0.85280  Biso   1.000  C
  H45      1.0000 0.10790  0.31700  0.18850  Biso   1.000  H
  H46      1.0000 0.89210  0.68300  0.81150  Biso   1.000  H
  C59      1.0000 0.05170  0.21450  0.09110  Biso   1.000  C
  C60      1.0000 0.94830  0.78550  0.90890  Biso   1.000  C
  H47      1.0000 0.10850  0.21430  0.09490  Biso   1.000  H
  H48      1.0000 0.89150  0.78570  0.90510  Biso   1.000  H
  N9       1.0000 0.96490  0.45490  0.32340  Biso   1.000  N
  N10      1.0000 0.03510  0.54510  0.67660  Biso   1.000  N
  N11      1.0000 0.97000  0.15480  0.03030  Biso   1.000  N
  N12      1.0000 0.03000  0.84520  0.96970  Biso   1.000  N
  O15      1.0000 0.96500  0.51310  0.38070  Biso   1.000  O
  O16      1.0000 0.03500  0.48690  0.61930  Biso   1.000  O
  O17      1.0000 0.97160  0.09810  0.97302  Biso   1.000  O
  O18      1.0000 0.02840  0.90190  0.02698  Biso   1.000  O
  O19      1.0000 0.86170  0.44280  0.49232  Biso   1.000  O
  O20      1.0000 0.13830  0.55720  0.50768  Biso   1.000  O
  O21      1.0000 0.97850  0.35210  0.47701  Biso   1.000  O
  O22      1.0000 0.02150  0.64790  0.52299  Biso   1.000  O
  O23      1.0000 0.98670  0.00300  0.11250  Biso   1.000  O
  O24      1.0000 0.01330  0.99700  0.88750  Biso   1.000  O
  S1       1.0000 0.07471  0.70570  0.16146  Biso   1.000  S
  S2       1.0000 0.92529  0.29430  0.83854  Biso   1.000  S
  S3       1.0000 0.18999  0.37400  0.43344  Biso   1.000  S
  S4       1.0000 0.81001  0.62600  0.56656  Biso   1.000  S
  S5       1.0000 0.52975  0.18762  0.44961  Biso   1.000  S
  S6       1.0000 0.47025  0.81238  0.55039  Biso   1.000  S
  S7       1.0000 0.59418  0.14446  0.06975  Biso   1.000  S
  S8       1.0000 0.40582  0.85554  0.93025  Biso   1.000  S
  C61      1.0000 0.15770  0.56730  0.03060  Biso   1.000  C
  C62      1.0000 0.84230  0.43270  0.96940  Biso   1.000  C
  C63      1.0000 0.11020  0.61070  0.05280  Biso   1.000  C
  C64      1.0000 0.88980  0.38930  0.94720  Biso   1.000  C
  H49      1.0000 0.06010  0.61110  0.01240  Biso   1.000  H
  H50      1.0000 0.93990  0.38890  0.98760  Biso   1.000  H
  C65      1.0000 0.13720  0.65240  0.13380  Biso   1.000  C
  C66      1.0000 0.86280  0.34760  0.86620  Biso   1.000  C
  C67      1.0000 0.21130  0.65260  0.19520  Biso   1.000  C
  C68      1.0000 0.78870  0.34740  0.80480  Biso   1.000  C
  H51      1.0000 0.22980  0.68240  0.24970  Biso   1.000  H
  H52      1.0000 0.77020  0.31760  0.75030  Biso   1.000  H
  C69      1.0000 0.25860  0.60780  0.17520  Biso   1.000  C
  C70      1.0000 0.74140  0.39220  0.82480  Biso   1.000  C
  C71      1.0000 0.23000  0.56540  0.09290  Biso   1.000  C
  C72      1.0000 0.77000  0.43460  0.90710  Biso   1.000  C
  C73      1.0000 0.33990  0.60710  0.24260  Biso   1.000  C
  C74      1.0000 0.66010  0.39290  0.75740  Biso   1.000  C
  H53      1.0000 0.35930  0.65210  0.29140  Biso   1.000  H
  H54      1.0000 0.64070  0.34790  0.70860  Biso   1.000  H
  H55      1.0000 0.39450  0.62640  0.22220  Biso   1.000  H
  H56      1.0000 0.60550  0.37360  0.77780  Biso   1.000  H
  C75      1.0000 0.31510  0.51380  0.26950  Biso   1.000  C
  C76      1.0000 0.68490  0.48620  0.73050  Biso   1.000  C
  C77      1.0000 0.27170  0.48880  0.33050  Biso   1.000  C
  C78      1.0000 0.72830  0.51120  0.66950  Biso   1.000  C
  H57      1.0000 0.25500  0.52800  0.35340  Biso   1.000  H
  H58      1.0000 0.74500  0.47200  0.64660  Biso   1.000  H
  C79      1.0000 0.25190  0.40670  0.35910  Biso   1.000  C
  C80      1.0000 0.74810  0.59330  0.64090  Biso   1.000  C
  C81      1.0000 0.27560  0.34700  0.32420  Biso   1.000  C
  C82      1.0000 0.72440  0.65300  0.67580  Biso   1.000  C
  H59      1.0000 0.26160  0.29150  0.34240  Biso   1.000  H
  H60      1.0000 0.73840  0.70850  0.65760  Biso   1.000  H
  C83      1.0000 0.31990  0.37020  0.26250  Biso   1.000  C
  C84      1.0000 0.68010  0.62980  0.73750  Biso   1.000  C
  C85      1.0000 0.34070  0.45390  0.23640  Biso   1.000  C
  C86      1.0000 0.65930  0.54610  0.76360  Biso   1.000  C
  C87      1.0000 0.34270  0.30290  0.22430  Biso   1.000  C
  C88      1.0000 0.65730  0.69710  0.77570  Biso   1.000  C
  H61      1.0000 0.29170  0.24090  0.22030  Biso   1.000  H
  H62      1.0000 0.70830  0.75910  0.77970  Biso   1.000  H
  H63      1.0000 0.34280  0.31250  0.16780  Biso   1.000  H
  H64      1.0000 0.65720  0.68750  0.83220  Biso   1.000  H
  C89      1.0000 0.43770  0.30990  0.27170  Biso   1.000  C
  C90      1.0000 0.56230  0.69010  0.72830  Biso   1.000  C
  C91      1.0000 0.44000  0.25310  0.33020  Biso   1.000  C
  C92      1.0000 0.56000  0.74690  0.66980  Biso   1.000  C
  H65      1.0000 0.38340  0.21140  0.33960  Biso   1.000  H
  H66      1.0000 0.61660  0.78860  0.66040  Biso   1.000  H
  C93      1.0000 0.52650  0.25850  0.37460  Biso   1.000  C
  C94      1.0000 0.47350  0.74150  0.62540  Biso   1.000  C
  C95      1.0000 0.61190  0.32050  0.36110  Biso   1.000  C
  C96      1.0000 0.38810  0.67950  0.63890  Biso   1.000  C
  H67      1.0000 0.66940  0.32430  0.39150  Biso   1.000  H
  H68      1.0000 0.33060  0.67570  0.60850  Biso   1.000  H
  C97      1.0000 0.61100  0.37700  0.30160  Biso   1.000  C
  C98      1.0000 0.38900  0.62300  0.69840  Biso   1.000  C
  C99      1.0000 0.52380  0.37100  0.25810  Biso   1.000  C
  C100     1.0000 0.47620  0.62900  0.74190  Biso   1.000  C
  C101     1.0000 0.70170  0.43960  0.28270  Biso   1.000  C
  C102     1.0000 0.29830  0.56040  0.71730  Biso   1.000  C
  H69      1.0000 0.75650  0.45400  0.33090  Biso   1.000  H
  H70      1.0000 0.24350  0.54600  0.66910  Biso   1.000  H
  H71      1.0000 0.70260  0.49670  0.27270  Biso   1.000  H
  H72      1.0000 0.29740  0.50330  0.72730  Biso   1.000  H
  C103     1.0000 0.71070  0.39660  0.20660  Biso   1.000  C
  C104     1.0000 0.28930  0.60340  0.79340  Biso   1.000  C
  C105     1.0000 0.65470  0.30330  0.17480  Biso   1.000  C
  C106     1.0000 0.34530  0.69670  0.82520  Biso   1.000  C
  H73      1.0000 0.60870  0.26620  0.19870  Biso   1.000  H
  H74      1.0000 0.39130  0.73380  0.80130  Biso   1.000  H
  C107     1.0000 0.66620  0.26430  0.10750  Biso   1.000  C
  C108     1.0000 0.33380  0.73570  0.89250  Biso   1.000  C
  C109     1.0000 0.73170  0.31880  0.06920  Biso   1.000  C
  C110     1.0000 0.26830  0.68120  0.93080  Biso   1.000  C
  H75      1.0000 0.73620  0.29240  0.02230  Biso   1.000  H
  H76      1.0000 0.26380  0.70760  0.97770  Biso   1.000  H
  C111     1.0000 0.79100  0.41280  0.09970  Biso   1.000  C
  C112     1.0000 0.20900  0.58720  0.90030  Biso   1.000  C
  C113     1.0000 0.78070  0.45110  0.16990  Biso   1.000  C
  C114     1.0000 0.21930  0.54890  0.83010  Biso   1.000  C
  C115     1.0000 0.13300  0.52750  0.93910  Biso   1.000  C
  C116     1.0000 0.86700  0.47250  0.06090  Biso   1.000  C
  H77      1.0000 0.12620  0.46660  0.93550  Biso   1.000  H
  H78      1.0000 0.87380  0.53340  0.06450  Biso   1.000  H
  H79      1.0000 0.07180  0.52120  0.90750  Biso   1.000  H
  H80      1.0000 0.92820  0.47880  0.09250  Biso   1.000  H
  O25      1.0000 0.01260  0.70690  0.08310  Biso   1.000  O
  O26      1.0000 0.98740  0.29310  0.91690  Biso   1.000  O
  O27      1.0000 0.14700  0.79710  0.20820  Biso   1.000  O
  O28      1.0000 0.85300  0.20290  0.79180  Biso   1.000  O
  O29      1.0000 0.02100  0.64830  0.21306  Biso   1.000  O
  O30      1.0000 0.97900  0.35170  0.78694  Biso   1.000  O
  O31      1.0000 0.08820  0.33570  0.38630  Biso   1.000  O
  O32      1.0000 0.91180  0.66430  0.61370  Biso   1.000  O
  O33      1.0000 0.22570  0.45660  0.49301  Biso   1.000  O
  O34      1.0000 0.77430  0.54340  0.50699  Biso   1.000  O
  O35      1.0000 0.20960  0.30540  0.47070  Biso   1.000  O
  O36      1.0000 0.79040  0.69460  0.52930  Biso   1.000  O
  O37      1.0000 0.43140  0.12810  0.44800  Biso   1.000  O
  O38      1.0000 0.56860  0.87190  0.55200  Biso   1.000  O
  O39      1.0000 0.58910  0.24920  0.53010  Biso   1.000  O
  O40      1.0000 0.41090  0.75080  0.46990  Biso   1.000  O
  O41      1.0000 0.57250  0.13670  0.42450  Biso   1.000  O
  O42      1.0000 0.42750  0.86330  0.57550  Biso   1.000  O
  O43      1.0000 0.56230  0.10370  0.13816  Biso   1.000  O
  O44      1.0000 0.43770  0.89630  0.86184  Biso   1.000  O
  O45      1.0000 0.65700  0.11550  0.04680  Biso   1.000  O
  O46      1.0000 0.34300  0.88450  0.95320  Biso   1.000  O
  O47      1.0000 0.51620  0.13220  0.99815  Biso   1.000  O
  O48      1.0000 0.48380  0.86780  0.00185  Biso   1.000  O
  O49      1.0000 0.28010  0.52500  0.07330  Biso   1.000  O
  O50      1.0000 0.71990  0.47500  0.92670  Biso   1.000  O
  O51      1.0000 0.38880  0.47640  0.17827  Biso   1.000  O
  O52      1.0000 0.61120  0.52360  0.82173  Biso   1.000  O
  O53      1.0000 0.52740  0.42690  0.19984  Biso   1.000  O
  O54      1.0000 0.47260  0.57310  0.80016  Biso   1.000  O
  O55      1.0000 0.83710  0.54220  0.20607  Biso   1.000  O
  O56      1.0000 0.16290  0.45780  0.79393  Biso   1.000  O
  O57      1.0000 0.64050  0.10000  0.30260  Biso   1.000  O
  O58      1.0000 0.35950  0.90000  0.69740  Biso   1.000  O
  O59      1.0000 0.67420  0.97440  0.11790  Biso   1.000  O
  O60      1.0000 0.32580  0.02560  0.88210  Biso   1.000  O
  O61      1.0000 0.78600  0.32330  0.58840  Biso   1.000  O
  O62      1.0000 0.21400  0.67670  0.41160  Biso   1.000  O
  O63      1.0000 0.02970  0.30530  0.62900  Biso   1.000  O
  O64      1.0000 0.97030  0.69470  0.37100  Biso   1.000  O
  O65      1.0000 0.16150  0.80910  0.37550  Biso   1.000  O
  O66      1.0000 0.83850  0.19090  0.62450  Biso   1.000  O
  O67      1.0000 0.83050  0.17530  0.39690  Biso   1.000  O
  O68      1.0000 0.16950  0.82470  0.60310  Biso   1.000  O
  O69      1.0000 0.33630  0.95000  0.47990  Biso   1.000  O
  O70      1.0000 0.66370  0.05000  0.52010  Biso   1.000  O
  O71      1.0000 0.99290  0.86780  0.19270  Biso   1.000  O
  O72      1.0000 0.00710  0.13220  0.80730  Biso   1.000  O
  O73      1.0000 0.18360  0.36240  0.98610  Biso   1.000  O
  O74      1.0000 0.81640  0.63760  0.01390  Biso   1.000  O
  O75      1.0000 0.94520  0.15390  0.31420  Biso   1.000  O
  O76      1.0000 0.05480  0.84610  0.68580  Biso   1.000  O
  O77      1.0000 0.81510  0.72460  0.36990  Biso   1.000  O
  O78      1.0000 0.18490  0.27540  0.63010  Biso   1.000  O
  O79      1.0000 0.86780  0.03030  0.16500  Biso   1.000  O
  O80      1.0000 0.13220  0.96970  0.83500  Biso   1.000  O
  O81      1.0000 0.85600  0.05080  0.49040  Biso   1.000  O
  O82      1.0000 0.14400  0.94920  0.50960  Biso   1.000  O
  O83      1.0000 0.92400  0.03530  0.65000  Biso   1.000  O
  O84      1.0000 0.07600  0.96470  0.35000  Biso   1.000  O
  O85      1.0000 0.93800  0.00580  0.37940  Biso   1.000  O
  O86      1.0000 0.06200  0.99420  0.62060  Biso   1.000  O
  O87      1.0000 0.79240  0.85310  0.59960  Biso   1.000  O
  O88      1.0000 0.20760  0.14690  0.40040  Biso   1.000  O
  O89      1.0000 0.21170  0.22320  0.93760  Biso   1.000  O
  O90      1.0000 0.78830  0.77680  0.06240  Biso   1.000  O
  O91      1.0000 0.25720  0.25340  0.98450  Biso   1.000  O
  O92      1.0000 0.74280  0.74660  0.01550  Biso   1.000  O
