data_image0
_cell_length_a       8.463
_cell_length_b       8.525
_cell_length_c       11.489
_cell_angle_alpha    95.86
_cell_angle_beta     107.35
_cell_angle_gamma    107.2

_symmetry_space_group_name_H-M    "P 1"
_symmetry_int_tables_number       1

loop_
  _symmetry_equiv_pos_as_xyz
  'x, y, z'

loop_
  _atom_site_label
  _atom_site_occupancy
  _atom_site_fract_x
  _atom_site_fract_y
  _atom_site_fract_z
  _atom_site_thermal_displace_type
  _atom_site_B_iso_or_equiv
  _atom_site_type_symbol
  Cu1      1.0000 0.00000  0.00000  0.00000  Biso   1.000  Cu
  Cu2      1.0000 0.50000  0.00000  0.50000  Biso   1.000  Cu
  N1       1.0000 0.07910  0.96100  0.17380  Biso   1.000  N
  N2       1.0000 0.92090  0.03900  0.82620  Biso   1.000  N
  C1       1.0000 0.24000  0.99910  0.25560  Biso   1.000  C
  C2       1.0000 0.76000  0.00090  0.74440  Biso   1.000  C
  H1       1.0000 0.33560  0.05170  0.23240  Biso   1.000  H
  H2       1.0000 0.66440  0.94830  0.76760  Biso   1.000  H
  N3       1.0000 0.27130  0.96610  0.36830  Biso   1.000  N
  N4       1.0000 0.72870  0.03390  0.63170  Biso   1.000  N
  C3       1.0000 0.13370  0.89360  0.40430  Biso   1.000  C
  C4       1.0000 0.86630  0.10640  0.59570  Biso   1.000  C
  C5       1.0000 0.96290  0.84900  0.32390  Biso   1.000  C
  C6       1.0000 0.03710  0.15100  0.67610  Biso   1.000  C
  H3       1.0000 0.86750  0.79890  0.34800  Biso   1.000  H
  H4       1.0000 0.13250  0.20110  0.65200  Biso   1.000  H
  C7       1.0000 0.93950  0.88140  0.20630  Biso   1.000  C
  C8       1.0000 0.06050  0.11860  0.79370  Biso   1.000  C
  C9       1.0000 0.76070  0.83000  0.10230  Biso   1.000  C
  C10      1.0000 0.23930  0.17000  0.89770  Biso   1.000  C
  O1       1.0000 0.76650  0.86990  0.99890  Biso   1.000  O
  O2       1.0000 0.23350  0.13010  0.00110  Biso   1.000  O
  O3       1.0000 0.62880  0.75240  0.12460  Biso   1.000  O
  O4       1.0000 0.37120  0.24760  0.87540  Biso   1.000  O
  C11      1.0000 0.18560  0.86470  0.53800  Biso   1.000  C
  C12      1.0000 0.81440  0.13530  0.46200  Biso   1.000  C
  O5       1.0000 0.35090  0.90390  0.59390  Biso   1.000  O
  O6       1.0000 0.64910  0.09610  0.40610  Biso   1.000  O
  O7       1.0000 0.06640  0.80730  0.57770  Biso   1.000  O
  O8       1.0000 0.93360  0.19270  0.42230  Biso   1.000  O
  O9       1.0000 0.04490  0.75360  0.92490  Biso   1.000  O
  O10      1.0000 0.95510  0.24640  0.07510  Biso   1.000  O
  S1       1.0000 0.23275  0.75534  0.97855  Biso   1.000  S
  S2       1.0000 0.76725  0.24466  0.02145  Biso   1.000  S
  C13      1.0000 0.21300  0.53930  0.95790  Biso   1.000  C
  C14      1.0000 0.78700  0.46070  0.04210  Biso   1.000  C
  H5       1.0000 0.15070  0.48580  0.00870  Biso   1.000  H
  H6       1.0000 0.84930  0.51420  0.99130  Biso   1.000  H
  H7       1.0000 0.32830  0.53040  0.98200  Biso   1.000  H
  H8       1.0000 0.67170  0.46960  0.01800  Biso   1.000  H
  H9       1.0000 0.14920  0.48540  0.87190  Biso   1.000  H
  H10      1.0000 0.85080  0.51460  0.12810  Biso   1.000  H
  C15      1.0000 0.33280  0.80770  0.86450  Biso   1.000  C
  C16      1.0000 0.66720  0.19230  0.13550  Biso   1.000  C
  H11      1.0000 0.25470  0.74120  0.78390  Biso   1.000  H
  H12      1.0000 0.74530  0.25880  0.21610  Biso   1.000  H
  H13      1.0000 0.44150  0.78530  0.88520  Biso   1.000  H
  H14      1.0000 0.55850  0.21470  0.11480  Biso   1.000  H
  H15      1.0000 0.35600  0.92460  0.86310  Biso   1.000  H
  H16      1.0000 0.64400  0.07540  0.13690  Biso   1.000  H
  O11      1.0000 0.50530  0.72260  0.43300  Biso   1.000  O
  O12      1.0000 0.49470  0.27740  0.56700  Biso   1.000  O
  S3       1.0000 0.36041  0.60187  0.31941  Biso   1.000  S
  S4       1.0000 0.63959  0.39813  0.68059  Biso   1.000  S
  C17      1.0000 0.45420  0.46050  0.26530  Biso   1.000  C
  C18      1.0000 0.54580  0.53950  0.73470  Biso   1.000  C
  H17      1.0000 0.36470  0.37450  0.19740  Biso   1.000  H
  H18      1.0000 0.63530  0.62550  0.80260  Biso   1.000  H
  H19      1.0000 0.50210  0.41000  0.33200  Biso   1.000  H
  H20      1.0000 0.49790  0.59000  0.66800  Biso   1.000  H
  H21      1.0000 0.54640  0.52080  0.23730  Biso   1.000  H
  H22      1.0000 0.45360  0.47920  0.76270  Biso   1.000  H
  C19      1.0000 0.21670  0.45660  0.37580  Biso   1.000  C
  C20      1.0000 0.78330  0.54340  0.62420  Biso   1.000  C
  H23      1.0000 0.28330  0.40540  0.43290  Biso   1.000  H
  H24      1.0000 0.71670  0.59460  0.56710  Biso   1.000  H
  H25      1.0000 0.12810  0.37140  0.30700  Biso   1.000  H
  H26      1.0000 0.87190  0.62860  0.69300  Biso   1.000  H
  H27      1.0000 0.16130  0.51460  0.41780  Biso   1.000  H
  H28      1.0000 0.83870  0.48540  0.58220  Biso   1.000  H
