data_image0
_cell_length_a       7.0424
_cell_length_b       19.0302
_cell_length_c       10.1561
_cell_angle_alpha    90
_cell_angle_beta     97.791
_cell_angle_gamma    90

_symmetry_space_group_name_H-M    "P 1"
_symmetry_int_tables_number       1

loop_
  _symmetry_equiv_pos_as_xyz
  'x, y, z'

loop_
  _atom_site_label
  _atom_site_occupancy
  _atom_site_fract_x
  _atom_site_fract_y
  _atom_site_fract_z
  _atom_site_thermal_displace_type
  _atom_site_B_iso_or_equiv
  _atom_site_type_symbol
  Cu1      1.0000 0.15225  0.24135  0.59226  Biso   1.000  Cu
  Cu2      1.0000 0.34775  0.74135  0.90774  Biso   1.000  Cu
  Cu3      1.0000 0.84775  0.75865  0.40774  Biso   1.000  Cu
  Cu4      1.0000 0.65225  0.25865  0.09226  Biso   1.000  Cu
  S1       1.0000 0.75702  0.20794  0.85072  Biso   1.000  S
  S2       1.0000 0.74298  0.70794  0.64928  Biso   1.000  S
  S3       1.0000 0.24298  0.79206  0.14928  Biso   1.000  S
  S4       1.0000 0.25702  0.29206  0.35072  Biso   1.000  S
  O1       1.0000 0.15630  0.33536  0.65695  Biso   1.000  O
  O2       1.0000 0.34370  0.83536  0.84305  Biso   1.000  O
  O3       1.0000 0.84370  0.66464  0.34305  Biso   1.000  O
  O4       1.0000 0.65630  0.16464  0.15695  Biso   1.000  O
  N1       1.0000 0.40930  0.22510  0.68926  Biso   1.000  N
  N2       1.0000 0.09070  0.72510  0.81074  Biso   1.000  N
  N3       1.0000 0.59070  0.77490  0.31074  Biso   1.000  N
  N4       1.0000 0.90930  0.27490  0.18926  Biso   1.000  N
  N5       1.0000 0.88050  0.24330  0.52993  Biso   1.000  N
  N6       1.0000 0.61950  0.74330  0.97007  Biso   1.000  N
  N7       1.0000 0.11950  0.75670  0.47007  Biso   1.000  N
  N8       1.0000 0.38050  0.25670  0.02993  Biso   1.000  N
  N9       1.0000 0.12760  0.13550  0.53823  Biso   1.000  N
  N10      1.0000 0.37240  0.63550  0.96177  Biso   1.000  N
  N11      1.0000 0.87240  0.86450  0.46177  Biso   1.000  N
  N12      1.0000 0.62760  0.36450  0.03823  Biso   1.000  N
  C1       1.0000 0.55280  0.21790  0.75650  Biso   1.000  C
  C2       1.0000 0.94720  0.71790  0.74350  Biso   1.000  C
  C3       1.0000 0.44720  0.78210  0.24350  Biso   1.000  C
  C4       1.0000 0.05280  0.28210  0.25650  Biso   1.000  C
  C5       1.0000 0.01640  0.38053  0.64064  Biso   1.000  C
  C6       1.0000 0.48360  0.88053  0.85936  Biso   1.000  C
  C7       1.0000 0.98360  0.61947  0.35936  Biso   1.000  C
  C8       1.0000 0.51640  0.11947  0.14064  Biso   1.000  C
  C9       1.0000 0.05340  0.45040  0.68280  Biso   1.000  C
  C10      1.0000 0.44660  0.95040  0.81720  Biso   1.000  C
  C11      1.0000 0.94660  0.54960  0.31720  Biso   1.000  C
  C12      1.0000 0.55340  0.04960  0.18280  Biso   1.000  C
  H1       1.0000 0.17740  0.46310  0.71800  Biso   1.000  H
  H2       1.0000 0.32260  0.96310  0.78200  Biso   1.000  H
  H3       1.0000 0.82260  0.53690  0.28200  Biso   1.000  H
  H4       1.0000 0.67740  0.03690  0.21800  Biso   1.000  H
  C13      1.0000 0.91110  0.50012  0.67310  Biso   1.000  C
  C14      1.0000 0.58890  0.00012  0.82690  Biso   1.000  C
  C15      1.0000 0.08890  0.49988  0.32690  Biso   1.000  C
  C16      1.0000 0.41110  0.99988  0.17310  Biso   1.000  C
  H5       1.0000 0.94080  0.54600  0.69990  Biso   1.000  H
  H6       1.0000 0.55920  0.04600  0.80010  Biso   1.000  H
  H7       1.0000 0.05920  0.45400  0.30010  Biso   1.000  H
  H8       1.0000 0.44080  0.95400  0.19990  Biso   1.000  H
  C17      1.0000 0.72390  0.48273  0.62400  Biso   1.000  C
  C18      1.0000 0.77610  0.98273  0.87600  Biso   1.000  C
  C19      1.0000 0.27610  0.51727  0.37600  Biso   1.000  C
  C20      1.0000 0.22390  0.01727  0.12400  Biso   1.000  C
  H9       1.0000 0.62730  0.51620  0.62100  Biso   1.000  H
  H10      1.0000 0.87270  0.01620  0.87900  Biso   1.000  H
  H11      1.0000 0.37270  0.48380  0.37900  Biso   1.000  H
  H12      1.0000 0.12730  0.98380  0.12100  Biso   1.000  H
  C21      1.0000 0.68290  0.41663  0.58040  Biso   1.000  C
  C22      1.0000 0.81710  0.91663  0.91960  Biso   1.000  C
  C23      1.0000 0.31710  0.58337  0.41960  Biso   1.000  C
  C24      1.0000 0.18290  0.08337  0.08040  Biso   1.000  C
  H13      1.0000 0.55720  0.40530  0.54680  Biso   1.000  H
  H14      1.0000 0.94280  0.90530  0.95320  Biso   1.000  H
  H15      1.0000 0.44280  0.59470  0.45320  Biso   1.000  H
  H16      1.0000 0.05720  0.09470  0.04680  Biso   1.000  H
  C25      1.0000 0.82570  0.36427  0.58450  Biso   1.000  C
  C26      1.0000 0.67430  0.86427  0.91550  Biso   1.000  C
  C27      1.0000 0.17430  0.63573  0.41550  Biso   1.000  C
  C28      1.0000 0.32570  0.13573  0.08450  Biso   1.000  C
  C29      1.0000 0.77000  0.29669  0.53362  Biso   1.000  C
  C30      1.0000 0.73000  0.79669  0.96638  Biso   1.000  C
  C31      1.0000 0.23000  0.70331  0.46638  Biso   1.000  C
  C32      1.0000 0.27000  0.20331  0.03362  Biso   1.000  C
  H17      1.0000 0.64160  0.29060  0.49990  Biso   1.000  H
  H18      1.0000 0.85840  0.79060  0.00010  Biso   1.000  H
  H19      1.0000 0.35840  0.70940  0.50010  Biso   1.000  H
  H20      1.0000 0.14160  0.20940  0.99990  Biso   1.000  H
  C33      1.0000 0.79730  0.17624  0.48000  Biso   1.000  C
  C34      1.0000 0.70270  0.67624  0.02000  Biso   1.000  C
  C35      1.0000 0.20270  0.82376  0.52000  Biso   1.000  C
  C36      1.0000 0.29730  0.32376  0.98000  Biso   1.000  C
  H21      1.0000 0.69830  0.18430  0.40540  Biso   1.000  H
  H22      1.0000 0.80170  0.68430  0.09460  Biso   1.000  H
  H23      1.0000 0.30170  0.81570  0.59460  Biso   1.000  H
  H24      1.0000 0.19830  0.31570  0.90540  Biso   1.000  H
  H25      1.0000 0.74030  0.15230  0.54930  Biso   1.000  H
  H26      1.0000 0.75970  0.65230  0.95070  Biso   1.000  H
  H27      1.0000 0.25970  0.84770  0.45070  Biso   1.000  H
  H28      1.0000 0.24030  0.34770  0.04930  Biso   1.000  H
  C37      1.0000 0.95590  0.13233  0.43720  Biso   1.000  C
  C38      1.0000 0.54410  0.63233  0.06280  Biso   1.000  C
  C39      1.0000 0.04410  0.86767  0.56280  Biso   1.000  C
  C40      1.0000 0.45590  0.36767  0.93720  Biso   1.000  C
  H29      1.0000 0.91350  0.08400  0.42510  Biso   1.000  H
  H30      1.0000 0.58650  0.58400  0.07490  Biso   1.000  H
  H31      1.0000 0.08650  0.91600  0.57490  Biso   1.000  H
  H32      1.0000 0.41350  0.41600  0.92510  Biso   1.000  H
  H33      1.0000 0.98740  0.14950  0.35290  Biso   1.000  H
  H34      1.0000 0.51260  0.64950  0.14710  Biso   1.000  H
  H35      1.0000 0.01260  0.85050  0.64710  Biso   1.000  H
  H36      1.0000 0.48740  0.35050  0.85290  Biso   1.000  H
  C41      1.0000 0.09740  0.09635  0.65920  Biso   1.000  C
  C42      1.0000 0.40260  0.59635  0.84080  Biso   1.000  C
  C43      1.0000 0.90260  0.90365  0.34080  Biso   1.000  C
  C44      1.0000 0.59740  0.40365  0.15920  Biso   1.000  C
  H37      1.0000 0.99420  0.11740  0.69800  Biso   1.000  H
  H38      1.0000 0.50580  0.61740  0.80200  Biso   1.000  H
  H39      1.0000 0.00580  0.88260  0.30200  Biso   1.000  H
  H40      1.0000 0.49420  0.38260  0.19800  Biso   1.000  H
  H41      1.0000 0.21240  0.09790  0.72190  Biso   1.000  H
  H42      1.0000 0.28760  0.59790  0.77810  Biso   1.000  H
  H43      1.0000 0.78760  0.90210  0.27810  Biso   1.000  H
  H44      1.0000 0.71240  0.40210  0.22190  Biso   1.000  H
  H45      1.0000 0.06620  0.04840  0.63650  Biso   1.000  H
  H46      1.0000 0.43380  0.54840  0.86350  Biso   1.000  H
  H47      1.0000 0.93380  0.95160  0.36350  Biso   1.000  H
  H48      1.0000 0.56620  0.45160  0.13650  Biso   1.000  H
  C45      1.0000 0.29210  0.10501  0.48250  Biso   1.000  C
  C46      1.0000 0.20790  0.60501  0.01750  Biso   1.000  C
  C47      1.0000 0.70790  0.89499  0.51750  Biso   1.000  C
  C48      1.0000 0.79210  0.39499  0.98250  Biso   1.000  C
  H49      1.0000 0.26460  0.05700  0.45770  Biso   1.000  H
  H50      1.0000 0.23540  0.55700  0.04230  Biso   1.000  H
  H51      1.0000 0.73540  0.94300  0.54230  Biso   1.000  H
  H52      1.0000 0.76460  0.44300  0.95770  Biso   1.000  H
  H53      1.0000 0.40390  0.10680  0.54800  Biso   1.000  H
  H54      1.0000 0.09610  0.60680  0.95200  Biso   1.000  H
  H55      1.0000 0.59610  0.89320  0.45200  Biso   1.000  H
  H56      1.0000 0.90390  0.39320  0.04800  Biso   1.000  H
  H57      1.0000 0.31490  0.13140  0.40560  Biso   1.000  H
  H58      1.0000 0.18510  0.63140  0.09440  Biso   1.000  H
  H59      1.0000 0.68510  0.86860  0.59440  Biso   1.000  H
  H60      1.0000 0.81490  0.36860  0.90560  Biso   1.000  H
