data_image0
_cell_length_a       18.512
_cell_length_b       12.224
_cell_length_c       10.213
_cell_angle_alpha    90
_cell_angle_beta     90
_cell_angle_gamma    90

_symmetry_space_group_name_H-M    "P 1"
_symmetry_int_tables_number       1

loop_
  _symmetry_equiv_pos_as_xyz
  'x, y, z'

loop_
  _atom_site_label
  _atom_site_occupancy
  _atom_site_fract_x
  _atom_site_fract_y
  _atom_site_fract_z
  _atom_site_thermal_displace_type
  _atom_site_B_iso_or_equiv
  _atom_site_type_symbol
  Cu1      1.0000 0.32430  0.15190  0.05140  Biso   1.000  Cu
  Cu2      1.0000 0.17570  0.84810  0.55140  Biso   1.000  Cu
  Cu3      1.0000 0.82430  0.34810  0.94860  Biso   1.000  Cu
  Cu4      1.0000 0.67570  0.65190  0.44860  Biso   1.000  Cu
  Cu5      1.0000 0.67570  0.84810  0.94860  Biso   1.000  Cu
  Cu6      1.0000 0.82430  0.15190  0.44860  Biso   1.000  Cu
  Cu7      1.0000 0.17570  0.65190  0.05140  Biso   1.000  Cu
  Cu8      1.0000 0.32430  0.34810  0.55140  Biso   1.000  Cu
  O1       1.0000 0.35870  0.02900  0.94700  Biso   1.000  O
  O2       1.0000 0.14130  0.97100  0.44700  Biso   1.000  O
  O3       1.0000 0.85870  0.47100  0.05300  Biso   1.000  O
  O4       1.0000 0.64130  0.52900  0.55300  Biso   1.000  O
  O5       1.0000 0.64130  0.97100  0.05300  Biso   1.000  O
  O6       1.0000 0.85870  0.02900  0.55300  Biso   1.000  O
  O7       1.0000 0.14130  0.52900  0.94700  Biso   1.000  O
  O8       1.0000 0.35870  0.47100  0.44700  Biso   1.000  O
  O9       1.0000 0.32220  0.86590  0.88800  Biso   1.000  O
  O10      1.0000 0.17780  0.13410  0.38800  Biso   1.000  O
  O11      1.0000 0.82220  0.63410  0.11200  Biso   1.000  O
  O12      1.0000 0.67780  0.36590  0.61200  Biso   1.000  O
  O13      1.0000 0.67780  0.13410  0.11200  Biso   1.000  O
  O14      1.0000 0.82220  0.86590  0.61200  Biso   1.000  O
  O15      1.0000 0.17780  0.36590  0.88800  Biso   1.000  O
  O16      1.0000 0.32220  0.63410  0.38800  Biso   1.000  O
  O17      1.0000 0.27410  0.26880  0.14100  Biso   1.000  O
  O18      1.0000 0.22590  0.73120  0.64100  Biso   1.000  O
  O19      1.0000 0.77410  0.23120  0.85900  Biso   1.000  O
  O20      1.0000 0.72590  0.76880  0.35900  Biso   1.000  O
  O21      1.0000 0.72590  0.73120  0.85900  Biso   1.000  O
  O22      1.0000 0.77410  0.26880  0.35900  Biso   1.000  O
  O23      1.0000 0.22590  0.76880  0.14100  Biso   1.000  O
  O24      1.0000 0.27410  0.23120  0.64100  Biso   1.000  O
  O25      1.0000 0.16290  0.31800  0.19800  Biso   1.000  O
  O26      1.0000 0.33710  0.68200  0.69800  Biso   1.000  O
  O27      1.0000 0.66290  0.18200  0.80200  Biso   1.000  O
  O28      1.0000 0.83710  0.81800  0.30200  Biso   1.000  O
  O29      1.0000 0.83710  0.68200  0.80200  Biso   1.000  O
  O30      1.0000 0.66290  0.31800  0.30200  Biso   1.000  O
  O31      1.0000 0.33710  0.81800  0.19800  Biso   1.000  O
  O32      1.0000 0.16290  0.18200  0.69800  Biso   1.000  O
  O33      1.0000 0.30560  0.02650  0.23400  Biso   1.000  O
  O34      1.0000 0.19440  0.97350  0.73400  Biso   1.000  O
  O35      1.0000 0.80560  0.47350  0.76600  Biso   1.000  O
  O36      1.0000 0.69440  0.52650  0.26600  Biso   1.000  O
  O37      1.0000 0.69440  0.97350  0.76600  Biso   1.000  O
  O38      1.0000 0.80560  0.02650  0.26600  Biso   1.000  O
  O39      1.0000 0.19440  0.52650  0.23400  Biso   1.000  O
  O40      1.0000 0.30560  0.47350  0.73400  Biso   1.000  O
  N1       1.0000 0.22790  0.11200  0.97500  Biso   1.000  N
  N2       1.0000 0.27210  0.88800  0.47500  Biso   1.000  N
  N3       1.0000 0.72790  0.38800  0.02500  Biso   1.000  N
  N4       1.0000 0.77210  0.61200  0.52500  Biso   1.000  N
  N5       1.0000 0.77210  0.88800  0.02500  Biso   1.000  N
  N6       1.0000 0.72790  0.11200  0.52500  Biso   1.000  N
  N7       1.0000 0.27210  0.61200  0.97500  Biso   1.000  N
  N8       1.0000 0.22790  0.38800  0.47500  Biso   1.000  N
  N9       1.0000 0.41950  0.20200  0.10900  Biso   1.000  N
  N10      1.0000 0.08050  0.79800  0.60900  Biso   1.000  N
  N11      1.0000 0.91950  0.29800  0.89100  Biso   1.000  N
  N12      1.0000 0.58050  0.70200  0.39100  Biso   1.000  N
  N13      1.0000 0.58050  0.79800  0.89100  Biso   1.000  N
  N14      1.0000 0.91950  0.20200  0.39100  Biso   1.000  N
  N15      1.0000 0.08050  0.70200  0.10900  Biso   1.000  N
  N16      1.0000 0.41950  0.29800  0.60900  Biso   1.000  N
  N17      1.0000 0.53430  0.20000  0.14700  Biso   1.000  N
  N18      1.0000 0.96570  0.80000  0.64700  Biso   1.000  N
  N19      1.0000 0.03430  0.30000  0.85300  Biso   1.000  N
  N20      1.0000 0.46570  0.70000  0.35300  Biso   1.000  N
  N21      1.0000 0.46570  0.80000  0.85300  Biso   1.000  N
  N22      1.0000 0.03430  0.20000  0.35300  Biso   1.000  N
  N23      1.0000 0.96570  0.70000  0.14700  Biso   1.000  N
  N24      1.0000 0.53430  0.30000  0.64700  Biso   1.000  N
  C1       1.0000 0.31070  0.95800  0.92500  Biso   1.000  C
  C2       1.0000 0.18930  0.04200  0.42500  Biso   1.000  C
  C3       1.0000 0.81070  0.54200  0.07500  Biso   1.000  C
  C4       1.0000 0.68930  0.45800  0.57500  Biso   1.000  C
  C5       1.0000 0.68930  0.04200  0.07500  Biso   1.000  C
  C6       1.0000 0.81070  0.95800  0.57500  Biso   1.000  C
  C7       1.0000 0.18930  0.45800  0.92500  Biso   1.000  C
  C8       1.0000 0.31070  0.54200  0.42500  Biso   1.000  C
  C9       1.0000 0.23260  0.98900  0.96200  Biso   1.000  C
  C10      1.0000 0.26740  0.01100  0.46200  Biso   1.000  C
  C11      1.0000 0.73260  0.51100  0.03800  Biso   1.000  C
  C12      1.0000 0.76740  0.48900  0.53800  Biso   1.000  C
  C13      1.0000 0.76740  0.01100  0.03800  Biso   1.000  C
  C14      1.0000 0.73260  0.98900  0.53800  Biso   1.000  C
  C15      1.0000 0.26740  0.48900  0.96200  Biso   1.000  C
  C16      1.0000 0.23260  0.51100  0.46200  Biso   1.000  C
  C17      1.0000 0.17400  0.15500  0.07100  Biso   1.000  C
  C18      1.0000 0.32600  0.84500  0.57100  Biso   1.000  C
  C19      1.0000 0.67400  0.34500  0.92900  Biso   1.000  C
  C20      1.0000 0.82600  0.65500  0.42900  Biso   1.000  C
  C21      1.0000 0.82600  0.84500  0.92900  Biso   1.000  C
  C22      1.0000 0.67400  0.15500  0.42900  Biso   1.000  C
  C23      1.0000 0.32600  0.65500  0.07100  Biso   1.000  C
  C24      1.0000 0.17400  0.34500  0.57100  Biso   1.000  C
  C25      1.0000 0.20580  0.25700  0.14200  Biso   1.000  C
  C26      1.0000 0.29420  0.74300  0.64200  Biso   1.000  C
  C27      1.0000 0.70580  0.24300  0.85800  Biso   1.000  C
  C28      1.0000 0.79420  0.75700  0.35800  Biso   1.000  C
  C29      1.0000 0.79420  0.74300  0.85800  Biso   1.000  C
  C30      1.0000 0.70580  0.25700  0.35800  Biso   1.000  C
  C31      1.0000 0.29420  0.75700  0.14200  Biso   1.000  C
  C32      1.0000 0.20580  0.24300  0.64200  Biso   1.000  C
  C33      1.0000 0.17800  0.93900  0.86300  Biso   1.000  C
  C34      1.0000 0.32200  0.06100  0.36300  Biso   1.000  C
  C35      1.0000 0.67800  0.56100  0.13700  Biso   1.000  C
  C36      1.0000 0.82200  0.43900  0.63700  Biso   1.000  C
  C37      1.0000 0.82200  0.06100  0.13700  Biso   1.000  C
  C38      1.0000 0.67800  0.93900  0.63700  Biso   1.000  C
  C39      1.0000 0.32200  0.43900  0.86300  Biso   1.000  C
  C40      1.0000 0.17800  0.56100  0.36300  Biso   1.000  C
  C41      1.0000 0.09900  0.96600  0.90000  Biso   1.000  C
  C42      1.0000 0.40100  0.03400  0.40000  Biso   1.000  C
  C43      1.0000 0.59900  0.53400  0.10000  Biso   1.000  C
  C44      1.0000 0.90100  0.46600  0.60000  Biso   1.000  C
  C45      1.0000 0.90100  0.03400  0.10000  Biso   1.000  C
  C46      1.0000 0.59900  0.96600  0.60000  Biso   1.000  C
  C47      1.0000 0.40100  0.46600  0.90000  Biso   1.000  C
  C48      1.0000 0.09900  0.53400  0.40000  Biso   1.000  C
  C49      1.0000 0.48100  0.15100  0.07500  Biso   1.000  C
  C50      1.0000 0.01900  0.84900  0.57500  Biso   1.000  C
  C51      1.0000 0.98100  0.34900  0.92500  Biso   1.000  C
  C52      1.0000 0.51900  0.65100  0.42500  Biso   1.000  C
  C53      1.0000 0.51900  0.84900  0.92500  Biso   1.000  C
  C54      1.0000 0.98100  0.15100  0.42500  Biso   1.000  C
  C55      1.0000 0.01900  0.65100  0.07500  Biso   1.000  C
  C56      1.0000 0.48100  0.34900  0.57500  Biso   1.000  C
  C57      1.0000 0.49860  0.29560  0.17760  Biso   1.000  C
  C58      1.0000 0.00140  0.70440  0.67760  Biso   1.000  C
  C59      1.0000 0.99860  0.20440  0.82240  Biso   1.000  C
  C60      1.0000 0.50140  0.79560  0.32240  Biso   1.000  C
  C61      1.0000 0.50140  0.70440  0.82240  Biso   1.000  C
  C62      1.0000 0.99860  0.29560  0.32240  Biso   1.000  C
  C63      1.0000 0.00140  0.79560  0.17760  Biso   1.000  C
  C64      1.0000 0.49860  0.20440  0.67760  Biso   1.000  C
  C65      1.0000 0.42360  0.29280  0.18720  Biso   1.000  C
  C66      1.0000 0.07640  0.70720  0.68720  Biso   1.000  C
  C67      1.0000 0.92360  0.20720  0.81280  Biso   1.000  C
  C68      1.0000 0.57640  0.79280  0.31280  Biso   1.000  C
  C69      1.0000 0.57640  0.70720  0.81280  Biso   1.000  C
  C70      1.0000 0.92360  0.29280  0.31280  Biso   1.000  C
  C71      1.0000 0.07640  0.79280  0.18720  Biso   1.000  C
  C72      1.0000 0.42360  0.20720  0.68720  Biso   1.000  C
