data_image0
_cell_length_a       14.876
_cell_length_b       10.432
_cell_length_c       14.998
_cell_angle_alpha    90
_cell_angle_beta     102.55
_cell_angle_gamma    90

_symmetry_space_group_name_H-M    "P 1"
_symmetry_int_tables_number       1

loop_
  _symmetry_equiv_pos_as_xyz
  'x, y, z'

loop_
  _atom_site_label
  _atom_site_occupancy
  _atom_site_fract_x
  _atom_site_fract_y
  _atom_site_fract_z
  _atom_site_thermal_displace_type
  _atom_site_B_iso_or_equiv
  _atom_site_type_symbol
  Cu1      1.0000 0.66798  0.22080  0.29013  Biso   1.000  Cu
  Cu2      1.0000 0.83202  0.22080  0.20987  Biso   1.000  Cu
  Cu3      1.0000 0.33202  0.77920  0.70987  Biso   1.000  Cu
  Cu4      1.0000 0.16798  0.77920  0.79013  Biso   1.000  Cu
  Cu5      1.0000 0.79006  0.98617  0.35011  Biso   1.000  Cu
  Cu6      1.0000 0.70994  0.98617  0.14989  Biso   1.000  Cu
  Cu7      1.0000 0.20994  0.01383  0.64989  Biso   1.000  Cu
  Cu8      1.0000 0.29006  0.01383  0.85011  Biso   1.000  Cu
  Cl1      1.0000 0.56070  0.19620  0.56710  Biso   1.000  Cl
  Cl2      1.0000 0.93930  0.19620  0.93290  Biso   1.000  Cl
  Cl3      1.0000 0.43930  0.80380  0.43290  Biso   1.000  Cl
  Cl4      1.0000 0.06070  0.80380  0.06710  Biso   1.000  Cl
  Cl5      1.0000 0.66000  0.96660  0.61480  Biso   1.000  Cl
  Cl6      1.0000 0.84000  0.96660  0.88520  Biso   1.000  Cl
  Cl7      1.0000 0.34000  0.03340  0.38520  Biso   1.000  Cl
  Cl8      1.0000 0.16000  0.03340  0.11480  Biso   1.000  Cl
  Cl9      1.0000 0.75420  0.20930  0.63030  Biso   1.000  Cl
  Cl10     1.0000 0.74580  0.20930  0.86970  Biso   1.000  Cl
  Cl11     1.0000 0.24580  0.79070  0.36970  Biso   1.000  Cl
  Cl12     1.0000 0.25420  0.79070  0.13030  Biso   1.000  Cl
  Cl13     1.0000 0.42190  0.47290  0.09870  Biso   1.000  Cl
  Cl14     1.0000 0.07810  0.47290  0.40130  Biso   1.000  Cl
  Cl15     1.0000 0.57810  0.52710  0.90130  Biso   1.000  Cl
  Cl16     1.0000 0.92190  0.52710  0.59870  Biso   1.000  Cl
  Cl17     1.0000 0.38780  0.53690  0.27400  Biso   1.000  Cl
  Cl18     1.0000 0.11220  0.53690  0.22600  Biso   1.000  Cl
  Cl19     1.0000 0.61220  0.46310  0.72600  Biso   1.000  Cl
  Cl20     1.0000 0.88780  0.46310  0.77400  Biso   1.000  Cl
  Cl21     1.0000 0.34480  0.28930  0.19740  Biso   1.000  Cl
  Cl22     1.0000 0.15520  0.28930  0.30260  Biso   1.000  Cl
  Cl23     1.0000 0.65520  0.71070  0.80260  Biso   1.000  Cl
  Cl24     1.0000 0.84480  0.71070  0.69740  Biso   1.000  Cl
  O1       1.0000 0.64770  0.19360  0.41500  Biso   1.000  O
  O2       1.0000 0.85230  0.19360  0.08500  Biso   1.000  O
  O3       1.0000 0.35230  0.80640  0.58500  Biso   1.000  O
  O4       1.0000 0.14770  0.80640  0.91500  Biso   1.000  O
  O5       1.0000 0.73630  0.02070  0.45740  Biso   1.000  O
  O6       1.0000 0.76370  0.02070  0.04260  Biso   1.000  O
  O7       1.0000 0.26370  0.97930  0.54260  Biso   1.000  O
  O8       1.0000 0.23630  0.97930  0.95740  Biso   1.000  O
  O9       1.0000 0.53770  0.25700  0.24410  Biso   1.000  O
  O10      1.0000 0.96230  0.25700  0.25590  Biso   1.000  O
  O11      1.0000 0.46230  0.74300  0.75590  Biso   1.000  O
  O12      1.0000 0.03770  0.74300  0.74410  Biso   1.000  O
  O13      1.0000 0.58050  0.45470  0.28290  Biso   1.000  O
  O14      1.0000 0.91950  0.45470  0.21710  Biso   1.000  O
  O15      1.0000 0.41950  0.54530  0.71710  Biso   1.000  O
  O16      1.0000 0.08050  0.54530  0.78290  Biso   1.000  O
  O17      1.0000 0.80070  0.22550  0.32900  Biso   1.000  O
  O18      1.0000 0.69930  0.22550  0.17100  Biso   1.000  O
  O19      1.0000 0.19930  0.77450  0.67100  Biso   1.000  O
  O20      1.0000 0.30070  0.77450  0.82900  Biso   1.000  O
  O21      1.0000 0.66920  0.99360  0.26470  Biso   1.000  O
  O22      1.0000 0.83080  0.99360  0.23530  Biso   1.000  O
  O23      1.0000 0.33080  0.00640  0.73530  Biso   1.000  O
  O24      1.0000 0.16920  0.00640  0.76470  Biso   1.000  O
  O25      1.0000 0.78870  0.76950  0.38490  Biso   1.000  O
  O26      1.0000 0.71130  0.76950  0.11510  Biso   1.000  O
  O27      1.0000 0.21130  0.23050  0.61510  Biso   1.000  O
  O28      1.0000 0.28870  0.23050  0.88490  Biso   1.000  O
  C1       1.0000 0.68400  0.10800  0.46880  Biso   1.000  C
  C2       1.0000 0.81600  0.10800  0.03120  Biso   1.000  C
  C3       1.0000 0.31600  0.89200  0.53120  Biso   1.000  C
  C4       1.0000 0.18400  0.89200  0.96880  Biso   1.000  C
  C5       1.0000 0.66320  0.11700  0.56530  Biso   1.000  C
  C6       1.0000 0.83680  0.11700  0.93470  Biso   1.000  C
  C7       1.0000 0.33680  0.88300  0.43470  Biso   1.000  C
  C8       1.0000 0.16320  0.88300  0.06530  Biso   1.000  C
  C9       1.0000 0.52320  0.37410  0.25130  Biso   1.000  C
  C10      1.0000 0.97680  0.37410  0.24870  Biso   1.000  C
  C11      1.0000 0.47680  0.62590  0.74870  Biso   1.000  C
  C12      1.0000 0.02320  0.62590  0.75130  Biso   1.000  C
  C13      1.0000 0.42400  0.41700  0.20980  Biso   1.000  C
  C14      1.0000 0.07600  0.41700  0.29020  Biso   1.000  C
  C15      1.0000 0.57600  0.58300  0.79020  Biso   1.000  C
  C16      1.0000 0.92400  0.58300  0.70980  Biso   1.000  C
  C17      1.0000 0.84000  0.30950  0.40320  Biso   1.000  C
  C18      1.0000 0.66000  0.30950  0.09680  Biso   1.000  C
  C19      1.0000 0.16000  0.69050  0.59680  Biso   1.000  C
  C20      1.0000 0.34000  0.69050  0.90320  Biso   1.000  C
  C21      1.0000 0.59190  0.92880  0.28680  Biso   1.000  C
  C22      1.0000 0.90810  0.92880  0.21320  Biso   1.000  C
  C23      1.0000 0.40810  0.07120  0.71320  Biso   1.000  C
  C24      1.0000 0.09190  0.07120  0.78680  Biso   1.000  C
  C25      1.0000 0.84900  0.67600  0.36100  Biso   1.000  C
  C26      1.0000 0.65100  0.67600  0.13900  Biso   1.000  C
  C27      1.0000 0.15100  0.32400  0.63900  Biso   1.000  C
  C28      1.0000 0.34900  0.32400  0.86100  Biso   1.000  C
  H1       1.0000 0.72700  0.74600  0.35600  Biso   1.000  H
  H2       1.0000 0.77300  0.74600  0.14400  Biso   1.000  H
  H3       1.0000 0.27300  0.25400  0.64400  Biso   1.000  H
  H4       1.0000 0.22700  0.25400  0.85600  Biso   1.000  H
  H5       1.0000 0.90600  0.30300  0.41600  Biso   1.000  H
  H6       1.0000 0.59400  0.30300  0.08400  Biso   1.000  H
  H7       1.0000 0.09400  0.69700  0.58400  Biso   1.000  H
  H8       1.0000 0.40600  0.69700  0.91600  Biso   1.000  H
  H9       1.0000 0.82300  0.39600  0.38800  Biso   1.000  H
  H10      1.0000 0.67700  0.39600  0.11200  Biso   1.000  H
  H11      1.0000 0.17700  0.60400  0.61200  Biso   1.000  H
  H12      1.0000 0.32300  0.60400  0.88800  Biso   1.000  H
  H13      1.0000 0.81900  0.28700  0.45700  Biso   1.000  H
  H14      1.0000 0.68100  0.28700  0.04300  Biso   1.000  H
  H15      1.0000 0.18100  0.71300  0.54300  Biso   1.000  H
  H16      1.0000 0.31900  0.71300  0.95700  Biso   1.000  H
  H17      1.0000 0.53800  0.94100  0.23900  Biso   1.000  H
  H18      1.0000 0.96200  0.94100  0.26100  Biso   1.000  H
  H19      1.0000 0.46200  0.05900  0.76100  Biso   1.000  H
  H20      1.0000 0.03800  0.05900  0.73900  Biso   1.000  H
  H21      1.0000 0.60400  0.83900  0.29400  Biso   1.000  H
  H22      1.0000 0.89600  0.83900  0.20600  Biso   1.000  H
  H23      1.0000 0.39600  0.16100  0.70600  Biso   1.000  H
  H24      1.0000 0.10400  0.16100  0.79400  Biso   1.000  H
  H25      1.0000 0.58000  0.96200  0.34200  Biso   1.000  H
  H26      1.0000 0.92000  0.96200  0.15800  Biso   1.000  H
  H27      1.0000 0.42000  0.03800  0.65800  Biso   1.000  H
  H28      1.0000 0.08000  0.03800  0.84200  Biso   1.000  H
  H29      1.0000 0.83700  0.59400  0.38200  Biso   1.000  H
  H30      1.0000 0.66300  0.59400  0.11800  Biso   1.000  H
  H31      1.0000 0.16300  0.40600  0.61800  Biso   1.000  H
  H32      1.0000 0.33700  0.40600  0.88200  Biso   1.000  H
  H33      1.0000 0.84500  0.67400  0.29700  Biso   1.000  H
  H34      1.0000 0.65500  0.67400  0.20300  Biso   1.000  H
  H35      1.0000 0.15500  0.32600  0.70300  Biso   1.000  H
  H36      1.0000 0.34500  0.32600  0.79700  Biso   1.000  H
  H37      1.0000 0.91200  0.69900  0.38900  Biso   1.000  H
  H38      1.0000 0.58800  0.69900  0.11100  Biso   1.000  H
  H39      1.0000 0.08800  0.30100  0.61100  Biso   1.000  H
  H40      1.0000 0.41200  0.30100  0.88900  Biso   1.000  H
  N1       1.0000 0.91690  0.99230  0.43700  Biso   1.000  N
  N2       1.0000 0.58310  0.99230  0.06300  Biso   1.000  N
  N3       1.0000 0.08310  0.00770  0.56300  Biso   1.000  N
  N4       1.0000 0.41690  0.00770  0.93700  Biso   1.000  N
  C29      1.0000 0.98780  0.05710  0.41920  Biso   1.000  C
  C30      1.0000 0.51220  0.05710  0.08080  Biso   1.000  C
  C31      1.0000 0.01220  0.94290  0.58080  Biso   1.000  C
  C32      1.0000 0.48780  0.94290  0.91920  Biso   1.000  C
  C33      1.0000 0.07150  0.06540  0.48220  Biso   1.000  C
  C34      1.0000 0.42850  0.06540  0.01780  Biso   1.000  C
  C35      1.0000 0.92850  0.93460  0.51780  Biso   1.000  C
  C36      1.0000 0.57150  0.93460  0.98220  Biso   1.000  C
  H41      1.0000 0.98100  0.09900  0.36100  Biso   1.000  H
  H42      1.0000 0.51900  0.09900  0.13900  Biso   1.000  H
  H43      1.0000 0.01900  0.90100  0.63900  Biso   1.000  H
  H44      1.0000 0.48100  0.90100  0.86100  Biso   1.000  H
  H45      1.0000 0.12200  0.11300  0.46700  Biso   1.000  H
  H46      1.0000 0.37800  0.11300  0.03300  Biso   1.000  H
  H47      1.0000 0.87800  0.88700  0.53300  Biso   1.000  H
  H48      1.0000 0.62200  0.88700  0.96700  Biso   1.000  H
  O29      1.0000 0.64370  0.63580  0.41570  Biso   1.000  O
  O30      1.0000 0.85630  0.63580  0.08430  Biso   1.000  O
  O31      1.0000 0.35630  0.36420  0.58430  Biso   1.000  O
  O32      1.0000 0.14370  0.36420  0.91570  Biso   1.000  O
  C37      1.0000 0.63800  0.58200  0.49600  Biso   1.000  C
  C38      1.0000 0.86200  0.58200  0.00400  Biso   1.000  C
  C39      1.0000 0.36200  0.41800  0.50400  Biso   1.000  C
  C40      1.0000 0.13800  0.41800  0.99600  Biso   1.000  C
  H49      1.0000 0.63900  0.56900  0.37100  Biso   1.000  H
  H50      1.0000 0.86100  0.56900  0.12900  Biso   1.000  H
  H51      1.0000 0.36100  0.43100  0.62900  Biso   1.000  H
  H52      1.0000 0.13900  0.43100  0.87100  Biso   1.000  H
  H53      1.0000 0.58000  0.53800  0.49200  Biso   1.000  H
  H54      1.0000 0.92000  0.53800  0.00800  Biso   1.000  H
  H55      1.0000 0.42000  0.46200  0.50800  Biso   1.000  H
  H56      1.0000 0.08000  0.46200  0.99200  Biso   1.000  H
  H57      1.0000 0.68600  0.52000  0.51600  Biso   1.000  H
  H58      1.0000 0.81400  0.52000  0.98400  Biso   1.000  H
  H59      1.0000 0.31400  0.48000  0.48400  Biso   1.000  H
  H60      1.0000 0.18600  0.48000  0.01600  Biso   1.000  H
  H61      1.0000 0.64300  0.64500  0.54300  Biso   1.000  H
  H62      1.0000 0.85700  0.64500  0.95700  Biso   1.000  H
  H63      1.0000 0.35700  0.35500  0.45700  Biso   1.000  H
  H64      1.0000 0.14300  0.35500  0.04300  Biso   1.000  H
