data_image0
_cell_length_a       16.505
_cell_length_b       9.761
_cell_length_c       12.557
_cell_angle_alpha    90
_cell_angle_beta     129.63
_cell_angle_gamma    90

_symmetry_space_group_name_H-M    "P 1"
_symmetry_int_tables_number       1

loop_
  _symmetry_equiv_pos_as_xyz
  'x, y, z'

loop_
  _atom_site_label
  _atom_site_occupancy
  _atom_site_fract_x
  _atom_site_fract_y
  _atom_site_fract_z
  _atom_site_thermal_displace_type
  _atom_site_B_iso_or_equiv
  _atom_site_type_symbol
  Cu1      1.0000 0.00000  0.13240  0.00000  Biso   1.000  Cu
  Cu2      1.0000 0.50000  0.63240  0.00000  Biso   1.000  Cu
  Cu3      1.0000 0.00000  0.86760  0.00000  Biso   1.000  Cu
  Cu4      1.0000 0.50000  0.36760  0.00000  Biso   1.000  Cu
  O1       1.0000 0.06780  0.11330  0.91710  Biso   1.000  O
  O2       1.0000 0.93220  0.11330  0.08290  Biso   1.000  O
  O3       1.0000 0.56780  0.61330  0.91710  Biso   1.000  O
  O4       1.0000 0.43220  0.61330  0.08290  Biso   1.000  O
  O5       1.0000 0.93220  0.88670  0.08290  Biso   1.000  O
  O6       1.0000 0.06780  0.88670  0.91710  Biso   1.000  O
  O7       1.0000 0.43220  0.38670  0.08290  Biso   1.000  O
  O8       1.0000 0.56780  0.38670  0.91710  Biso   1.000  O
  O9       1.0000 0.13700  0.11350  0.18550  Biso   1.000  O
  O10      1.0000 0.86300  0.11350  0.81450  Biso   1.000  O
  O11      1.0000 0.63700  0.61350  0.18550  Biso   1.000  O
  O12      1.0000 0.36300  0.61350  0.81450  Biso   1.000  O
  O13      1.0000 0.86300  0.88650  0.81450  Biso   1.000  O
  O14      1.0000 0.13700  0.88650  0.18550  Biso   1.000  O
  O15      1.0000 0.36300  0.38650  0.81450  Biso   1.000  O
  O16      1.0000 0.63700  0.38650  0.18550  Biso   1.000  O
  N1       1.0000 0.00000  0.35690  0.00000  Biso   1.000  N
  N2       1.0000 0.50000  0.85690  0.00000  Biso   1.000  N
  N3       1.0000 0.00000  0.64310  0.00000  Biso   1.000  N
  N4       1.0000 0.50000  0.14310  0.00000  Biso   1.000  N
  C1       1.0000 0.08680  0.00000  0.89100  Biso   1.000  C
  C2       1.0000 0.91320  0.00000  0.10900  Biso   1.000  C
  C3       1.0000 0.58680  0.50000  0.89100  Biso   1.000  C
  C4       1.0000 0.41320  0.50000  0.10900  Biso   1.000  C
  C5       1.0000 0.13690  0.00000  0.82100  Biso   1.000  C
  C6       1.0000 0.86310  0.00000  0.17900  Biso   1.000  C
  C7       1.0000 0.63690  0.50000  0.82100  Biso   1.000  C
  C8       1.0000 0.36310  0.50000  0.17900  Biso   1.000  C
  C9       1.0000 0.24900  0.00000  0.93100  Biso   1.000  C
  C10      1.0000 0.75100  0.00000  0.06900  Biso   1.000  C
  C11      1.0000 0.74900  0.50000  0.93100  Biso   1.000  C
  C12      1.0000 0.25100  0.50000  0.06900  Biso   1.000  C
  C13      1.0000 0.08100  0.10700  0.70700  Biso   1.000  C
  C14      1.0000 0.91900  0.10700  0.29300  Biso   1.000  C
  C15      1.0000 0.58100  0.60700  0.70700  Biso   1.000  C
  C16      1.0000 0.41900  0.60700  0.29300  Biso   1.000  C
  C17      1.0000 0.91900  0.89300  0.29300  Biso   1.000  C
  C18      1.0000 0.08100  0.89300  0.70700  Biso   1.000  C
  C19      1.0000 0.41900  0.39300  0.29300  Biso   1.000  C
  C20      1.0000 0.58100  0.39300  0.70700  Biso   1.000  C
  C21      1.0000 0.17730  0.00000  0.24100  Biso   1.000  C
  C22      1.0000 0.82270  0.00000  0.75900  Biso   1.000  C
  C23      1.0000 0.67730  0.50000  0.24100  Biso   1.000  C
  C24      1.0000 0.32270  0.50000  0.75900  Biso   1.000  C
  C25      1.0000 0.28200  0.00000  0.38500  Biso   1.000  C
  C26      1.0000 0.71800  0.00000  0.61500  Biso   1.000  C
  C27      1.0000 0.78200  0.50000  0.38500  Biso   1.000  C
  C28      1.0000 0.21800  0.50000  0.61500  Biso   1.000  C
  C29      1.0000 0.33200  0.13200  0.44100  Biso   1.000  C
  C30      1.0000 0.66800  0.13200  0.55900  Biso   1.000  C
  C31      1.0000 0.83200  0.63200  0.44100  Biso   1.000  C
  C32      1.0000 0.16800  0.63200  0.55900  Biso   1.000  C
  C33      1.0000 0.66800  0.86800  0.55900  Biso   1.000  C
  C34      1.0000 0.33200  0.86800  0.44100  Biso   1.000  C
  C35      1.0000 0.16800  0.36800  0.55900  Biso   1.000  C
  C36      1.0000 0.83200  0.36800  0.44100  Biso   1.000  C
  C37      1.0000 0.23100  0.00000  0.47600  Biso   1.000  C
  C38      1.0000 0.76900  0.00000  0.52400  Biso   1.000  C
  C39      1.0000 0.73100  0.50000  0.47600  Biso   1.000  C
  C40      1.0000 0.26900  0.50000  0.52400  Biso   1.000  C
  C41      1.0000 0.97190  0.56940  0.89200  Biso   1.000  C
  C42      1.0000 0.02810  0.56940  0.10800  Biso   1.000  C
  C43      1.0000 0.47190  0.06940  0.89200  Biso   1.000  C
  C44      1.0000 0.52810  0.06940  0.10800  Biso   1.000  C
  C45      1.0000 0.02810  0.43060  0.10800  Biso   1.000  C
  C46      1.0000 0.97190  0.43060  0.89200  Biso   1.000  C
  C47      1.0000 0.52810  0.93060  0.10800  Biso   1.000  C
  C48      1.0000 0.47190  0.93060  0.89200  Biso   1.000  C
  H1       1.0000 0.05000  0.61700  0.19000  Biso   1.000  H
  H2       1.0000 0.95000  0.61700  0.81000  Biso   1.000  H
  H3       1.0000 0.55000  0.11700  0.19000  Biso   1.000  H
  H4       1.0000 0.45000  0.11700  0.81000  Biso   1.000  H
  H5       1.0000 0.95000  0.38300  0.81000  Biso   1.000  H
  H6       1.0000 0.05000  0.38300  0.19000  Biso   1.000  H
  H7       1.0000 0.45000  0.88300  0.81000  Biso   1.000  H
  H8       1.0000 0.55000  0.88300  0.19000  Biso   1.000  H
  C49      1.0000 0.20500  0.12400  0.86200  Biso   1.000  C
  C50      1.0000 0.79500  0.12400  0.13800  Biso   1.000  C
  C51      1.0000 0.70500  0.62400  0.86200  Biso   1.000  C
  C52      1.0000 0.29500  0.62400  0.13800  Biso   1.000  C
  C53      1.0000 0.79500  0.87600  0.13800  Biso   1.000  C
  C54      1.0000 0.20500  0.87600  0.86200  Biso   1.000  C
  C55      1.0000 0.29500  0.37600  0.13800  Biso   1.000  C
  C56      1.0000 0.70500  0.37600  0.86200  Biso   1.000  C
