data_image0
_cell_length_a       8.6325
_cell_length_b       12.8807
_cell_length_c       14.7075
_cell_angle_alpha    90
_cell_angle_beta     93.76
_cell_angle_gamma    90

_symmetry_space_group_name_H-M    "P 1"
_symmetry_int_tables_number       1

loop_
  _symmetry_equiv_pos_as_xyz
  'x, y, z'

loop_
  _atom_site_label
  _atom_site_occupancy
  _atom_site_fract_x
  _atom_site_fract_y
  _atom_site_fract_z
  _atom_site_thermal_displace_type
  _atom_site_B_iso_or_equiv
  _atom_site_type_symbol
  C1       1.0000 0.96910  0.35610  0.01230  Biso   1.000  C
  C2       1.0000 0.53090  0.85610  0.48770  Biso   1.000  C
  C3       1.0000 0.03090  0.64390  0.98770  Biso   1.000  C
  C4       1.0000 0.46910  0.14390  0.51230  Biso   1.000  C
  C5       1.0000 0.03360  0.31960  0.93610  Biso   1.000  C
  C6       1.0000 0.46640  0.81960  0.56390  Biso   1.000  C
  C7       1.0000 0.96640  0.68040  0.06390  Biso   1.000  C
  C8       1.0000 0.53360  0.18040  0.43610  Biso   1.000  C
  H1       1.0000 0.03390  0.24870  0.92420  Biso   1.000  H
  H2       1.0000 0.46610  0.74870  0.57580  Biso   1.000  H
  H3       1.0000 0.96610  0.75130  0.07580  Biso   1.000  H
  H4       1.0000 0.53390  0.25130  0.42420  Biso   1.000  H
  C9       1.0000 0.09960  0.38900  0.87570  Biso   1.000  C
  C10      1.0000 0.40040  0.88900  0.62430  Biso   1.000  C
  C11      1.0000 0.90040  0.61100  0.12430  Biso   1.000  C
  C12      1.0000 0.59960  0.11100  0.37570  Biso   1.000  C
  C13      1.0000 0.09740  0.49330  0.89070  Biso   1.000  C
  C14      1.0000 0.40260  0.99330  0.60930  Biso   1.000  C
  C15      1.0000 0.90260  0.50670  0.10930  Biso   1.000  C
  C16      1.0000 0.59740  0.00670  0.39070  Biso   1.000  C
  H5       1.0000 0.13920  0.53800  0.84910  Biso   1.000  H
  H6       1.0000 0.36080  0.03800  0.65090  Biso   1.000  H
  H7       1.0000 0.86080  0.46200  0.15090  Biso   1.000  H
  H8       1.0000 0.63920  0.96200  0.34910  Biso   1.000  H
  C17      1.0000 0.03230  0.53460  0.96920  Biso   1.000  C
  C18      1.0000 0.46770  0.03460  0.53080  Biso   1.000  C
  C19      1.0000 0.96770  0.46540  0.03080  Biso   1.000  C
  C20      1.0000 0.53230  0.96540  0.46920  Biso   1.000  C
  C21      1.0000 0.17130  0.35210  0.79170  Biso   1.000  C
  C22      1.0000 0.32870  0.85210  0.70830  Biso   1.000  C
  C23      1.0000 0.82870  0.64790  0.20830  Biso   1.000  C
  C24      1.0000 0.67130  0.14790  0.29170  Biso   1.000  C
  O1       1.0000 0.19910  0.06990  0.00100  Biso   1.000  O
  O2       1.0000 0.30090  0.56990  0.49900  Biso   1.000  O
  O3       1.0000 0.80090  0.93010  0.99900  Biso   1.000  O
  O4       1.0000 0.69910  0.43010  0.50100  Biso   1.000  O
  O5       1.0000 0.04710  0.95750  0.12690  Biso   1.000  O
  O6       1.0000 0.45290  0.45750  0.37310  Biso   1.000  O
  O7       1.0000 0.95290  0.04250  0.87310  Biso   1.000  O
  O8       1.0000 0.54710  0.54250  0.62690  Biso   1.000  O
  O9       1.0000 0.88790  0.16610  0.04173  Biso   1.000  O
  O10      1.0000 0.61210  0.66610  0.45827  Biso   1.000  O
  O11      1.0000 0.11210  0.83390  0.95827  Biso   1.000  O
  O12      1.0000 0.38790  0.33390  0.54173  Biso   1.000  O
  O13      1.0000 0.74610  0.30190  0.11140  Biso   1.000  O
  O14      1.0000 0.75390  0.80190  0.38860  Biso   1.000  O
  O15      1.0000 0.25390  0.69810  0.88860  Biso   1.000  O
  O16      1.0000 0.24610  0.19810  0.61140  Biso   1.000  O
  O17      1.0000 0.00760  0.26550  0.16750  Biso   1.000  O
  O18      1.0000 0.49240  0.76550  0.33250  Biso   1.000  O
  O19      1.0000 0.99240  0.73450  0.83250  Biso   1.000  O
  O20      1.0000 0.50760  0.23450  0.66750  Biso   1.000  O
  O21      1.0000 0.17280  0.25230  0.78230  Biso   1.000  O
  O22      1.0000 0.32720  0.75230  0.71770  Biso   1.000  O
  O23      1.0000 0.82720  0.74770  0.21770  Biso   1.000  O
  O24      1.0000 0.67280  0.24770  0.28230  Biso   1.000  O
  O25      1.0000 0.22580  0.41050  0.73890  Biso   1.000  O
  O26      1.0000 0.27420  0.91050  0.76110  Biso   1.000  O
  O27      1.0000 0.77420  0.58950  0.26110  Biso   1.000  O
  O28      1.0000 0.72580  0.08950  0.23890  Biso   1.000  O
  S1       1.0000 0.89686  0.26397  0.08907  Biso   1.000  S
  S2       1.0000 0.60314  0.76397  0.41093  Biso   1.000  S
  S3       1.0000 0.10314  0.73603  0.91093  Biso   1.000  S
  S4       1.0000 0.39686  0.23603  0.58907  Biso   1.000  S
  Cu1      1.0000 0.00000  0.00000  0.00000  Biso   1.000  Cu
  Cu2      1.0000 0.50000  0.50000  0.50000  Biso   1.000  Cu
  N1       1.0000 0.11230  0.99350  0.27360  Biso   1.000  N
  N2       1.0000 0.38770  0.49350  0.22640  Biso   1.000  N
  N3       1.0000 0.88770  0.00650  0.72640  Biso   1.000  N
  N4       1.0000 0.61230  0.50650  0.77360  Biso   1.000  N
  N5       1.0000 0.41950  0.11440  0.93940  Biso   1.000  N
  N6       1.0000 0.08050  0.61440  0.56060  Biso   1.000  N
  N7       1.0000 0.58050  0.88560  0.06060  Biso   1.000  N
  N8       1.0000 0.91950  0.38560  0.43940  Biso   1.000  N
  C25      1.0000 0.29310  0.05970  0.94160  Biso   1.000  C
  C26      1.0000 0.20690  0.55970  0.55840  Biso   1.000  C
  C27      1.0000 0.70690  0.94030  0.05840  Biso   1.000  C
  C28      1.0000 0.79310  0.44030  0.44160  Biso   1.000  C
  C29      1.0000 0.07370  0.01640  0.18920  Biso   1.000  C
  C30      1.0000 0.42630  0.51640  0.31080  Biso   1.000  C
  C31      1.0000 0.92630  0.98360  0.81080  Biso   1.000  C
  C32      1.0000 0.57370  0.48360  0.68920  Biso   1.000  C
  C33      1.0000 0.52910  0.09990  0.86770  Biso   1.000  C
  C34      1.0000 0.97090  0.59990  0.63230  Biso   1.000  C
  C35      1.0000 0.47090  0.90010  0.13230  Biso   1.000  C
  C36      1.0000 0.02910  0.40010  0.36770  Biso   1.000  C
  H9       1.0000 0.61490  0.14680  0.87790  Biso   1.000  H
  H10      1.0000 0.88510  0.64680  0.62210  Biso   1.000  H
  H11      1.0000 0.38510  0.85320  0.12210  Biso   1.000  H
  H12      1.0000 0.11490  0.35320  0.37790  Biso   1.000  H
  H13      1.0000 0.47720  0.11370  0.80930  Biso   1.000  H
  H14      1.0000 0.02280  0.61370  0.69070  Biso   1.000  H
  H15      1.0000 0.52280  0.88630  0.19070  Biso   1.000  H
  H16      1.0000 0.97720  0.38630  0.30930  Biso   1.000  H
  H17      1.0000 0.56660  0.02970  0.86930  Biso   1.000  H
  H18      1.0000 0.93340  0.52970  0.63070  Biso   1.000  H
  H19      1.0000 0.43340  0.97030  0.13070  Biso   1.000  H
  H20      1.0000 0.06660  0.47030  0.36930  Biso   1.000  H
  C37      1.0000 0.13320  0.88910  0.30040  Biso   1.000  C
  C38      1.0000 0.36680  0.38910  0.19960  Biso   1.000  C
  C39      1.0000 0.86680  0.11090  0.69960  Biso   1.000  C
  C40      1.0000 0.63320  0.61090  0.80040  Biso   1.000  C
  H21      1.0000 0.16160  0.88610  0.36460  Biso   1.000  H
  H22      1.0000 0.33840  0.38610  0.13540  Biso   1.000  H
  H23      1.0000 0.83840  0.11390  0.63540  Biso   1.000  H
  H24      1.0000 0.66160  0.61390  0.86460  Biso   1.000  H
  H25      1.0000 0.21410  0.85860  0.26740  Biso   1.000  H
  H26      1.0000 0.28590  0.35860  0.23260  Biso   1.000  H
  H27      1.0000 0.78590  0.14140  0.73260  Biso   1.000  H
  H28      1.0000 0.71410  0.64140  0.76740  Biso   1.000  H
  H29      1.0000 0.03830  0.85160  0.28750  Biso   1.000  H
  H30      1.0000 0.46170  0.35160  0.21250  Biso   1.000  H
  H31      1.0000 0.96170  0.14840  0.71250  Biso   1.000  H
  H32      1.0000 0.53830  0.64840  0.78750  Biso   1.000  H
  C41      1.0000 0.45430  0.19380  0.00560  Biso   1.000  C
  C42      1.0000 0.04570  0.69380  0.49440  Biso   1.000  C
  C43      1.0000 0.54570  0.80620  0.99440  Biso   1.000  C
  C44      1.0000 0.95430  0.30620  0.50560  Biso   1.000  C
  H33      1.0000 0.55140  0.22590  0.99400  Biso   1.000  H
  H34      1.0000 0.94860  0.72590  0.50600  Biso   1.000  H
  H35      1.0000 0.44860  0.77410  0.00600  Biso   1.000  H
  H36      1.0000 0.05140  0.27410  0.49400  Biso   1.000  H
  H37      1.0000 0.46130  0.16380  0.06540  Biso   1.000  H
  H38      1.0000 0.03870  0.66380  0.43460  Biso   1.000  H
  H39      1.0000 0.53870  0.83620  0.93460  Biso   1.000  H
  H40      1.0000 0.96130  0.33620  0.56540  Biso   1.000  H
  H41      1.0000 0.37350  0.24520  0.00180  Biso   1.000  H
  H42      1.0000 0.12650  0.74520  0.49820  Biso   1.000  H
  H43      1.0000 0.62650  0.75480  0.99820  Biso   1.000  H
  H44      1.0000 0.87350  0.25480  0.50180  Biso   1.000  H
  C45      1.0000 0.13540  0.07280  0.34370  Biso   1.000  C
  C46      1.0000 0.36460  0.57280  0.15630  Biso   1.000  C
  C47      1.0000 0.86460  0.92720  0.65630  Biso   1.000  C
  C48      1.0000 0.63540  0.42720  0.84370  Biso   1.000  C
  H45      1.0000 0.16300  0.04030  0.40130  Biso   1.000  H
  H46      1.0000 0.33700  0.54030  0.09870  Biso   1.000  H
  H47      1.0000 0.83700  0.95970  0.59870  Biso   1.000  H
  H48      1.0000 0.66300  0.45970  0.90130  Biso   1.000  H
  H49      1.0000 0.04120  0.11160  0.34790  Biso   1.000  H
  H50      1.0000 0.45880  0.61160  0.15210  Biso   1.000  H
  H51      1.0000 0.95880  0.88840  0.65210  Biso   1.000  H
  H52      1.0000 0.54120  0.38840  0.84790  Biso   1.000  H
  H53      1.0000 0.21720  0.11870  0.32830  Biso   1.000  H
  H54      1.0000 0.28280  0.61870  0.17170  Biso   1.000  H
  H55      1.0000 0.78280  0.88130  0.67170  Biso   1.000  H
  H56      1.0000 0.71720  0.38130  0.82830  Biso   1.000  H
  H57      1.0000 0.28400  0.00500  0.89700  Biso   1.000  H
  H58      1.0000 0.21600  0.50500  0.60300  Biso   1.000  H
  H59      1.0000 0.71600  0.99500  0.10300  Biso   1.000  H
  H60      1.0000 0.78400  0.49500  0.39700  Biso   1.000  H
  H61      1.0000 0.06500  0.07800  0.17700  Biso   1.000  H
  H62      1.0000 0.43500  0.57800  0.32300  Biso   1.000  H
  H63      1.0000 0.93500  0.92200  0.82300  Biso   1.000  H
  H64      1.0000 0.56500  0.42200  0.67700  Biso   1.000  H
  H65      1.0000 0.20200  0.23200  0.73700  Biso   1.000  H
  H66      1.0000 0.29800  0.73200  0.76300  Biso   1.000  H
  H67      1.0000 0.79800  0.76800  0.26300  Biso   1.000  H
  H68      1.0000 0.70200  0.26800  0.23700  Biso   1.000  H
