data_image0
_cell_length_a       11.63
_cell_length_b       11.447
_cell_length_c       12.527
_cell_angle_alpha    90
_cell_angle_beta     114.51
_cell_angle_gamma    90

_symmetry_space_group_name_H-M    "P 1"
_symmetry_int_tables_number       1

loop_
  _symmetry_equiv_pos_as_xyz
  'x, y, z'

loop_
  _atom_site_label
  _atom_site_occupancy
  _atom_site_fract_x
  _atom_site_fract_y
  _atom_site_fract_z
  _atom_site_thermal_displace_type
  _atom_site_B_iso_or_equiv
  _atom_site_type_symbol
  Cu1      1.0000 0.00000  0.98646  0.25000  Biso   1.000  Cu
  Cu2      1.0000 0.50000  0.48646  0.25000  Biso   1.000  Cu
  Cu3      1.0000 0.00000  0.01354  0.75000  Biso   1.000  Cu
  Cu4      1.0000 0.50000  0.51354  0.75000  Biso   1.000  Cu
  O1       1.0000 0.07240  0.10590  0.36850  Biso   1.000  O
  O2       1.0000 0.92760  0.10590  0.13150  Biso   1.000  O
  O3       1.0000 0.57240  0.60590  0.36850  Biso   1.000  O
  O4       1.0000 0.42760  0.60590  0.13150  Biso   1.000  O
  O5       1.0000 0.92760  0.89410  0.63150  Biso   1.000  O
  O6       1.0000 0.07240  0.89410  0.86850  Biso   1.000  O
  O7       1.0000 0.42760  0.39410  0.63150  Biso   1.000  O
  O8       1.0000 0.57240  0.39410  0.86850  Biso   1.000  O
  O9       1.0000 0.23880  0.07580  0.32740  Biso   1.000  O
  O10      1.0000 0.76120  0.07580  0.17260  Biso   1.000  O
  O11      1.0000 0.73880  0.57580  0.32740  Biso   1.000  O
  O12      1.0000 0.26120  0.57580  0.17260  Biso   1.000  O
  O13      1.0000 0.76120  0.92420  0.67260  Biso   1.000  O
  O14      1.0000 0.23880  0.92420  0.82740  Biso   1.000  O
  O15      1.0000 0.26120  0.42420  0.67260  Biso   1.000  O
  O16      1.0000 0.73880  0.42420  0.82740  Biso   1.000  O
  C1       1.0000 0.18250  0.12740  0.37700  Biso   1.000  C
  C2       1.0000 0.81750  0.12740  0.12300  Biso   1.000  C
  C3       1.0000 0.68250  0.62740  0.37700  Biso   1.000  C
  C4       1.0000 0.31750  0.62740  0.12300  Biso   1.000  C
  C5       1.0000 0.81750  0.87260  0.62300  Biso   1.000  C
  C6       1.0000 0.18250  0.87260  0.87700  Biso   1.000  C
  C7       1.0000 0.31750  0.37260  0.62300  Biso   1.000  C
  C8       1.0000 0.68250  0.37260  0.87700  Biso   1.000  C
  C9       1.0000 0.26380  0.22980  0.45660  Biso   1.000  C
  C10      1.0000 0.73620  0.22980  0.04340  Biso   1.000  C
  C11      1.0000 0.76380  0.72980  0.45660  Biso   1.000  C
  C12      1.0000 0.23620  0.72980  0.04340  Biso   1.000  C
  C13      1.0000 0.73620  0.77020  0.54340  Biso   1.000  C
  C14      1.0000 0.26380  0.77020  0.95660  Biso   1.000  C
  C15      1.0000 0.23620  0.27020  0.54340  Biso   1.000  C
  C16      1.0000 0.76380  0.27020  0.95660  Biso   1.000  C
  H1       1.0000 0.35430  0.21290  0.48510  Biso   1.000  H
  H2       1.0000 0.64570  0.21290  0.01490  Biso   1.000  H
  H3       1.0000 0.85430  0.71290  0.48510  Biso   1.000  H
  H4       1.0000 0.14570  0.71290  0.01490  Biso   1.000  H
  H5       1.0000 0.64570  0.78710  0.51490  Biso   1.000  H
  H6       1.0000 0.35430  0.78710  0.98510  Biso   1.000  H
  H7       1.0000 0.14570  0.28710  0.51490  Biso   1.000  H
  H8       1.0000 0.85430  0.28710  0.98510  Biso   1.000  H
  Br1      1.0000 0.21432  0.37563  0.34531  Biso   1.000  Br
  Br2      1.0000 0.78568  0.37563  0.15469  Biso   1.000  Br
  Br3      1.0000 0.71432  0.87563  0.34531  Biso   1.000  Br
  Br4      1.0000 0.28568  0.87563  0.15469  Biso   1.000  Br
  Br5      1.0000 0.78568  0.62437  0.65469  Biso   1.000  Br
  Br6      1.0000 0.21432  0.62437  0.84531  Biso   1.000  Br
  Br7      1.0000 0.28568  0.12437  0.65469  Biso   1.000  Br
  Br8      1.0000 0.71432  0.12437  0.84531  Biso   1.000  Br
  N1       1.0000 0.04840  0.85490  0.36230  Biso   1.000  N
  N2       1.0000 0.95160  0.85490  0.13770  Biso   1.000  N
  N3       1.0000 0.54840  0.35490  0.36230  Biso   1.000  N
  N4       1.0000 0.45160  0.35490  0.13770  Biso   1.000  N
  N5       1.0000 0.95160  0.14510  0.63770  Biso   1.000  N
  N6       1.0000 0.04840  0.14510  0.86230  Biso   1.000  N
  N7       1.0000 0.45160  0.64510  0.63770  Biso   1.000  N
  N8       1.0000 0.54840  0.64510  0.86230  Biso   1.000  N
  C17      1.0000 0.09700  0.86390  0.48160  Biso   1.000  C
  C18      1.0000 0.90300  0.86390  0.01840  Biso   1.000  C
  C19      1.0000 0.59700  0.36390  0.48160  Biso   1.000  C
  C20      1.0000 0.40300  0.36390  0.01840  Biso   1.000  C
  C21      1.0000 0.90300  0.13610  0.51840  Biso   1.000  C
  C22      1.0000 0.09700  0.13610  0.98160  Biso   1.000  C
  C23      1.0000 0.40300  0.63610  0.51840  Biso   1.000  C
  C24      1.0000 0.59700  0.63610  0.98160  Biso   1.000  C
  H9       1.0000 0.11110  0.93770  0.51560  Biso   1.000  H
  H10      1.0000 0.88890  0.93770  0.98440  Biso   1.000  H
  H11      1.0000 0.61110  0.43770  0.51560  Biso   1.000  H
  H12      1.0000 0.38890  0.43770  0.98440  Biso   1.000  H
  H13      1.0000 0.88890  0.06230  0.48440  Biso   1.000  H
  H14      1.0000 0.11110  0.06230  0.01560  Biso   1.000  H
  H15      1.0000 0.38890  0.56230  0.48440  Biso   1.000  H
  H16      1.0000 0.61110  0.56230  0.01560  Biso   1.000  H
  C25      1.0000 0.12560  0.76780  0.55290  Biso   1.000  C
  C26      1.0000 0.87440  0.76780  0.94710  Biso   1.000  C
  C27      1.0000 0.62560  0.26780  0.55290  Biso   1.000  C
  C28      1.0000 0.37440  0.26780  0.94710  Biso   1.000  C
  C29      1.0000 0.87440  0.23220  0.44710  Biso   1.000  C
  C30      1.0000 0.12560  0.23220  0.05290  Biso   1.000  C
  C31      1.0000 0.37440  0.73220  0.44710  Biso   1.000  C
  C32      1.0000 0.62560  0.73220  0.05290  Biso   1.000  C
  H17      1.0000 0.15930  0.77750  0.63380  Biso   1.000  H
  H18      1.0000 0.84070  0.77750  0.86620  Biso   1.000  H
  H19      1.0000 0.65930  0.27750  0.63380  Biso   1.000  H
  H20      1.0000 0.34070  0.27750  0.86620  Biso   1.000  H
  H21      1.0000 0.84070  0.22250  0.36620  Biso   1.000  H
  H22      1.0000 0.15930  0.22250  0.13380  Biso   1.000  H
  H23      1.0000 0.34070  0.72250  0.36620  Biso   1.000  H
  H24      1.0000 0.65930  0.72250  0.13380  Biso   1.000  H
  C33      1.0000 0.10570  0.66050  0.50770  Biso   1.000  C
  C34      1.0000 0.89430  0.66050  0.99230  Biso   1.000  C
  C35      1.0000 0.60570  0.16050  0.50770  Biso   1.000  C
  C36      1.0000 0.39430  0.16050  0.99230  Biso   1.000  C
  C37      1.0000 0.89430  0.33950  0.49230  Biso   1.000  C
  C38      1.0000 0.10570  0.33950  0.00770  Biso   1.000  C
  C39      1.0000 0.39430  0.83950  0.49230  Biso   1.000  C
  C40      1.0000 0.60570  0.83950  0.00770  Biso   1.000  C
  H25      1.0000 0.12740  0.59520  0.55620  Biso   1.000  H
  H26      1.0000 0.87260  0.59520  0.94380  Biso   1.000  H
  H27      1.0000 0.62740  0.09520  0.55620  Biso   1.000  H
  H28      1.0000 0.37260  0.09520  0.94380  Biso   1.000  H
  H29      1.0000 0.87260  0.40480  0.44380  Biso   1.000  H
  H30      1.0000 0.12740  0.40480  0.05620  Biso   1.000  H
  H31      1.0000 0.37260  0.90480  0.44380  Biso   1.000  H
  H32      1.0000 0.62740  0.90480  0.05620  Biso   1.000  H
  C41      1.0000 0.05030  0.64780  0.38260  Biso   1.000  C
  C42      1.0000 0.94970  0.64780  0.11740  Biso   1.000  C
  C43      1.0000 0.55030  0.14780  0.38260  Biso   1.000  C
  C44      1.0000 0.44970  0.14780  0.11740  Biso   1.000  C
  C45      1.0000 0.94970  0.35220  0.61740  Biso   1.000  C
  C46      1.0000 0.05030  0.35220  0.88260  Biso   1.000  C
  C47      1.0000 0.44970  0.85220  0.61740  Biso   1.000  C
  C48      1.0000 0.55030  0.85220  0.88260  Biso   1.000  C
  H33      1.0000 0.03010  0.57460  0.34740  Biso   1.000  H
  H34      1.0000 0.96990  0.57460  0.15260  Biso   1.000  H
  H35      1.0000 0.53010  0.07460  0.34740  Biso   1.000  H
  H36      1.0000 0.46990  0.07460  0.15260  Biso   1.000  H
  H37      1.0000 0.96990  0.42540  0.65260  Biso   1.000  H
  H38      1.0000 0.03010  0.42540  0.84740  Biso   1.000  H
  H39      1.0000 0.46990  0.92540  0.65260  Biso   1.000  H
  H40      1.0000 0.53010  0.92540  0.84740  Biso   1.000  H
  C49      1.0000 0.02830  0.74790  0.31710  Biso   1.000  C
  C50      1.0000 0.97170  0.74790  0.18290  Biso   1.000  C
  C51      1.0000 0.52830  0.24790  0.31710  Biso   1.000  C
  C52      1.0000 0.47170  0.24790  0.18290  Biso   1.000  C
  C53      1.0000 0.97170  0.25210  0.68290  Biso   1.000  C
  C54      1.0000 0.02830  0.25210  0.81710  Biso   1.000  C
  C55      1.0000 0.47170  0.75210  0.68290  Biso   1.000  C
  C56      1.0000 0.52830  0.75210  0.81710  Biso   1.000  C
