data_image0
_cell_length_a       12.564
_cell_length_b       10.212
_cell_length_c       11.46
_cell_angle_alpha    90
_cell_angle_beta     104.23
_cell_angle_gamma    90

_symmetry_space_group_name_H-M    "P 1"
_symmetry_int_tables_number       1

loop_
  _symmetry_equiv_pos_as_xyz
  'x, y, z'

loop_
  _atom_site_label
  _atom_site_occupancy
  _atom_site_fract_x
  _atom_site_fract_y
  _atom_site_fract_z
  _atom_site_thermal_displace_type
  _atom_site_B_iso_or_equiv
  _atom_site_type_symbol
  Cu1      1.0000 0.50000  0.50000  0.00000  Biso   1.000  Cu
  Cu2      1.0000 0.00000  0.00000  0.00000  Biso   1.000  Cu
  O1       1.0000 0.48355  0.33365  0.07286  Biso   1.000  O
  O2       1.0000 0.01645  0.83365  0.92714  Biso   1.000  O
  O3       1.0000 0.51645  0.66635  0.92714  Biso   1.000  O
  O4       1.0000 0.98355  0.16635  0.07286  Biso   1.000  O
  C1       1.0000 0.40563  0.25341  0.05280  Biso   1.000  C
  C2       1.0000 0.09437  0.75341  0.94720  Biso   1.000  C
  C3       1.0000 0.59437  0.74659  0.94720  Biso   1.000  C
  C4       1.0000 0.90563  0.24659  0.05280  Biso   1.000  C
  C5       1.0000 0.32828  0.24268  0.93962  Biso   1.000  C
  C6       1.0000 0.17172  0.74268  0.06038  Biso   1.000  C
  C7       1.0000 0.67172  0.75732  0.06038  Biso   1.000  C
  C8       1.0000 0.82828  0.25732  0.93962  Biso   1.000  C
  C9       1.0000 0.65923  0.67746  0.16085  Biso   1.000  C
  C10      1.0000 0.84077  0.17746  0.83915  Biso   1.000  C
  C11      1.0000 0.34077  0.32254  0.83915  Biso   1.000  C
  C12      1.0000 0.15923  0.82254  0.16085  Biso   1.000  C
  N1       1.0000 0.70150  0.69341  0.28173  Biso   1.000  N
  N2       1.0000 0.79850  0.19341  0.71827  Biso   1.000  N
  N3       1.0000 0.29850  0.30659  0.71827  Biso   1.000  N
  N4       1.0000 0.20150  0.80659  0.28173  Biso   1.000  N
  N5       1.0000 0.66607  0.59053  0.33879  Biso   1.000  N
  N6       1.0000 0.83393  0.09053  0.66121  Biso   1.000  N
  N7       1.0000 0.33393  0.40947  0.66121  Biso   1.000  N
  N8       1.0000 0.16607  0.90947  0.33879  Biso   1.000  N
  N9       1.0000 0.60495  0.51851  0.25922  Biso   1.000  N
  N10      1.0000 0.89505  0.01851  0.74078  Biso   1.000  N
  N11      1.0000 0.39505  0.48149  0.74078  Biso   1.000  N
  N12      1.0000 0.10495  0.98149  0.25922  Biso   1.000  N
  N13      1.0000 0.59906  0.56846  0.14741  Biso   1.000  N
  N14      1.0000 0.90094  0.06846  0.85259  Biso   1.000  N
  N15      1.0000 0.40094  0.43154  0.85259  Biso   1.000  N
  N16      1.0000 0.09906  0.93154  0.14741  Biso   1.000  N
  C13      1.0000 0.23427  0.16344  0.92874  Biso   1.000  C
  C14      1.0000 0.26573  0.66344  0.07126  Biso   1.000  C
  C15      1.0000 0.76573  0.83656  0.07126  Biso   1.000  C
  C16      1.0000 0.73427  0.33656  0.92874  Biso   1.000  C
  N17      1.0000 0.15857  0.09893  0.92320  Biso   1.000  N
  N18      1.0000 0.34143  0.59893  0.07680  Biso   1.000  N
  N19      1.0000 0.84143  0.90107  0.07680  Biso   1.000  N
  N20      1.0000 0.65857  0.40107  0.92320  Biso   1.000  N
  C17      1.0000 0.60028  0.83419  0.83952  Biso   1.000  C
  C18      1.0000 0.89972  0.33419  0.16048  Biso   1.000  C
  C19      1.0000 0.39972  0.16581  0.16048  Biso   1.000  C
  C20      1.0000 0.10028  0.66581  0.83952  Biso   1.000  C
  C21      1.0000 0.70286  0.79591  0.79655  Biso   1.000  C
  C22      1.0000 0.79714  0.29591  0.20345  Biso   1.000  C
  C23      1.0000 0.29714  0.20409  0.20345  Biso   1.000  C
  C24      1.0000 0.20286  0.70409  0.79655  Biso   1.000  C
  H1       1.0000 0.76733  0.81085  0.86024  Biso   1.000  H
  H2       1.0000 0.73267  0.31085  0.13976  Biso   1.000  H
  H3       1.0000 0.23267  0.18915  0.13976  Biso   1.000  H
  H4       1.0000 0.26733  0.68915  0.86024  Biso   1.000  H
  H5       1.0000 0.69873  0.70495  0.77473  Biso   1.000  H
  H6       1.0000 0.80127  0.20495  0.22527  Biso   1.000  H
  H7       1.0000 0.30127  0.29505  0.22527  Biso   1.000  H
  H8       1.0000 0.19873  0.79505  0.77473  Biso   1.000  H
  H9       1.0000 0.70653  0.84801  0.72792  Biso   1.000  H
  H10      1.0000 0.79347  0.34801  0.27208  Biso   1.000  H
  H11      1.0000 0.29347  0.15199  0.27208  Biso   1.000  H
  H12      1.0000 0.20653  0.65199  0.72792  Biso   1.000  H
  C25      1.0000 0.49933  0.80972  0.73732  Biso   1.000  C
  C26      1.0000 0.00067  0.30972  0.26268  Biso   1.000  C
  C27      1.0000 0.50067  0.19028  0.26268  Biso   1.000  C
  C28      1.0000 0.99933  0.69028  0.73732  Biso   1.000  C
  H13      1.0000 0.49599  0.71875  0.71560  Biso   1.000  H
  H14      1.0000 0.00401  0.21875  0.28440  Biso   1.000  H
  H15      1.0000 0.50401  0.28125  0.28440  Biso   1.000  H
  H16      1.0000 0.99599  0.78125  0.71560  Biso   1.000  H
  H17      1.0000 0.43460  0.83306  0.76293  Biso   1.000  H
  H18      1.0000 0.06540  0.33306  0.23707  Biso   1.000  H
  H19      1.0000 0.56540  0.16694  0.23707  Biso   1.000  H
  H20      1.0000 0.93460  0.66694  0.76293  Biso   1.000  H
  H21      1.0000 0.50362  0.86192  0.66896  Biso   1.000  H
  H22      1.0000 0.99638  0.36192  0.33104  Biso   1.000  H
  H23      1.0000 0.49638  0.13808  0.33104  Biso   1.000  H
  H24      1.0000 0.00362  0.63808  0.66896  Biso   1.000  H
  C29      1.0000 0.60341  0.98060  0.87228  Biso   1.000  C
  C30      1.0000 0.89659  0.48060  0.12772  Biso   1.000  C
  C31      1.0000 0.39659  0.01940  0.12772  Biso   1.000  C
  C32      1.0000 0.10341  0.51940  0.87228  Biso   1.000  C
  H25      1.0000 0.66676  0.99794  0.93675  Biso   1.000  H
  H26      1.0000 0.83324  0.49794  0.06325  Biso   1.000  H
  H27      1.0000 0.33324  0.00206  0.06325  Biso   1.000  H
  H28      1.0000 0.16676  0.50206  0.93675  Biso   1.000  H
  H29      1.0000 0.60721  0.03200  0.80328  Biso   1.000  H
  H30      1.0000 0.89279  0.53200  0.19672  Biso   1.000  H
  H31      1.0000 0.39279  0.96800  0.19672  Biso   1.000  H
  H32      1.0000 0.10721  0.46800  0.80328  Biso   1.000  H
  H33      1.0000 0.53819  0.00315  0.89725  Biso   1.000  H
  H34      1.0000 0.96181  0.50315  0.10275  Biso   1.000  H
  H35      1.0000 0.46181  0.99685  0.10275  Biso   1.000  H
  H36      1.0000 0.03819  0.49685  0.89725  Biso   1.000  H
  C33      1.0000 0.23136  0.20345  0.63962  Biso   1.000  C
  C34      1.0000 0.26864  0.70345  0.36038  Biso   1.000  C
  C35      1.0000 0.76864  0.79655  0.36038  Biso   1.000  C
  C36      1.0000 0.73136  0.29655  0.63962  Biso   1.000  C
  C37      1.0000 0.24547  0.22246  0.51213  Biso   1.000  C
  C38      1.0000 0.25453  0.72246  0.48787  Biso   1.000  C
  C39      1.0000 0.75453  0.77754  0.48787  Biso   1.000  C
  C40      1.0000 0.74547  0.27754  0.51213  Biso   1.000  C
  H37      1.0000 0.20331  0.15763  0.45986  Biso   1.000  H
  H38      1.0000 0.29669  0.65763  0.54014  Biso   1.000  H
  H39      1.0000 0.79669  0.84237  0.54014  Biso   1.000  H
  H40      1.0000 0.70331  0.34237  0.45986  Biso   1.000  H
  H41      1.0000 0.32161  0.21351  0.51248  Biso   1.000  H
  H42      1.0000 0.17839  0.71351  0.48752  Biso   1.000  H
  H43      1.0000 0.67839  0.78649  0.48752  Biso   1.000  H
  H44      1.0000 0.82161  0.28649  0.51248  Biso   1.000  H
  H45      1.0000 0.22031  0.30823  0.48388  Biso   1.000  H
  H46      1.0000 0.27969  0.80823  0.51612  Biso   1.000  H
  H47      1.0000 0.77969  0.69177  0.51612  Biso   1.000  H
  H48      1.0000 0.72031  0.19177  0.48388  Biso   1.000  H
  C41      1.0000 0.11096  0.21945  0.63888  Biso   1.000  C
  C42      1.0000 0.38904  0.71945  0.36112  Biso   1.000  C
  C43      1.0000 0.88904  0.78055  0.36112  Biso   1.000  C
  C44      1.0000 0.61096  0.28055  0.63888  Biso   1.000  C
  H49      1.0000 0.06849  0.15336  0.58855  Biso   1.000  H
  H50      1.0000 0.43151  0.65336  0.41145  Biso   1.000  H
  H51      1.0000 0.93151  0.84664  0.41145  Biso   1.000  H
  H52      1.0000 0.56849  0.34664  0.58855  Biso   1.000  H
  H53      1.0000 0.08610  0.30451  0.60820  Biso   1.000  H
  H54      1.0000 0.41390  0.80451  0.39180  Biso   1.000  H
  H55      1.0000 0.91390  0.69549  0.39180  Biso   1.000  H
  H56      1.0000 0.58610  0.19549  0.60820  Biso   1.000  H
  H57      1.0000 0.10222  0.21061  0.71941  Biso   1.000  H
  H58      1.0000 0.39778  0.71061  0.28059  Biso   1.000  H
  H59      1.0000 0.89778  0.78939  0.28059  Biso   1.000  H
  H60      1.0000 0.60222  0.28939  0.71941  Biso   1.000  H
  C45      1.0000 0.27700  0.07005  0.68290  Biso   1.000  C
  C46      1.0000 0.22300  0.57005  0.31710  Biso   1.000  C
  C47      1.0000 0.72300  0.92995  0.31710  Biso   1.000  C
  C48      1.0000 0.77700  0.42995  0.68290  Biso   1.000  C
  H61      1.0000 0.23462  0.00345  0.63319  Biso   1.000  H
  H62      1.0000 0.26538  0.50345  0.36681  Biso   1.000  H
  H63      1.0000 0.76538  0.99655  0.36681  Biso   1.000  H
  H64      1.0000 0.73462  0.49655  0.63319  Biso   1.000  H
  H65      1.0000 0.27322  0.05764  0.76483  Biso   1.000  H
  H66      1.0000 0.22678  0.55764  0.23517  Biso   1.000  H
  H67      1.0000 0.72678  0.94236  0.23517  Biso   1.000  H
  H68      1.0000 0.77322  0.44236  0.76483  Biso   1.000  H
  H69      1.0000 0.35209  0.06443  0.67812  Biso   1.000  H
  H70      1.0000 0.14791  0.56443  0.32188  Biso   1.000  H
  H71      1.0000 0.64791  0.93557  0.32188  Biso   1.000  H
  H72      1.0000 0.85209  0.43557  0.67812  Biso   1.000  H
