data_image0
_cell_length_a       12.228
_cell_length_b       7.844
_cell_length_c       10.863
_cell_angle_alpha    90
_cell_angle_beta     95.68
_cell_angle_gamma    90

_symmetry_space_group_name_H-M    "P 1"
_symmetry_int_tables_number       1

loop_
  _symmetry_equiv_pos_as_xyz
  'x, y, z'

loop_
  _atom_site_label
  _atom_site_occupancy
  _atom_site_fract_x
  _atom_site_fract_y
  _atom_site_fract_z
  _atom_site_thermal_displace_type
  _atom_site_B_iso_or_equiv
  _atom_site_type_symbol
  Cu1      1.0000 0.00000  0.50000  0.50000  Biso   1.000  Cu
  Cu2      1.0000 0.00000  0.00000  0.00000  Biso   1.000  Cu
  O1       1.0000 0.85380  0.43200  0.44307  Biso   1.000  O
  O2       1.0000 0.14620  0.93200  0.05693  Biso   1.000  O
  O3       1.0000 0.14620  0.56800  0.55693  Biso   1.000  O
  O4       1.0000 0.85380  0.06800  0.94307  Biso   1.000  O
  C1       1.0000 0.76720  0.42162  0.49982  Biso   1.000  C
  C2       1.0000 0.23280  0.92162  0.00018  Biso   1.000  C
  C3       1.0000 0.23280  0.57838  0.50018  Biso   1.000  C
  C4       1.0000 0.76720  0.07838  0.99982  Biso   1.000  C
  C5       1.0000 0.75989  0.47318  0.62207  Biso   1.000  C
  C6       1.0000 0.24011  0.97318  0.87793  Biso   1.000  C
  C7       1.0000 0.24011  0.52682  0.37793  Biso   1.000  C
  C8       1.0000 0.75989  0.02682  0.12207  Biso   1.000  C
  C9       1.0000 0.84729  0.55943  0.69024  Biso   1.000  C
  C10      1.0000 0.15271  0.05943  0.80976  Biso   1.000  C
  C11      1.0000 0.15271  0.44057  0.30976  Biso   1.000  C
  C12      1.0000 0.84729  0.94057  0.19024  Biso   1.000  C
  N1       1.0000 0.94416  0.59766  0.64869  Biso   1.000  N
  N2       1.0000 0.05584  0.09766  0.85131  Biso   1.000  N
  N3       1.0000 0.05584  0.40234  0.35131  Biso   1.000  N
  N4       1.0000 0.94416  0.90234  0.14869  Biso   1.000  N
  N5       1.0000 0.00559  0.68710  0.73760  Biso   1.000  N
  N6       1.0000 0.99441  0.18710  0.76240  Biso   1.000  N
  N7       1.0000 0.99441  0.31290  0.26240  Biso   1.000  N
  N8       1.0000 0.00559  0.81290  0.23760  Biso   1.000  N
  N9       1.0000 0.95306  0.70736  0.83266  Biso   1.000  N
  N10      1.0000 0.04694  0.20736  0.66734  Biso   1.000  N
  N11      1.0000 0.04694  0.29264  0.16734  Biso   1.000  N
  N12      1.0000 0.95306  0.79264  0.33266  Biso   1.000  N
  N13      1.0000 0.85311  0.62681  0.80641  Biso   1.000  N
  N14      1.0000 0.14689  0.12681  0.69359  Biso   1.000  N
  N15      1.0000 0.14689  0.37319  0.19359  Biso   1.000  N
  N16      1.0000 0.85311  0.87319  0.30641  Biso   1.000  N
  C13      1.0000 0.65537  0.44698  0.66855  Biso   1.000  C
  C14      1.0000 0.34463  0.94698  0.83145  Biso   1.000  C
  C15      1.0000 0.34463  0.55302  0.33145  Biso   1.000  C
  C16      1.0000 0.65537  0.05302  0.16855  Biso   1.000  C
  N17      1.0000 0.57071  0.41962  0.69827  Biso   1.000  N
  N18      1.0000 0.42929  0.91962  0.80173  Biso   1.000  N
  N19      1.0000 0.42929  0.58038  0.30173  Biso   1.000  N
  N20      1.0000 0.57071  0.08038  0.19827  Biso   1.000  N
  C17      1.0000 0.78334  0.61064  0.90501  Biso   1.000  C
  C18      1.0000 0.21666  0.11064  0.59499  Biso   1.000  C
  C19      1.0000 0.21666  0.38936  0.09499  Biso   1.000  C
  C20      1.0000 0.78334  0.88936  0.40501  Biso   1.000  C
  C21      1.0000 0.82391  0.52610  0.00955  Biso   1.000  C
  C22      1.0000 0.17609  0.02610  0.49045  Biso   1.000  C
  C23      1.0000 0.17609  0.47390  0.99045  Biso   1.000  C
  C24      1.0000 0.82391  0.97390  0.50955  Biso   1.000  C
  H1       1.0000 0.89693  0.47987  0.01558  Biso   1.000  H
  H2       1.0000 0.10307  0.97987  0.48442  Biso   1.000  H
  H3       1.0000 0.10307  0.52013  0.98442  Biso   1.000  H
  H4       1.0000 0.89693  0.02013  0.51558  Biso   1.000  H
  C25      1.0000 0.75962  0.50947  0.10727  Biso   1.000  C
  C26      1.0000 0.24038  0.00947  0.39273  Biso   1.000  C
  C27      1.0000 0.24038  0.49053  0.89273  Biso   1.000  C
  C28      1.0000 0.75962  0.99053  0.60727  Biso   1.000  C
  H5       1.0000 0.78855  0.45575  0.18299  Biso   1.000  H
  H6       1.0000 0.21145  0.95575  0.31701  Biso   1.000  H
  H7       1.0000 0.21145  0.54425  0.81701  Biso   1.000  H
  H8       1.0000 0.78855  0.04425  0.68299  Biso   1.000  H
  C29      1.0000 0.65314  0.57400  0.09515  Biso   1.000  C
  C30      1.0000 0.34686  0.07400  0.40485  Biso   1.000  C
  C31      1.0000 0.34686  0.42600  0.90485  Biso   1.000  C
  C32      1.0000 0.65314  0.92600  0.59515  Biso   1.000  C
  H9       1.0000 0.60632  0.55566  0.15982  Biso   1.000  H
  H10      1.0000 0.39368  0.05566  0.34018  Biso   1.000  H
  H11      1.0000 0.39368  0.44434  0.84018  Biso   1.000  H
  H12      1.0000 0.60632  0.94434  0.65982  Biso   1.000  H
  C33      1.0000 0.61492  0.66031  0.99000  Biso   1.000  C
  C34      1.0000 0.38508  0.16031  0.51000  Biso   1.000  C
  C35      1.0000 0.38508  0.33969  0.01000  Biso   1.000  C
  C36      1.0000 0.61492  0.83969  0.49000  Biso   1.000  C
  H13      1.0000 0.54242  0.70852  0.98385  Biso   1.000  H
  H14      1.0000 0.45758  0.20852  0.51615  Biso   1.000  H
  H15      1.0000 0.45758  0.29148  0.01615  Biso   1.000  H
  H16      1.0000 0.54242  0.79148  0.48385  Biso   1.000  H
  C37      1.0000 0.67877  0.68125  0.89277  Biso   1.000  C
  C38      1.0000 0.32123  0.18125  0.60723  Biso   1.000  C
  C39      1.0000 0.32123  0.31875  0.10723  Biso   1.000  C
  C40      1.0000 0.67877  0.81875  0.39277  Biso   1.000  C
  H17      1.0000 0.65239  0.74178  0.81893  Biso   1.000  H
  H18      1.0000 0.34761  0.24178  0.68107  Biso   1.000  H
  H19      1.0000 0.34761  0.25822  0.18107  Biso   1.000  H
  H20      1.0000 0.65239  0.75822  0.31893  Biso   1.000  H
  C41      1.0000 0.66801  0.34974  0.42428  Biso   1.000  C
  C42      1.0000 0.33199  0.84974  0.07572  Biso   1.000  C
  C43      1.0000 0.33199  0.65026  0.57572  Biso   1.000  C
  C44      1.0000 0.66801  0.15026  0.92428  Biso   1.000  C
  H21      1.0000 0.60750  0.34523  0.47417  Biso   1.000  H
  H22      1.0000 0.39250  0.84523  0.02583  Biso   1.000  H
  H23      1.0000 0.39250  0.65477  0.52583  Biso   1.000  H
  H24      1.0000 0.60750  0.15477  0.97417  Biso   1.000  H
  H25      1.0000 0.68376  0.23701  0.39650  Biso   1.000  H
  H26      1.0000 0.31624  0.73701  0.10350  Biso   1.000  H
  H27      1.0000 0.31624  0.76299  0.60350  Biso   1.000  H
  H28      1.0000 0.68376  0.26299  0.89650  Biso   1.000  H
  H29      1.0000 0.64923  0.42196  0.35402  Biso   1.000  H
  H30      1.0000 0.35077  0.92196  0.14598  Biso   1.000  H
  H31      1.0000 0.35077  0.57804  0.64598  Biso   1.000  H
  H32      1.0000 0.64923  0.07804  0.85402  Biso   1.000  H
