data_image0
_cell_length_a       14.74
_cell_length_b       17.88
_cell_length_c       8.2
_cell_angle_alpha    90
_cell_angle_beta     114.52
_cell_angle_gamma    90

_symmetry_space_group_name_H-M    "P 1"
_symmetry_int_tables_number       1

loop_
  _symmetry_equiv_pos_as_xyz
  'x, y, z'

loop_
  _atom_site_label
  _atom_site_occupancy
  _atom_site_fract_x
  _atom_site_fract_y
  _atom_site_fract_z
  _atom_site_thermal_displace_type
  _atom_site_B_iso_or_equiv
  _atom_site_type_symbol
  Cu1      1.0000 0.70659  0.19415  0.04039  Biso   1.000  Cu
  Cu2      1.0000 0.20659  0.69415  0.04039  Biso   1.000  Cu
  Cu3      1.0000 0.29341  0.19415  0.45961  Biso   1.000  Cu
  Cu4      1.0000 0.79341  0.69415  0.45961  Biso   1.000  Cu
  Cu5      1.0000 0.29341  0.80585  0.95961  Biso   1.000  Cu
  Cu6      1.0000 0.79341  0.30585  0.95961  Biso   1.000  Cu
  Cu7      1.0000 0.70659  0.80585  0.54039  Biso   1.000  Cu
  Cu8      1.0000 0.20659  0.30585  0.54039  Biso   1.000  Cu
  Na1      1.0000 0.00000  0.39594  0.25000  Biso   1.000  Na
  Na2      1.0000 0.50000  0.89594  0.25000  Biso   1.000  Na
  Na3      1.0000 0.00000  0.60406  0.75000  Biso   1.000  Na
  Na4      1.0000 0.50000  0.10406  0.75000  Biso   1.000  Na
  O1       1.0000 0.07380  0.49440  0.14140  Biso   1.000  O
  O2       1.0000 0.57380  0.99440  0.14140  Biso   1.000  O
  O3       1.0000 0.92620  0.49440  0.35860  Biso   1.000  O
  O4       1.0000 0.42620  0.99440  0.35860  Biso   1.000  O
  O5       1.0000 0.92620  0.50560  0.85860  Biso   1.000  O
  O6       1.0000 0.42620  0.00560  0.85860  Biso   1.000  O
  O7       1.0000 0.07380  0.50560  0.64140  Biso   1.000  O
  O8       1.0000 0.57380  0.00560  0.64140  Biso   1.000  O
  O9       1.0000 0.78750  0.22270  0.29070  Biso   1.000  O
  O10      1.0000 0.28750  0.72270  0.29070  Biso   1.000  O
  O11      1.0000 0.21250  0.22270  0.20930  Biso   1.000  O
  O12      1.0000 0.71250  0.72270  0.20930  Biso   1.000  O
  O13      1.0000 0.21250  0.77730  0.70930  Biso   1.000  O
  O14      1.0000 0.71250  0.27730  0.70930  Biso   1.000  O
  O15      1.0000 0.78750  0.77730  0.79070  Biso   1.000  O
  O16      1.0000 0.28750  0.27730  0.79070  Biso   1.000  O
  O17      1.0000 0.81830  0.13500  0.03680  Biso   1.000  O
  O18      1.0000 0.31830  0.63500  0.03680  Biso   1.000  O
  O19      1.0000 0.18170  0.13500  0.46320  Biso   1.000  O
  O20      1.0000 0.68170  0.63500  0.46320  Biso   1.000  O
  O21      1.0000 0.18170  0.86500  0.96320  Biso   1.000  O
  O22      1.0000 0.68170  0.36500  0.96320  Biso   1.000  O
  O23      1.0000 0.81830  0.86500  0.53680  Biso   1.000  O
  O24      1.0000 0.31830  0.36500  0.53680  Biso   1.000  O
  O25      1.0000 0.89260  0.23040  0.96710  Biso   1.000  O
  O26      1.0000 0.39260  0.73040  0.96710  Biso   1.000  O
  O27      1.0000 0.10740  0.23040  0.53290  Biso   1.000  O
  O28      1.0000 0.60740  0.73040  0.53290  Biso   1.000  O
  O29      1.0000 0.10740  0.76960  0.03290  Biso   1.000  O
  O30      1.0000 0.60740  0.26960  0.03290  Biso   1.000  O
  O31      1.0000 0.89260  0.76960  0.46710  Biso   1.000  O
  O32      1.0000 0.39260  0.26960  0.46710  Biso   1.000  O
  O33      1.0000 0.11900  0.59880  0.06080  Biso   1.000  O
  O34      1.0000 0.61900  0.09880  0.06080  Biso   1.000  O
  O35      1.0000 0.88100  0.59880  0.43920  Biso   1.000  O
  O36      1.0000 0.38100  0.09880  0.43920  Biso   1.000  O
  O37      1.0000 0.88100  0.40120  0.93920  Biso   1.000  O
  O38      1.0000 0.38100  0.90120  0.93920  Biso   1.000  O
  O39      1.0000 0.11900  0.40120  0.56080  Biso   1.000  O
  O40      1.0000 0.61900  0.90120  0.56080  Biso   1.000  O
  O41      1.0000 0.86340  0.31680  0.22330  Biso   1.000  O
  O42      1.0000 0.36340  0.81680  0.22330  Biso   1.000  O
  O43      1.0000 0.13660  0.31680  0.27670  Biso   1.000  O
  O44      1.0000 0.63660  0.81680  0.27670  Biso   1.000  O
  O45      1.0000 0.13660  0.68320  0.77670  Biso   1.000  O
  O46      1.0000 0.63660  0.18320  0.77670  Biso   1.000  O
  O47      1.0000 0.86340  0.68320  0.72330  Biso   1.000  O
  O48      1.0000 0.36340  0.18320  0.72330  Biso   1.000  O
  C1       1.0000 0.89720  0.29640  0.52880  Biso   1.000  C
  C2       1.0000 0.39720  0.79640  0.52880  Biso   1.000  C
  C3       1.0000 0.10280  0.29640  0.97120  Biso   1.000  C
  C4       1.0000 0.60280  0.79640  0.97120  Biso   1.000  C
  C5       1.0000 0.10280  0.70360  0.47120  Biso   1.000  C
  C6       1.0000 0.60280  0.20360  0.47120  Biso   1.000  C
  C7       1.0000 0.89720  0.70360  0.02880  Biso   1.000  C
  C8       1.0000 0.39720  0.20360  0.02880  Biso   1.000  C
  H1       1.0000 0.87670  0.26300  0.59870  Biso   1.000  H
  H2       1.0000 0.37670  0.76300  0.59870  Biso   1.000  H
  H3       1.0000 0.12330  0.26300  0.90130  Biso   1.000  H
  H4       1.0000 0.62330  0.76300  0.90130  Biso   1.000  H
  H5       1.0000 0.12330  0.73700  0.40130  Biso   1.000  H
  H6       1.0000 0.62330  0.23700  0.40130  Biso   1.000  H
  H7       1.0000 0.87670  0.73700  0.09870  Biso   1.000  H
  H8       1.0000 0.37670  0.23700  0.09870  Biso   1.000  H
  H9       1.0000 0.96780  0.29210  0.56510  Biso   1.000  H
  H10      1.0000 0.46780  0.79210  0.56510  Biso   1.000  H
  H11      1.0000 0.03220  0.29210  0.93490  Biso   1.000  H
  H12      1.0000 0.53220  0.79210  0.93490  Biso   1.000  H
  H13      1.0000 0.03220  0.70790  0.43490  Biso   1.000  H
  H14      1.0000 0.53220  0.20790  0.43490  Biso   1.000  H
  H15      1.0000 0.96780  0.70790  0.06510  Biso   1.000  H
  H16      1.0000 0.46780  0.20790  0.06510  Biso   1.000  H
  H17      1.0000 0.88120  0.34690  0.54730  Biso   1.000  H
  H18      1.0000 0.38120  0.84690  0.54730  Biso   1.000  H
  H19      1.0000 0.11880  0.34690  0.95270  Biso   1.000  H
  H20      1.0000 0.61880  0.84690  0.95270  Biso   1.000  H
  H21      1.0000 0.11880  0.65310  0.45270  Biso   1.000  H
  H22      1.0000 0.61880  0.15310  0.45270  Biso   1.000  H
  H23      1.0000 0.88120  0.65310  0.04730  Biso   1.000  H
  H24      1.0000 0.38120  0.15310  0.04730  Biso   1.000  H
  C9       1.0000 0.84350  0.27670  0.33320  Biso   1.000  C
  C10      1.0000 0.34350  0.77670  0.33320  Biso   1.000  C
  C11      1.0000 0.15650  0.27670  0.16680  Biso   1.000  C
  C12      1.0000 0.65650  0.77670  0.16680  Biso   1.000  C
  C13      1.0000 0.15650  0.72330  0.66680  Biso   1.000  C
  C14      1.0000 0.65650  0.22330  0.66680  Biso   1.000  C
  C15      1.0000 0.84350  0.72330  0.83320  Biso   1.000  C
  C16      1.0000 0.34350  0.22330  0.83320  Biso   1.000  C
  C17      1.0000 0.13740  0.54600  0.16630  Biso   1.000  C
  C18      1.0000 0.63740  0.04600  0.16630  Biso   1.000  C
  C19      1.0000 0.86260  0.54600  0.33370  Biso   1.000  C
  C20      1.0000 0.36260  0.04600  0.33370  Biso   1.000  C
  C21      1.0000 0.86260  0.45400  0.83370  Biso   1.000  C
  C22      1.0000 0.36260  0.95400  0.83370  Biso   1.000  C
  C23      1.0000 0.13740  0.45400  0.66630  Biso   1.000  C
  C24      1.0000 0.63740  0.95400  0.66630  Biso   1.000  C
  C25      1.0000 0.23380  0.53940  0.32640  Biso   1.000  C
  C26      1.0000 0.73380  0.03940  0.32640  Biso   1.000  C
  C27      1.0000 0.76620  0.53940  0.17360  Biso   1.000  C
  C28      1.0000 0.26620  0.03940  0.17360  Biso   1.000  C
  C29      1.0000 0.76620  0.46060  0.67360  Biso   1.000  C
  C30      1.0000 0.26620  0.96060  0.67360  Biso   1.000  C
  C31      1.0000 0.23380  0.46060  0.82640  Biso   1.000  C
  C32      1.0000 0.73380  0.96060  0.82640  Biso   1.000  C
  H25      1.0000 0.27540  0.58140  0.33080  Biso   1.000  H
  H26      1.0000 0.77540  0.08140  0.33080  Biso   1.000  H
  H27      1.0000 0.72460  0.58140  0.16920  Biso   1.000  H
  H28      1.0000 0.22460  0.08140  0.16920  Biso   1.000  H
  H29      1.0000 0.72460  0.41860  0.66920  Biso   1.000  H
  H30      1.0000 0.22460  0.91860  0.66920  Biso   1.000  H
  H31      1.0000 0.27540  0.41860  0.83080  Biso   1.000  H
  H32      1.0000 0.77540  0.91860  0.83080  Biso   1.000  H
  H33      1.0000 0.22180  0.53870  0.43280  Biso   1.000  H
  H34      1.0000 0.72180  0.03870  0.43280  Biso   1.000  H
  H35      1.0000 0.77820  0.53870  0.06720  Biso   1.000  H
  H36      1.0000 0.27820  0.03870  0.06720  Biso   1.000  H
  H37      1.0000 0.77820  0.46130  0.56720  Biso   1.000  H
  H38      1.0000 0.27820  0.96130  0.56720  Biso   1.000  H
  H39      1.0000 0.22180  0.46130  0.93280  Biso   1.000  H
  H40      1.0000 0.72180  0.96130  0.93280  Biso   1.000  H
  H41      1.0000 0.26660  0.49400  0.31910  Biso   1.000  H
  H42      1.0000 0.76660  0.99400  0.31910  Biso   1.000  H
  H43      1.0000 0.73340  0.49400  0.18090  Biso   1.000  H
  H44      1.0000 0.23340  0.99400  0.18090  Biso   1.000  H
  H45      1.0000 0.73340  0.50600  0.68090  Biso   1.000  H
  H46      1.0000 0.23340  0.00600  0.68090  Biso   1.000  H
  H47      1.0000 0.26660  0.50600  0.81910  Biso   1.000  H
  H48      1.0000 0.76660  0.00600  0.81910  Biso   1.000  H
  C33      1.0000 0.88620  0.16330  0.99920  Biso   1.000  C
  C34      1.0000 0.38620  0.66330  0.99920  Biso   1.000  C
  C35      1.0000 0.11380  0.16330  0.50080  Biso   1.000  C
  C36      1.0000 0.61380  0.66330  0.50080  Biso   1.000  C
  C37      1.0000 0.11380  0.83670  0.00080  Biso   1.000  C
  C38      1.0000 0.61380  0.33670  0.00080  Biso   1.000  C
  C39      1.0000 0.88620  0.83670  0.49920  Biso   1.000  C
  C40      1.0000 0.38620  0.33670  0.49920  Biso   1.000  C
  C41      1.0000 0.96360  0.11200  0.99120  Biso   1.000  C
  C42      1.0000 0.46360  0.61200  0.99120  Biso   1.000  C
  C43      1.0000 0.03640  0.11200  0.50880  Biso   1.000  C
  C44      1.0000 0.53640  0.61200  0.50880  Biso   1.000  C
  C45      1.0000 0.03640  0.88800  0.00880  Biso   1.000  C
  C46      1.0000 0.53640  0.38800  0.00880  Biso   1.000  C
  C47      1.0000 0.96360  0.88800  0.49120  Biso   1.000  C
  C48      1.0000 0.46360  0.38800  0.49120  Biso   1.000  C
  H49      1.0000 0.01030  0.13990  0.96170  Biso   1.000  H
  H50      1.0000 0.51030  0.63990  0.96170  Biso   1.000  H
  H51      1.0000 0.98970  0.13990  0.53830  Biso   1.000  H
  H52      1.0000 0.48970  0.63990  0.53830  Biso   1.000  H
  H53      1.0000 0.98970  0.86010  0.03830  Biso   1.000  H
  H54      1.0000 0.48970  0.36010  0.03830  Biso   1.000  H
  H55      1.0000 0.01030  0.86010  0.46170  Biso   1.000  H
  H56      1.0000 0.51030  0.36010  0.46170  Biso   1.000  H
  H57      1.0000 0.93250  0.07460  0.90110  Biso   1.000  H
  H58      1.0000 0.43250  0.57460  0.90110  Biso   1.000  H
  H59      1.0000 0.06750  0.07460  0.59890  Biso   1.000  H
  H60      1.0000 0.56750  0.57460  0.59890  Biso   1.000  H
  H61      1.0000 0.06750  0.92540  0.09890  Biso   1.000  H
  H62      1.0000 0.56750  0.42540  0.09890  Biso   1.000  H
  H63      1.0000 0.93250  0.92540  0.40110  Biso   1.000  H
  H64      1.0000 0.43250  0.42540  0.40110  Biso   1.000  H
  H65      1.0000 0.99800  0.08820  0.10550  Biso   1.000  H
  H66      1.0000 0.49800  0.58820  0.10550  Biso   1.000  H
  H67      1.0000 0.00200  0.08820  0.39450  Biso   1.000  H
  H68      1.0000 0.50200  0.58820  0.39450  Biso   1.000  H
  H69      1.0000 0.00200  0.91180  0.89450  Biso   1.000  H
  H70      1.0000 0.50200  0.41180  0.89450  Biso   1.000  H
  H71      1.0000 0.99800  0.91180  0.60550  Biso   1.000  H
  H72      1.0000 0.49800  0.41180  0.60550  Biso   1.000  H
