data_image0
_cell_length_a       8.145
_cell_length_b       17.828
_cell_length_c       13.531
_cell_angle_alpha    90
_cell_angle_beta     98.7
_cell_angle_gamma    90

_symmetry_space_group_name_H-M    "P 1"
_symmetry_int_tables_number       1

loop_
  _symmetry_equiv_pos_as_xyz
  'x, y, z'

loop_
  _atom_site_label
  _atom_site_occupancy
  _atom_site_fract_x
  _atom_site_fract_y
  _atom_site_fract_z
  _atom_site_thermal_displace_type
  _atom_site_B_iso_or_equiv
  _atom_site_type_symbol
  Cu1      1.0000 0.16584  0.19416  0.20703  Biso   1.000  Cu
  Cu2      1.0000 0.33416  0.19416  0.79297  Biso   1.000  Cu
  Cu3      1.0000 0.66584  0.69416  0.70703  Biso   1.000  Cu
  Cu4      1.0000 0.83416  0.69416  0.29297  Biso   1.000  Cu
  Cu5      1.0000 0.83416  0.80584  0.79297  Biso   1.000  Cu
  Cu6      1.0000 0.66584  0.80584  0.20703  Biso   1.000  Cu
  Cu7      1.0000 0.33416  0.30584  0.29297  Biso   1.000  Cu
  Cu8      1.0000 0.16584  0.30584  0.70703  Biso   1.000  Cu
  Na1      1.0000 0.25000  0.39532  0.50000  Biso   1.000  Na
  Na2      1.0000 0.75000  0.89532  0.00000  Biso   1.000  Na
  Na3      1.0000 0.75000  0.60468  0.50000  Biso   1.000  Na
  Na4      1.0000 0.25000  0.10468  0.00000  Biso   1.000  Na
  O1       1.0000 0.99500  0.22220  0.28711  Biso   1.000  O
  O2       1.0000 0.50500  0.22220  0.71289  Biso   1.000  O
  O3       1.0000 0.49500  0.72220  0.78711  Biso   1.000  O
  O4       1.0000 0.00500  0.72220  0.21289  Biso   1.000  O
  O5       1.0000 0.00500  0.77780  0.71289  Biso   1.000  O
  O6       1.0000 0.49500  0.77780  0.28711  Biso   1.000  O
  O7       1.0000 0.50500  0.27780  0.21289  Biso   1.000  O
  O8       1.0000 0.99500  0.27780  0.78711  Biso   1.000  O
  O9       1.0000 0.13977  0.31703  0.36347  Biso   1.000  O
  O10      1.0000 0.36023  0.31703  0.63653  Biso   1.000  O
  O11      1.0000 0.63977  0.81703  0.86347  Biso   1.000  O
  O12      1.0000 0.86023  0.81703  0.13653  Biso   1.000  O
  O13      1.0000 0.86023  0.68297  0.63653  Biso   1.000  O
  O14      1.0000 0.63977  0.68297  0.36347  Biso   1.000  O
  O15      1.0000 0.36023  0.18297  0.13653  Biso   1.000  O
  O16      1.0000 0.13977  0.18297  0.86347  Biso   1.000  O
  O17      1.0000 0.07390  0.26908  0.10780  Biso   1.000  O
  O18      1.0000 0.42610  0.26908  0.89220  Biso   1.000  O
  O19      1.0000 0.57390  0.76908  0.60780  Biso   1.000  O
  O20      1.0000 0.92610  0.76908  0.39220  Biso   1.000  O
  O21      1.0000 0.92610  0.73092  0.89220  Biso   1.000  O
  O22      1.0000 0.57390  0.73092  0.10780  Biso   1.000  O
  O23      1.0000 0.42610  0.23092  0.39220  Biso   1.000  O
  O24      1.0000 0.07390  0.23092  0.60780  Biso   1.000  O
  O25      1.0000 0.22010  0.36498  0.18121  Biso   1.000  O
  O26      1.0000 0.27990  0.36498  0.81879  Biso   1.000  O
  O27      1.0000 0.72010  0.86498  0.68121  Biso   1.000  O
  O28      1.0000 0.77990  0.86498  0.31879  Biso   1.000  O
  O29      1.0000 0.77990  0.63502  0.81879  Biso   1.000  O
  O30      1.0000 0.72010  0.63502  0.18121  Biso   1.000  O
  O31      1.0000 0.27990  0.13502  0.31879  Biso   1.000  O
  O32      1.0000 0.22010  0.13502  0.68121  Biso   1.000  O
  O33      1.0000 0.55858  0.59937  0.61960  Biso   1.000  O
  O34      1.0000 0.94142  0.59937  0.38040  Biso   1.000  O
  O35      1.0000 0.05858  0.09937  0.11960  Biso   1.000  O
  O36      1.0000 0.44142  0.09937  0.88040  Biso   1.000  O
  O37      1.0000 0.44142  0.40063  0.38040  Biso   1.000  O
  O38      1.0000 0.05858  0.40063  0.61960  Biso   1.000  O
  O39      1.0000 0.94142  0.90063  0.88040  Biso   1.000  O
  O40      1.0000 0.55858  0.90063  0.11960  Biso   1.000  O
  O41      1.0000 0.43210  0.49340  0.57367  Biso   1.000  O
  O42      1.0000 0.06790  0.49340  0.42633  Biso   1.000  O
  O43      1.0000 0.93210  0.99340  0.07367  Biso   1.000  O
  O44      1.0000 0.56790  0.99340  0.92633  Biso   1.000  O
  O45      1.0000 0.56790  0.50660  0.42633  Biso   1.000  O
  O46      1.0000 0.93210  0.50660  0.57367  Biso   1.000  O
  O47      1.0000 0.06790  0.00660  0.92633  Biso   1.000  O
  O48      1.0000 0.43210  0.00660  0.07367  Biso   1.000  O
  C1       1.0000 0.01100  0.27727  0.34543  Biso   1.000  C
  C2       1.0000 0.48900  0.27727  0.65457  Biso   1.000  C
  C3       1.0000 0.51100  0.77727  0.84543  Biso   1.000  C
  C4       1.0000 0.98900  0.77727  0.15457  Biso   1.000  C
  C5       1.0000 0.98900  0.72273  0.65457  Biso   1.000  C
  C6       1.0000 0.51100  0.72273  0.34543  Biso   1.000  C
  C7       1.0000 0.48900  0.22273  0.15457  Biso   1.000  C
  C8       1.0000 0.01100  0.22273  0.84543  Biso   1.000  C
  C9       1.0000 0.86600  0.29706  0.39672  Biso   1.000  C
  C10      1.0000 0.63400  0.29706  0.60328  Biso   1.000  C
  C11      1.0000 0.36600  0.79706  0.89672  Biso   1.000  C
  C12      1.0000 0.13400  0.79706  0.10328  Biso   1.000  C
  C13      1.0000 0.13400  0.70294  0.60328  Biso   1.000  C
  C14      1.0000 0.36600  0.70294  0.39672  Biso   1.000  C
  C15      1.0000 0.63400  0.20294  0.10328  Biso   1.000  C
  C16      1.0000 0.86600  0.20294  0.89672  Biso   1.000  C
  C17      1.0000 0.11430  0.33686  0.11407  Biso   1.000  C
  C18      1.0000 0.38570  0.33686  0.88593  Biso   1.000  C
  C19      1.0000 0.61430  0.83686  0.61407  Biso   1.000  C
  C20      1.0000 0.88570  0.83686  0.38593  Biso   1.000  C
  C21      1.0000 0.88570  0.66314  0.88593  Biso   1.000  C
  C22      1.0000 0.61430  0.66314  0.11407  Biso   1.000  C
  C23      1.0000 0.38570  0.16314  0.38593  Biso   1.000  C
  C24      1.0000 0.11430  0.16314  0.61407  Biso   1.000  C
  C25      1.0000 0.03030  0.38903  0.03460  Biso   1.000  C
  C26      1.0000 0.46970  0.38903  0.96540  Biso   1.000  C
  C27      1.0000 0.53030  0.88903  0.53460  Biso   1.000  C
  C28      1.0000 0.96970  0.88903  0.46540  Biso   1.000  C
  C29      1.0000 0.96970  0.61097  0.96540  Biso   1.000  C
  C30      1.0000 0.53030  0.61097  0.03460  Biso   1.000  C
  C31      1.0000 0.46970  0.11097  0.46540  Biso   1.000  C
  C32      1.0000 0.03030  0.11097  0.53460  Biso   1.000  C
  C33      1.0000 0.47020  0.54603  0.63705  Biso   1.000  C
  C34      1.0000 0.02980  0.54603  0.36295  Biso   1.000  C
  C35      1.0000 0.97020  0.04603  0.13705  Biso   1.000  C
  C36      1.0000 0.52980  0.04603  0.86295  Biso   1.000  C
  C37      1.0000 0.52980  0.45397  0.36295  Biso   1.000  C
  C38      1.0000 0.97020  0.45397  0.63705  Biso   1.000  C
  C39      1.0000 0.02980  0.95397  0.86295  Biso   1.000  C
  C40      1.0000 0.47020  0.95397  0.13705  Biso   1.000  C
  C41      1.0000 0.40530  0.53963  0.73390  Biso   1.000  C
  C42      1.0000 0.09470  0.53963  0.26610  Biso   1.000  C
  C43      1.0000 0.90530  0.03963  0.23390  Biso   1.000  C
  C44      1.0000 0.59470  0.03963  0.76610  Biso   1.000  C
  C45      1.0000 0.59470  0.46037  0.26610  Biso   1.000  C
  C46      1.0000 0.90530  0.46037  0.73390  Biso   1.000  C
  C47      1.0000 0.09470  0.96037  0.76610  Biso   1.000  C
  C48      1.0000 0.40530  0.96037  0.23390  Biso   1.000  C
  H1       1.0000 0.76800  0.27900  0.36300  Biso   1.000  H
  H2       1.0000 0.73200  0.27900  0.63700  Biso   1.000  H
  H3       1.0000 0.26800  0.77900  0.86300  Biso   1.000  H
  H4       1.0000 0.23200  0.77900  0.13700  Biso   1.000  H
  H5       1.0000 0.23200  0.72100  0.63700  Biso   1.000  H
  H6       1.0000 0.26800  0.72100  0.36300  Biso   1.000  H
  H7       1.0000 0.73200  0.22100  0.13700  Biso   1.000  H
  H8       1.0000 0.76800  0.22100  0.86300  Biso   1.000  H
  H9       1.0000 0.85200  0.34500  0.39500  Biso   1.000  H
  H10      1.0000 0.64800  0.34500  0.60500  Biso   1.000  H
  H11      1.0000 0.35200  0.84500  0.89500  Biso   1.000  H
  H12      1.0000 0.14800  0.84500  0.10500  Biso   1.000  H
  H13      1.0000 0.14800  0.65500  0.60500  Biso   1.000  H
  H14      1.0000 0.35200  0.65500  0.39500  Biso   1.000  H
  H15      1.0000 0.64800  0.15500  0.10500  Biso   1.000  H
  H16      1.0000 0.85200  0.15500  0.89500  Biso   1.000  H
  H17      1.0000 0.88700  0.28400  0.46000  Biso   1.000  H
  H18      1.0000 0.61300  0.28400  0.54000  Biso   1.000  H
  H19      1.0000 0.38700  0.78400  0.96000  Biso   1.000  H
  H20      1.0000 0.11300  0.78400  0.04000  Biso   1.000  H
  H21      1.0000 0.11300  0.71600  0.54000  Biso   1.000  H
  H22      1.0000 0.38700  0.71600  0.46000  Biso   1.000  H
  H23      1.0000 0.61300  0.21600  0.04000  Biso   1.000  H
  H24      1.0000 0.88700  0.21600  0.96000  Biso   1.000  H
  H25      1.0000 0.06100  0.43500  0.04300  Biso   1.000  H
  H26      1.0000 0.43900  0.43500  0.95700  Biso   1.000  H
  H27      1.0000 0.56100  0.93500  0.54300  Biso   1.000  H
  H28      1.0000 0.93900  0.93500  0.45700  Biso   1.000  H
  H29      1.0000 0.93900  0.56500  0.95700  Biso   1.000  H
  H30      1.0000 0.56100  0.56500  0.04300  Biso   1.000  H
  H31      1.0000 0.43900  0.06500  0.45700  Biso   1.000  H
  H32      1.0000 0.06100  0.06500  0.54300  Biso   1.000  H
  H33      1.0000 0.99600  0.36800  0.97600  Biso   1.000  H
  H34      1.0000 0.50400  0.36800  0.02400  Biso   1.000  H
  H35      1.0000 0.49600  0.86800  0.47600  Biso   1.000  H
  H36      1.0000 0.00400  0.86800  0.52400  Biso   1.000  H
  H37      1.0000 0.00400  0.63200  0.02400  Biso   1.000  H
  H38      1.0000 0.49600  0.63200  0.97600  Biso   1.000  H
  H39      1.0000 0.50400  0.13200  0.52400  Biso   1.000  H
  H40      1.0000 0.99600  0.13200  0.47600  Biso   1.000  H
  H41      1.0000 0.92300  0.39100  0.04300  Biso   1.000  H
  H42      1.0000 0.57700  0.39100  0.95700  Biso   1.000  H
  H43      1.0000 0.42300  0.89100  0.54300  Biso   1.000  H
  H44      1.0000 0.07700  0.89100  0.45700  Biso   1.000  H
  H45      1.0000 0.07700  0.60900  0.95700  Biso   1.000  H
  H46      1.0000 0.42300  0.60900  0.04300  Biso   1.000  H
  H47      1.0000 0.57700  0.10900  0.45700  Biso   1.000  H
  H48      1.0000 0.92300  0.10900  0.54300  Biso   1.000  H
  H49      1.0000 0.30700  0.54700  0.72300  Biso   1.000  H
  H50      1.0000 0.19300  0.54700  0.27700  Biso   1.000  H
  H51      1.0000 0.80700  0.04700  0.22300  Biso   1.000  H
  H52      1.0000 0.69300  0.04700  0.77700  Biso   1.000  H
  H53      1.0000 0.69300  0.45300  0.27700  Biso   1.000  H
  H54      1.0000 0.80700  0.45300  0.72300  Biso   1.000  H
  H55      1.0000 0.19300  0.95300  0.77700  Biso   1.000  H
  H56      1.0000 0.30700  0.95300  0.22300  Biso   1.000  H
  H57      1.0000 0.39400  0.49500  0.75200  Biso   1.000  H
  H58      1.0000 0.10600  0.49500  0.24800  Biso   1.000  H
  H59      1.0000 0.89400  0.99500  0.25200  Biso   1.000  H
  H60      1.0000 0.60600  0.99500  0.74800  Biso   1.000  H
  H61      1.0000 0.60600  0.50500  0.24800  Biso   1.000  H
  H62      1.0000 0.89400  0.50500  0.75200  Biso   1.000  H
  H63      1.0000 0.10600  0.00500  0.74800  Biso   1.000  H
  H64      1.0000 0.39400  0.00500  0.25200  Biso   1.000  H
  H65      1.0000 0.43800  0.57200  0.77900  Biso   1.000  H
  H66      1.0000 0.06200  0.57200  0.22100  Biso   1.000  H
  H67      1.0000 0.93800  0.07200  0.27900  Biso   1.000  H
  H68      1.0000 0.56200  0.07200  0.72100  Biso   1.000  H
  H69      1.0000 0.56200  0.42800  0.22100  Biso   1.000  H
  H70      1.0000 0.93800  0.42800  0.77900  Biso   1.000  H
  H71      1.0000 0.06200  0.92800  0.72100  Biso   1.000  H
  H72      1.0000 0.43800  0.92800  0.27900  Biso   1.000  H
  H73      1.0000 0.50100  0.00100  0.01300  Biso   1.000  H
  H74      1.0000 0.99900  0.00100  0.98700  Biso   1.000  H
  H75      1.0000 0.00100  0.50100  0.51300  Biso   1.000  H
  H76      1.0000 0.49900  0.50100  0.48700  Biso   1.000  H
  H77      1.0000 0.49900  0.99900  0.98700  Biso   1.000  H
  H78      1.0000 0.00100  0.99900  0.01300  Biso   1.000  H
  H79      1.0000 0.99900  0.49900  0.48700  Biso   1.000  H
  H80      1.0000 0.50100  0.49900  0.51300  Biso   1.000  H
