data_image0
_cell_length_a       9.9884
_cell_length_b       17.0223
_cell_length_c       19.465
_cell_angle_alpha    75.95
_cell_angle_beta     84.262
_cell_angle_gamma    80.032

_symmetry_space_group_name_H-M    "P 1"
_symmetry_int_tables_number       1

loop_
  _symmetry_equiv_pos_as_xyz
  'x, y, z'

loop_
  _atom_site_label
  _atom_site_occupancy
  _atom_site_fract_x
  _atom_site_fract_y
  _atom_site_fract_z
  _atom_site_thermal_displace_type
  _atom_site_B_iso_or_equiv
  _atom_site_type_symbol
  Cu1      1.0000 0.36763  0.16326  0.19289  Biso   1.000  Cu
  Cu2      1.0000 0.63237  0.83674  0.80711  Biso   1.000  Cu
  Cu3      1.0000 0.65308  0.23319  0.15350  Biso   1.000  Cu
  Cu4      1.0000 0.34692  0.76681  0.84650  Biso   1.000  Cu
  Cu5      1.0000 0.40536  0.28619  0.04489  Biso   1.000  Cu
  Cu6      1.0000 0.59464  0.71381  0.95511  Biso   1.000  Cu
  Cu7      1.0000 0.82087  0.75796  0.35132  Biso   1.000  Cu
  Cu8      1.0000 0.17913  0.24204  0.64868  Biso   1.000  Cu
  Cu9      1.0000 0.08917  0.70966  0.44508  Biso   1.000  Cu
  Cu10     1.0000 0.91083  0.29034  0.55492  Biso   1.000  Cu
  Cu11     1.0000 0.10298  0.83011  0.29416  Biso   1.000  Cu
  Cu12     1.0000 0.89702  0.16989  0.70584  Biso   1.000  Cu
  O1       1.0000 0.50400  0.19940  0.11690  Biso   1.000  O
  O2       1.0000 0.49600  0.80060  0.88310  Biso   1.000  O
  H1       1.0000 0.54110  0.15320  0.09530  Biso   1.000  H
  H2       1.0000 0.45890  0.84680  0.90470  Biso   1.000  H
  O3       1.0000 0.97970  0.79420  0.37680  Biso   1.000  O
  O4       1.0000 0.02030  0.20580  0.62320  Biso   1.000  O
  H3       1.0000 0.94780  0.84090  0.39840  Biso   1.000  H
  H4       1.0000 0.05220  0.15910  0.60160  Biso   1.000  H
  O5       1.0000 0.24920  0.22780  0.05300  Biso   1.000  O
  O6       1.0000 0.75080  0.77220  0.94700  Biso   1.000  O
  O7       1.0000 0.50310  0.12120  0.26460  Biso   1.000  O
  O8       1.0000 0.49690  0.87880  0.73540  Biso   1.000  O
  O9       1.0000 0.66510  0.32980  0.07480  Biso   1.000  O
  O10      1.0000 0.33490  0.67020  0.92520  Biso   1.000  O
  O11      1.0000 0.95470  0.86460  0.22860  Biso   1.000  O
  O12      1.0000 0.04530  0.13540  0.77140  Biso   1.000  O
  O13      1.0000 0.81880  0.66590  0.43620  Biso   1.000  O
  O14      1.0000 0.18120  0.33410  0.56380  Biso   1.000  O
  O15      1.0000 0.24320  0.77080  0.42800  Biso   1.000  O
  O16      1.0000 0.75680  0.22920  0.57200  Biso   1.000  O
  O17      1.0000 0.29690  0.36820  0.11420  Biso   1.000  O
  O18      1.0000 0.70310  0.63180  0.88580  Biso   1.000  O
  O19      1.0000 0.34080  0.28620  0.22070  Biso   1.000  O
  O20      1.0000 0.65920  0.71380  0.77930  Biso   1.000  O
  O21      1.0000 0.13540  0.70780  0.26640  Biso   1.000  O
  O22      1.0000 0.86460  0.29220  0.73360  Biso   1.000  O
  O23      1.0000 0.16480  0.62440  0.37330  Biso   1.000  O
  O24      1.0000 0.83520  0.37560  0.62670  Biso   1.000  O
  O25      1.0000 0.66050  0.08920  0.06100  Biso   1.000  O
  O26      1.0000 0.33950  0.91080  0.93900  Biso   1.000  O
  O27      1.0000 0.81150  0.15120  0.09660  Biso   1.000  O
  O28      1.0000 0.18850  0.84880  0.90340  Biso   1.000  O
  O29      1.0000 0.66920  0.84740  0.40030  Biso   1.000  O
  O30      1.0000 0.33080  0.15260  0.59970  Biso   1.000  O
  O31      1.0000 0.82970  0.90550  0.43270  Biso   1.000  O
  O32      1.0000 0.17030  0.09450  0.56730  Biso   1.000  O
  N1       1.0000 0.21940  0.10780  0.25240  Biso   1.000  N
  N2       1.0000 0.78060  0.89220  0.74760  Biso   1.000  N
  N3       1.0000 0.23230  0.18600  0.12030  Biso   1.000  N
  N4       1.0000 0.76770  0.81400  0.87970  Biso   1.000  N
  N5       1.0000 0.60580  0.16750  0.24850  Biso   1.000  N
  N6       1.0000 0.39420  0.83250  0.75150  Biso   1.000  N
  N7       1.0000 0.78510  0.26290  0.20890  Biso   1.000  N
  N8       1.0000 0.21490  0.73710  0.79110  Biso   1.000  N
  N9       1.0000 0.56450  0.34540  0.03080  Biso   1.000  N
  N10      1.0000 0.43550  0.65460  0.96920  Biso   1.000  N
  N11      1.0000 0.35520  0.36770  0.95450  Biso   1.000  N
  N12      1.0000 0.64480  0.63230  0.04550  Biso   1.000  N
  N13      1.0000 0.85780  0.81700  0.25230  Biso   1.000  N
  N14      1.0000 0.14220  0.18300  0.74770  Biso   1.000  N
  N15      1.0000 0.67850  0.72260  0.30670  Biso   1.000  N
  N16      1.0000 0.32150  0.27740  0.69330  Biso   1.000  N
  N17      1.0000 0.92950  0.65070  0.47320  Biso   1.000  N
  N18      1.0000 0.07050  0.34930  0.52680  Biso   1.000  N
  N19      1.0000 0.15660  0.63220  0.53360  Biso   1.000  N
  N20      1.0000 0.84340  0.36780  0.46640  Biso   1.000  N
  N21      1.0000 0.24800  0.81390  0.36030  Biso   1.000  N
  N22      1.0000 0.75200  0.18610  0.63970  Biso   1.000  N
  N23      1.0000 0.23870  0.89050  0.22830  Biso   1.000  N
  N24      1.0000 0.76130  0.10950  0.77170  Biso   1.000  N
  C1       1.0000 0.21920  0.06760  0.32030  Biso   1.000  C
  C2       1.0000 0.78080  0.93240  0.67970  Biso   1.000  C
  H5       1.0000 0.29430  0.06580  0.34560  Biso   1.000  H
  H6       1.0000 0.70570  0.93420  0.65440  Biso   1.000  H
  C3       1.0000 0.11290  0.02830  0.35490  Biso   1.000  C
  C4       1.0000 0.88710  0.97170  0.64510  Biso   1.000  C
  H7       1.0000 0.11490  0.00210  0.40270  Biso   1.000  H
  H8       1.0000 0.88510  0.99790  0.59730  Biso   1.000  H
  C5       1.0000 0.00250  0.02920  0.31600  Biso   1.000  C
  C6       1.0000 0.99750  0.97080  0.68400  Biso   1.000  C
  H9       1.0000 0.93020  0.00240  0.33740  Biso   1.000  H
  H10      1.0000 0.06980  0.99760  0.66260  Biso   1.000  H
  C7       1.0000 0.00160  0.06960  0.24640  Biso   1.000  C
  C8       1.0000 0.99840  0.93040  0.75360  Biso   1.000  C
  H11      1.0000 0.92860  0.07030  0.21990  Biso   1.000  H
  H12      1.0000 0.07140  0.92970  0.78010  Biso   1.000  H
  C9       1.0000 0.10970  0.10960  0.21520  Biso   1.000  C
  C10      1.0000 0.89030  0.89040  0.78480  Biso   1.000  C
  C11      1.0000 0.12000  0.15610  0.14210  Biso   1.000  C
  C12      1.0000 0.88000  0.84390  0.85790  Biso   1.000  C
  H13      1.0000 0.04940  0.16410  0.11220  Biso   1.000  H
  H14      1.0000 0.95060  0.83590  0.88780  Biso   1.000  H
  C13      1.0000 0.87690  0.31320  0.18530  Biso   1.000  C
  C14      1.0000 0.12310  0.68680  0.81470  Biso   1.000  C
  H15      1.0000 0.87960  0.34030  0.13770  Biso   1.000  H
  H16      1.0000 0.12040  0.65970  0.86230  Biso   1.000  H
  C15      1.0000 0.96860  0.32680  0.22860  Biso   1.000  C
  C16      1.0000 0.03140  0.67320  0.77140  Biso   1.000  C
  H17      1.0000 0.03160  0.36220  0.21070  Biso   1.000  H
  H18      1.0000 0.96840  0.63780  0.78930  Biso   1.000  H
  C17      1.0000 0.96320  0.28590  0.29950  Biso   1.000  C
  C18      1.0000 0.03680  0.71410  0.70050  Biso   1.000  C
  H19      1.0000 0.02440  0.29290  0.32970  Biso   1.000  H
  H20      1.0000 0.97560  0.70710  0.67030  Biso   1.000  H
  C19      1.0000 0.86790  0.23540  0.32510  Biso   1.000  C
  C20      1.0000 0.13210  0.76460  0.67490  Biso   1.000  C
  H21      1.0000 0.86250  0.20920  0.37290  Biso   1.000  H
  H22      1.0000 0.13750  0.79080  0.62710  Biso   1.000  H
  C21      1.0000 0.77920  0.22320  0.27900  Biso   1.000  C
  C22      1.0000 0.22080  0.77680  0.72100  Biso   1.000  C
  C23      1.0000 0.67580  0.17070  0.29900  Biso   1.000  C
  C24      1.0000 0.32420  0.82930  0.70100  Biso   1.000  C
  H23      1.0000 0.66120  0.14120  0.34530  Biso   1.000  H
  H24      1.0000 0.33880  0.85880  0.65470  Biso   1.000  H
  C25      1.0000 0.24500  0.37760  0.91810  Biso   1.000  C
  C26      1.0000 0.75500  0.62240  0.08190  Biso   1.000  C
  H25      1.0000 0.18350  0.34080  0.93330  Biso   1.000  H
  H26      1.0000 0.81650  0.65920  0.06670  Biso   1.000  H
  C27      1.0000 0.21780  0.44110  0.85800  Biso   1.000  C
  C28      1.0000 0.78220  0.55890  0.14200  Biso   1.000  C
  H27      1.0000 0.14090  0.44630  0.83300  Biso   1.000  H
  H28      1.0000 0.85910  0.55370  0.16700  Biso   1.000  H
  C29      1.0000 0.31020  0.49610  0.83700  Biso   1.000  C
  C30      1.0000 0.68980  0.50390  0.16300  Biso   1.000  C
  H29      1.0000 0.29450  0.53990  0.79800  Biso   1.000  H
  H30      1.0000 0.70550  0.46010  0.20200  Biso   1.000  H
  C31      1.0000 0.42270  0.48600  0.87310  Biso   1.000  C
  C32      1.0000 0.57730  0.51400  0.12690  Biso   1.000  C
  H31      1.0000 0.48550  0.52210  0.85830  Biso   1.000  H
  H32      1.0000 0.51450  0.47790  0.14170  Biso   1.000  H
  C33      1.0000 0.44490  0.42220  0.93220  Biso   1.000  C
  C34      1.0000 0.55510  0.57780  0.06780  Biso   1.000  C
  C35      1.0000 0.55800  0.40750  0.97590  Biso   1.000  C
  C36      1.0000 0.44200  0.59250  0.02410  Biso   1.000  C
  H33      1.0000 0.62480  0.44130  0.96540  Biso   1.000  H
  H34      1.0000 0.37520  0.55870  0.03460  Biso   1.000  H
  C37      1.0000 0.58770  0.67460  0.33870  Biso   1.000  C
  C38      1.0000 0.41230  0.32540  0.66130  Biso   1.000  C
  H35      1.0000 0.58990  0.65280  0.38740  Biso   1.000  H
  H36      1.0000 0.41010  0.34720  0.61260  Biso   1.000  H
  C39      1.0000 0.48990  0.65590  0.30180  Biso   1.000  C
  C40      1.0000 0.51010  0.34410  0.69820  Biso   1.000  C
  H37      1.0000 0.42850  0.62150  0.32530  Biso   1.000  H
  H38      1.0000 0.57150  0.37850  0.67470  Biso   1.000  H
  C41      1.0000 0.48530  0.68830  0.23150  Biso   1.000  C
  C42      1.0000 0.51470  0.31170  0.76850  Biso   1.000  C
  H39      1.0000 0.41990  0.67640  0.20640  Biso   1.000  H
  H40      1.0000 0.58010  0.32360  0.79360  Biso   1.000  H
  C43      1.0000 0.57780  0.73950  0.19590  Biso   1.000  C
  C44      1.0000 0.42220  0.26050  0.80410  Biso   1.000  C
  H41      1.0000 0.57570  0.76170  0.14730  Biso   1.000  H
  H42      1.0000 0.42430  0.23830  0.85270  Biso   1.000  H
  C45      1.0000 0.67510  0.75630  0.23680  Biso   1.000  C
  C46      1.0000 0.32490  0.24370  0.76320  Biso   1.000  C
  C47      1.0000 0.77660  0.80910  0.20720  Biso   1.000  C
  C48      1.0000 0.22340  0.19090  0.79280  Biso   1.000  C
  H43      1.0000 0.78280  0.83540  0.15950  Biso   1.000  H
  H44      1.0000 0.21720  0.16460  0.84050  Biso   1.000  H
  C49      1.0000 0.27350  0.62450  0.56340  Biso   1.000  C
  C50      1.0000 0.72650  0.37550  0.43660  Biso   1.000  C
  H45      1.0000 0.33360  0.66090  0.54280  Biso   1.000  H
  H46      1.0000 0.66640  0.33910  0.45720  Biso   1.000  H
  C51      1.0000 0.31020  0.56530  0.62320  Biso   1.000  C
  C52      1.0000 0.68980  0.43470  0.37680  Biso   1.000  C
  H47      1.0000 0.39240  0.56250  0.64290  Biso   1.000  H
  H48      1.0000 0.60760  0.43750  0.35710  Biso   1.000  H
  C53      1.0000 0.22300  0.51050  0.65320  Biso   1.000  C
  C54      1.0000 0.77700  0.48950  0.34680  Biso   1.000  C
  H49      1.0000 0.24510  0.47000  0.69370  Biso   1.000  H
  H50      1.0000 0.75490  0.53000  0.30630  Biso   1.000  H
  C55      1.0000 0.10250  0.51660  0.62240  Biso   1.000  C
  C56      1.0000 0.89750  0.48340  0.37760  Biso   1.000  C
  H51      1.0000 0.04350  0.47880  0.64080  Biso   1.000  H
  H52      1.0000 0.95650  0.52120  0.35920  Biso   1.000  H
  C57      1.0000 0.07010  0.57920  0.56390  Biso   1.000  C
  C58      1.0000 0.92990  0.42080  0.43610  Biso   1.000  C
  C59      1.0000 0.94620  0.59060  0.52780  Biso   1.000  C
  C60      1.0000 0.05380  0.40940  0.47220  Biso   1.000  C
  H53      1.0000 0.88130  0.55600  0.54350  Biso   1.000  H
  H54      1.0000 0.11870  0.44400  0.45650  Biso   1.000  H
  C61      1.0000 0.23280  0.92770  0.16070  Biso   1.000  C
  C62      1.0000 0.76720  0.07230  0.83930  Biso   1.000  C
  H55      1.0000 0.15520  0.92730  0.13800  Biso   1.000  H
  H56      1.0000 0.84480  0.07270  0.86200  Biso   1.000  H
  C63      1.0000 0.33490  0.96720  0.12130  Biso   1.000  C
  C64      1.0000 0.66510  0.03280  0.87870  Biso   1.000  C
  H57      1.0000 0.32800  0.99070  0.07310  Biso   1.000  H
  H58      1.0000 0.67200  0.00930  0.92690  Biso   1.000  H
  C65      1.0000 0.44660  0.97070  0.15540  Biso   1.000  C
  C66      1.0000 0.55340  0.02930  0.84460  Biso   1.000  C
  H59      1.0000 0.51510  0.99850  0.13020  Biso   1.000  H
  H60      1.0000 0.48490  0.00150  0.86980  Biso   1.000  H
  C67      1.0000 0.45930  0.93390  0.22610  Biso   1.000  C
  C68      1.0000 0.54070  0.06610  0.77390  Biso   1.000  C
  H61      1.0000 0.53520  0.93600  0.24930  Biso   1.000  H
  H62      1.0000 0.46480  0.06400  0.75070  Biso   1.000  H
  C69      1.0000 0.35380  0.89370  0.26140  Biso   1.000  C
  C70      1.0000 0.64620  0.10630  0.73860  Biso   1.000  C
  C71      1.0000 0.35370  0.84820  0.33550  Biso   1.000  C
  C72      1.0000 0.64630  0.15180  0.66450  Biso   1.000  C
  H63      1.0000 0.42620  0.84410  0.36330  Biso   1.000  H
  H64      1.0000 0.57380  0.15590  0.63670  Biso   1.000  H
  C73      1.0000 0.30370  0.35560  0.18040  Biso   1.000  C
  C74      1.0000 0.69630  0.64440  0.81960  Biso   1.000  C
  C75      1.0000 0.26810  0.42870  0.21370  Biso   1.000  C
  C76      1.0000 0.73190  0.57130  0.78630  Biso   1.000  C
  C77      1.0000 0.19370  0.50060  0.17790  Biso   1.000  C
  C78      1.0000 0.80630  0.49940  0.82210  Biso   1.000  C
  H65      1.0000 0.16590  0.50390  0.13290  Biso   1.000  H
  H66      1.0000 0.83410  0.49610  0.86710  Biso   1.000  H
  C79      1.0000 0.16010  0.56780  0.20790  Biso   1.000  C
  C80      1.0000 0.83990  0.43220  0.79210  Biso   1.000  C
  H67      1.0000 0.11020  0.61570  0.18290  Biso   1.000  H
  H68      1.0000 0.88980  0.38430  0.81710  Biso   1.000  H
  C81      1.0000 0.19950  0.56440  0.27330  Biso   1.000  C
  C82      1.0000 0.80050  0.43560  0.72670  Biso   1.000  C
  C83      1.0000 0.27210  0.49350  0.31070  Biso   1.000  C
  C84      1.0000 0.72790  0.50650  0.68930  Biso   1.000  C
  H69      1.0000 0.29830  0.49050  0.35590  Biso   1.000  H
  H70      1.0000 0.70170  0.50950  0.64410  Biso   1.000  H
  C85      1.0000 0.30610  0.42590  0.28010  Biso   1.000  C
  C86      1.0000 0.69390  0.57410  0.71990  Biso   1.000  C
  H71      1.0000 0.35560  0.37800  0.30530  Biso   1.000  H
  H72      1.0000 0.64440  0.62200  0.69470  Biso   1.000  H
  C87      1.0000 0.16310  0.63850  0.30750  Biso   1.000  C
  C88      1.0000 0.83690  0.36150  0.69250  Biso   1.000  C
  C89      1.0000 0.78110  0.10060  0.06520  Biso   1.000  C
  C90      1.0000 0.21890  0.89940  0.93480  Biso   1.000  C
  C91      1.0000 0.89510  0.04850  0.03160  Biso   1.000  C
  C92      1.0000 0.10490  0.95150  0.96840  Biso   1.000  C
  C93      1.0000 0.88010  0.97030  0.02780  Biso   1.000  C
  C94      1.0000 0.11990  0.02970  0.97220  Biso   1.000  C
  H73      1.0000 0.80050  0.94950  0.04620  Biso   1.000  H
  H74      1.0000 0.19950  0.05050  0.95380  Biso   1.000  H
  C95      1.0000 0.01540  0.07690  0.00360  Biso   1.000  C
  C96      1.0000 0.98460  0.92310  0.99640  Biso   1.000  C
  H75      1.0000 0.02670  0.12930  0.00590  Biso   1.000  H
  H76      1.0000 0.97330  0.87070  0.99410  Biso   1.000  H
  C97      1.0000 0.70600  0.89670  0.43040  Biso   1.000  C
  C98      1.0000 0.29400  0.10330  0.56960  Biso   1.000  C
  C99      1.0000 0.59800  0.94940  0.46780  Biso   1.000  C
  C100     1.0000 0.40200  0.05060  0.53220  Biso   1.000  C
  C101     1.0000 0.46620  0.93290  0.48160  Biso   1.000  C
  C102     1.0000 0.53380  0.06710  0.51840  Biso   1.000  C
  H77      1.0000 0.44250  0.88810  0.46900  Biso   1.000  H
  H78      1.0000 0.55750  0.11190  0.53100  Biso   1.000  H
  C103     1.0000 0.63080  0.01730  0.48580  Biso   1.000  C
  C104     1.0000 0.36920  0.98270  0.51420  Biso   1.000  C
  H79      1.0000 0.71890  0.02960  0.47590  Biso   1.000  H
  H80      1.0000 0.28110  0.97040  0.52410  Biso   1.000  H
  O33      1.0000 0.03160  0.42090  0.04530  Biso   1.000  O
  O34      1.0000 0.96840  0.57910  0.95470  Biso   1.000  O
  O35      1.0000 0.91390  0.31710  0.98040  Biso   1.000  O
  O36      1.0000 0.08610  0.68290  0.01960  Biso   1.000  O
  O37      1.0000 0.58600  0.68880  0.53850  Biso   1.000  O
  O38      1.0000 0.41400  0.31120  0.46150  Biso   1.000  O
  O39      1.0000 0.40630  0.13010  0.96790  Biso   1.000  O
  O40      1.0000 0.59370  0.86990  0.03210  Biso   1.000  O
  O41      1.0000 0.08500  0.87890  0.51310  Biso   1.000  O
  O42      1.0000 0.91500  0.12110  0.48690  Biso   1.000  O
  O43      1.0000 0.68400  0.77380  0.62790  Biso   1.000  O
  O44      1.0000 0.31600  0.22620  0.37210  Biso   1.000  O
  O45      1.0000 0.20610  0.75630  0.11430  Biso   1.000  O
  O46      1.0000 0.79390  0.24370  0.88570  Biso   1.000  O
  O47      1.0000 0.09700  0.76490  0.12370  Biso   1.000  O
  O48      1.0000 0.90300  0.23510  0.87630  Biso   1.000  O
  O49      1.0000 0.55390  0.19690  0.95130  Biso   1.000  O
  O50      1.0000 0.44610  0.80310  0.04870  Biso   1.000  O
  O51      1.0000 0.94800  0.81540  0.54560  Biso   1.000  O
  O52      1.0000 0.05200  0.18460  0.45440  Biso   1.000  O
