data_image0
_cell_length_a       15.114
_cell_length_b       15.516
_cell_length_c       6.873
_cell_angle_alpha    90
_cell_angle_beta     90
_cell_angle_gamma    90

_symmetry_space_group_name_H-M    "P 1"
_symmetry_int_tables_number       1

loop_
  _symmetry_equiv_pos_as_xyz
  'x, y, z'

loop_
  _atom_site_label
  _atom_site_occupancy
  _atom_site_fract_x
  _atom_site_fract_y
  _atom_site_fract_z
  _atom_site_thermal_displace_type
  _atom_site_B_iso_or_equiv
  _atom_site_type_symbol
  Cu1      1.0000 0.37589  0.03635  0.87050  Biso   1.000  Cu
  Cu2      1.0000 0.12411  0.96365  0.37050  Biso   1.000  Cu
  Cu3      1.0000 0.87589  0.46365  0.12950  Biso   1.000  Cu
  Cu4      1.0000 0.62411  0.53635  0.62950  Biso   1.000  Cu
  O1       1.0000 0.40050  0.17170  0.68020  Biso   1.000  O
  O2       1.0000 0.09950  0.82830  0.18020  Biso   1.000  O
  O3       1.0000 0.90050  0.32830  0.31980  Biso   1.000  O
  O4       1.0000 0.59950  0.67170  0.81980  Biso   1.000  O
  O5       1.0000 0.43330  0.19520  0.36680  Biso   1.000  O
  O6       1.0000 0.06670  0.80480  0.86680  Biso   1.000  O
  O7       1.0000 0.93330  0.30480  0.63320  Biso   1.000  O
  O8       1.0000 0.56670  0.69520  0.13320  Biso   1.000  O
  O9       1.0000 0.47390  0.06050  0.04210  Biso   1.000  O
  O10      1.0000 0.02610  0.93950  0.54210  Biso   1.000  O
  O11      1.0000 0.97390  0.43950  0.95790  Biso   1.000  O
  O12      1.0000 0.52610  0.56050  0.45790  Biso   1.000  O
  O13      1.0000 0.61750  0.08390  0.05470  Biso   1.000  O
  O14      1.0000 0.88250  0.91610  0.55470  Biso   1.000  O
  O15      1.0000 0.11750  0.41610  0.94530  Biso   1.000  O
  O16      1.0000 0.38250  0.58390  0.44530  Biso   1.000  O
  O17      1.0000 0.28100  0.00530  0.68760  Biso   1.000  O
  O18      1.0000 0.21900  0.99470  0.18760  Biso   1.000  O
  O19      1.0000 0.78100  0.49470  0.31240  Biso   1.000  O
  O20      1.0000 0.71900  0.50530  0.81240  Biso   1.000  O
  O21      1.0000 0.29720  0.09940  0.05330  Biso   1.000  O
  O22      1.0000 0.20280  0.90060  0.55330  Biso   1.000  O
  O23      1.0000 0.79720  0.40060  0.94670  Biso   1.000  O
  O24      1.0000 0.70280  0.59940  0.44670  Biso   1.000  O
  O25      1.0000 0.36780  0.70830  0.02910  Biso   1.000  O
  O26      1.0000 0.13220  0.29170  0.52910  Biso   1.000  O
  O27      1.0000 0.86780  0.79170  0.97090  Biso   1.000  O
  O28      1.0000 0.63220  0.20830  0.47090  Biso   1.000  O
  O29      1.0000 0.38620  0.74700  0.33860  Biso   1.000  O
  O30      1.0000 0.11380  0.25300  0.83860  Biso   1.000  O
  O31      1.0000 0.88620  0.75300  0.66140  Biso   1.000  O
  O32      1.0000 0.61380  0.24700  0.16140  Biso   1.000  O
  N1       1.0000 0.47310  0.00920  0.66660  Biso   1.000  N
  N2       1.0000 0.02690  0.99080  0.16660  Biso   1.000  N
  N3       1.0000 0.97310  0.49080  0.33340  Biso   1.000  N
  N4       1.0000 0.52690  0.50920  0.83340  Biso   1.000  N
  N5       1.0000 0.37780  0.88640  0.91060  Biso   1.000  N
  N6       1.0000 0.12220  0.11360  0.41060  Biso   1.000  N
  N7       1.0000 0.87780  0.61360  0.08940  Biso   1.000  N
  N8       1.0000 0.62220  0.38640  0.58940  Biso   1.000  N
  C1       1.0000 0.46970  0.91470  0.62400  Biso   1.000  C
  C2       1.0000 0.03030  0.08530  0.12400  Biso   1.000  C
  C3       1.0000 0.96970  0.58530  0.37600  Biso   1.000  C
  C4       1.0000 0.53030  0.41470  0.87600  Biso   1.000  C
  C5       1.0000 0.45920  0.86210  0.80700  Biso   1.000  C
  C6       1.0000 0.04080  0.13790  0.30700  Biso   1.000  C
  C7       1.0000 0.95920  0.63790  0.19300  Biso   1.000  C
  C8       1.0000 0.54080  0.36210  0.69300  Biso   1.000  C
  C9       1.0000 0.42800  0.14800  0.52500  Biso   1.000  C
  C10      1.0000 0.07200  0.85200  0.02500  Biso   1.000  C
  C11      1.0000 0.92800  0.35200  0.47500  Biso   1.000  C
  C12      1.0000 0.57200  0.64800  0.97500  Biso   1.000  C
  C13      1.0000 0.45970  0.05680  0.48100  Biso   1.000  C
  C14      1.0000 0.04030  0.94320  0.98100  Biso   1.000  C
  C15      1.0000 0.95970  0.44320  0.51900  Biso   1.000  C
  C16      1.0000 0.54030  0.55680  0.01900  Biso   1.000  C
  C17      1.0000 0.54950  0.06050  0.96500  Biso   1.000  C
  C18      1.0000 0.95050  0.93950  0.46500  Biso   1.000  C
  C19      1.0000 0.04950  0.43950  0.03500  Biso   1.000  C
  C20      1.0000 0.45050  0.56050  0.53500  Biso   1.000  C
  C21      1.0000 0.55970  0.03700  0.75400  Biso   1.000  C
  C22      1.0000 0.94030  0.96300  0.25400  Biso   1.000  C
  C23      1.0000 0.05970  0.46300  0.24600  Biso   1.000  C
  C24      1.0000 0.44030  0.53700  0.74600  Biso   1.000  C
  C25      1.0000 0.25720  0.92660  0.67100  Biso   1.000  C
  C26      1.0000 0.24280  0.07340  0.17100  Biso   1.000  C
  C27      1.0000 0.75720  0.57340  0.32900  Biso   1.000  C
  C28      1.0000 0.74280  0.42660  0.82900  Biso   1.000  C
  C29      1.0000 0.29740  0.85690  0.80700  Biso   1.000  C
  C30      1.0000 0.20260  0.14310  0.30700  Biso   1.000  C
  C31      1.0000 0.79740  0.64310  0.19300  Biso   1.000  C
  C32      1.0000 0.70260  0.35690  0.69300  Biso   1.000  C
  C33      1.0000 0.37820  0.76410  0.15200  Biso   1.000  C
  C34      1.0000 0.12180  0.23590  0.65200  Biso   1.000  C
  C35      1.0000 0.87820  0.73590  0.84800  Biso   1.000  C
  C36      1.0000 0.62180  0.26410  0.34800  Biso   1.000  C
  C37      1.0000 0.37850  0.86050  0.11300  Biso   1.000  C
  C38      1.0000 0.12150  0.13950  0.61300  Biso   1.000  C
  C39      1.0000 0.87850  0.63950  0.88700  Biso   1.000  C
  C40      1.0000 0.62150  0.36050  0.38700  Biso   1.000  C
  O33      1.0000 0.37480  0.34540  0.34620  Biso   1.000  O
  O34      1.0000 0.12520  0.65460  0.84620  Biso   1.000  O
  O35      1.0000 0.87480  0.15460  0.65380  Biso   1.000  O
  O36      1.0000 0.62520  0.84540  0.15380  Biso   1.000  O
  N9       1.0000 0.30360  0.43810  0.15400  Biso   1.000  N
  N10      1.0000 0.19640  0.56190  0.65400  Biso   1.000  N
  N11      1.0000 0.80360  0.06190  0.84600  Biso   1.000  N
  N12      1.0000 0.69640  0.93810  0.34600  Biso   1.000  N
  N13      1.0000 0.32980  0.30040  0.05100  Biso   1.000  N
  N14      1.0000 0.17020  0.69960  0.55100  Biso   1.000  N
  N15      1.0000 0.82980  0.19960  0.94900  Biso   1.000  N
  N16      1.0000 0.67020  0.80040  0.44900  Biso   1.000  N
  C41      1.0000 0.33620  0.36000  0.18900  Biso   1.000  C
  C42      1.0000 0.16380  0.64000  0.68900  Biso   1.000  C
  C43      1.0000 0.83620  0.14000  0.81100  Biso   1.000  C
  C44      1.0000 0.66380  0.86000  0.31100  Biso   1.000  C
  O37      1.0000 0.27770  0.38540  0.67900  Biso   1.000  O
  O38      1.0000 0.22230  0.61460  0.17900  Biso   1.000  O
  O39      1.0000 0.77770  0.11460  0.32100  Biso   1.000  O
  O40      1.0000 0.72230  0.88540  0.82100  Biso   1.000  O
