data_image0
_cell_length_a       13.5858
_cell_length_b       9.1079
_cell_length_c       31.011
_cell_angle_alpha    90
_cell_angle_beta     90
_cell_angle_gamma    90

_symmetry_space_group_name_H-M    "P 1"
_symmetry_int_tables_number       1

loop_
  _symmetry_equiv_pos_as_xyz
  'x, y, z'

loop_
  _atom_site_label
  _atom_site_occupancy
  _atom_site_fract_x
  _atom_site_fract_y
  _atom_site_fract_z
  _atom_site_thermal_displace_type
  _atom_site_B_iso_or_equiv
  _atom_site_type_symbol
  Cu1      1.0000 0.29920  0.10742  0.29774  Biso   1.000  Cu
  Cu2      1.0000 0.20080  0.89258  0.79774  Biso   1.000  Cu
  Cu3      1.0000 0.70080  0.60742  0.20226  Biso   1.000  Cu
  Cu4      1.0000 0.79920  0.39258  0.70226  Biso   1.000  Cu
  Cu5      1.0000 0.70080  0.89258  0.70226  Biso   1.000  Cu
  Cu6      1.0000 0.79920  0.10742  0.20226  Biso   1.000  Cu
  Cu7      1.0000 0.29920  0.39258  0.79774  Biso   1.000  Cu
  Cu8      1.0000 0.20080  0.60742  0.29774  Biso   1.000  Cu
  N1       1.0000 0.25300  0.03170  0.24004  Biso   1.000  N
  N2       1.0000 0.24700  0.96830  0.74004  Biso   1.000  N
  N3       1.0000 0.74700  0.53170  0.25996  Biso   1.000  N
  N4       1.0000 0.75300  0.46830  0.75996  Biso   1.000  N
  N5       1.0000 0.74700  0.96830  0.75996  Biso   1.000  N
  N6       1.0000 0.75300  0.03170  0.25996  Biso   1.000  N
  N7       1.0000 0.25300  0.46830  0.74004  Biso   1.000  N
  N8       1.0000 0.24700  0.53170  0.24004  Biso   1.000  N
  H1       1.0000 0.30700  0.02260  0.22340  Biso   1.000  H
  H2       1.0000 0.19300  0.97740  0.72340  Biso   1.000  H
  H3       1.0000 0.69300  0.52260  0.27660  Biso   1.000  H
  H4       1.0000 0.80700  0.47740  0.77660  Biso   1.000  H
  H5       1.0000 0.69300  0.97740  0.77660  Biso   1.000  H
  H6       1.0000 0.80700  0.02260  0.27660  Biso   1.000  H
  H7       1.0000 0.30700  0.47740  0.72340  Biso   1.000  H
  H8       1.0000 0.19300  0.52260  0.22340  Biso   1.000  H
  H9       1.0000 0.23010  0.94030  0.24460  Biso   1.000  H
  H10      1.0000 0.26990  0.05970  0.74460  Biso   1.000  H
  H11      1.0000 0.76990  0.44030  0.25540  Biso   1.000  H
  H12      1.0000 0.73010  0.55970  0.75540  Biso   1.000  H
  H13      1.0000 0.76990  0.05970  0.75540  Biso   1.000  H
  H14      1.0000 0.73010  0.94030  0.25540  Biso   1.000  H
  H15      1.0000 0.23010  0.55970  0.74460  Biso   1.000  H
  H16      1.0000 0.26990  0.44030  0.24460  Biso   1.000  H
  C1       1.0000 0.18750  0.09910  0.21680  Biso   1.000  C
  C2       1.0000 0.31250  0.90090  0.71680  Biso   1.000  C
  C3       1.0000 0.81250  0.59910  0.28320  Biso   1.000  C
  C4       1.0000 0.68750  0.40090  0.78320  Biso   1.000  C
  C5       1.0000 0.81250  0.90090  0.78320  Biso   1.000  C
  C6       1.0000 0.68750  0.09910  0.28320  Biso   1.000  C
  C7       1.0000 0.18750  0.40090  0.71680  Biso   1.000  C
  C8       1.0000 0.31250  0.59910  0.21680  Biso   1.000  C
  H17      1.0000 0.20520  0.20210  0.21530  Biso   1.000  H
  H18      1.0000 0.29480  0.79790  0.71530  Biso   1.000  H
  H19      1.0000 0.79480  0.70210  0.28470  Biso   1.000  H
  H20      1.0000 0.70520  0.29790  0.78470  Biso   1.000  H
  H21      1.0000 0.79480  0.79790  0.78470  Biso   1.000  H
  H22      1.0000 0.70520  0.20210  0.28470  Biso   1.000  H
  H23      1.0000 0.20520  0.29790  0.71530  Biso   1.000  H
  H24      1.0000 0.29480  0.70210  0.21530  Biso   1.000  H
  H25      1.0000 0.12470  0.09270  0.23160  Biso   1.000  H
  H26      1.0000 0.37530  0.90730  0.73160  Biso   1.000  H
  H27      1.0000 0.87530  0.59270  0.26840  Biso   1.000  H
  H28      1.0000 0.62470  0.40730  0.76840  Biso   1.000  H
  H29      1.0000 0.87530  0.90730  0.76840  Biso   1.000  H
  H30      1.0000 0.62470  0.09270  0.26840  Biso   1.000  H
  H31      1.0000 0.12470  0.40730  0.73160  Biso   1.000  H
  H32      1.0000 0.37530  0.59270  0.23160  Biso   1.000  H
  C9       1.0000 0.17370  0.04070  0.17009  Biso   1.000  C
  C10      1.0000 0.32630  0.95930  0.67009  Biso   1.000  C
  C11      1.0000 0.82630  0.54070  0.32991  Biso   1.000  C
  C12      1.0000 0.67370  0.45930  0.82991  Biso   1.000  C
  C13      1.0000 0.82630  0.95930  0.82991  Biso   1.000  C
  C14      1.0000 0.67370  0.04070  0.32991  Biso   1.000  C
  C15      1.0000 0.17370  0.45930  0.67009  Biso   1.000  C
  C16      1.0000 0.32630  0.54070  0.17009  Biso   1.000  C
  C17      1.0000 0.20910  0.11750  0.13690  Biso   1.000  C
  C18      1.0000 0.29090  0.88250  0.63690  Biso   1.000  C
  C19      1.0000 0.79090  0.61750  0.36310  Biso   1.000  C
  C20      1.0000 0.70910  0.38250  0.86310  Biso   1.000  C
  C21      1.0000 0.79090  0.88250  0.86310  Biso   1.000  C
  C22      1.0000 0.70910  0.11750  0.36310  Biso   1.000  C
  C23      1.0000 0.20910  0.38250  0.63690  Biso   1.000  C
  C24      1.0000 0.29090  0.61750  0.13690  Biso   1.000  C
  H33      1.0000 0.24480  0.20290  0.14190  Biso   1.000  H
  H34      1.0000 0.25520  0.79710  0.64190  Biso   1.000  H
  H35      1.0000 0.75520  0.70290  0.35810  Biso   1.000  H
  H36      1.0000 0.74480  0.29710  0.85810  Biso   1.000  H
  H37      1.0000 0.75520  0.79710  0.85810  Biso   1.000  H
  H38      1.0000 0.74480  0.20290  0.35810  Biso   1.000  H
  H39      1.0000 0.24480  0.29710  0.64190  Biso   1.000  H
  H40      1.0000 0.25520  0.70290  0.14190  Biso   1.000  H
  C25      1.0000 0.19320  0.07100  0.09530  Biso   1.000  C
  C26      1.0000 0.30680  0.92900  0.59530  Biso   1.000  C
  C27      1.0000 0.80680  0.57100  0.40470  Biso   1.000  C
  C28      1.0000 0.69320  0.42900  0.90470  Biso   1.000  C
  C29      1.0000 0.80680  0.92900  0.90470  Biso   1.000  C
  C30      1.0000 0.69320  0.07100  0.40470  Biso   1.000  C
  C31      1.0000 0.19320  0.42900  0.59530  Biso   1.000  C
  C32      1.0000 0.30680  0.57100  0.09530  Biso   1.000  C
  H41      1.0000 0.21770  0.12520  0.07230  Biso   1.000  H
  H42      1.0000 0.28230  0.87480  0.57230  Biso   1.000  H
  H43      1.0000 0.78230  0.62520  0.42770  Biso   1.000  H
  H44      1.0000 0.71770  0.37480  0.92770  Biso   1.000  H
  H45      1.0000 0.78230  0.87480  0.92770  Biso   1.000  H
  H46      1.0000 0.71770  0.12520  0.42770  Biso   1.000  H
  H47      1.0000 0.21770  0.37480  0.57230  Biso   1.000  H
  H48      1.0000 0.28230  0.62520  0.07230  Biso   1.000  H
  C33      1.0000 0.14200  0.94650  0.08800  Biso   1.000  C
  C34      1.0000 0.35800  0.05350  0.58800  Biso   1.000  C
  C35      1.0000 0.85800  0.44650  0.41200  Biso   1.000  C
  C36      1.0000 0.64200  0.55350  0.91200  Biso   1.000  C
  C37      1.0000 0.85800  0.05350  0.91200  Biso   1.000  C
  C38      1.0000 0.64200  0.94650  0.41200  Biso   1.000  C
  C39      1.0000 0.14200  0.55350  0.58800  Biso   1.000  C
  C40      1.0000 0.35800  0.44650  0.08800  Biso   1.000  C
  H49      1.0000 0.13650  0.91010  0.06010  Biso   1.000  H
  H50      1.0000 0.36350  0.08990  0.56010  Biso   1.000  H
  H51      1.0000 0.86350  0.41010  0.43990  Biso   1.000  H
  H52      1.0000 0.63650  0.58990  0.93990  Biso   1.000  H
  H53      1.0000 0.86350  0.08990  0.93990  Biso   1.000  H
  H54      1.0000 0.63650  0.91010  0.43990  Biso   1.000  H
  H55      1.0000 0.13650  0.58990  0.56010  Biso   1.000  H
  H56      1.0000 0.36350  0.41010  0.06010  Biso   1.000  H
  C41      1.0000 0.09990  0.87670  0.12000  Biso   1.000  C
  C42      1.0000 0.40010  0.12330  0.62000  Biso   1.000  C
  C43      1.0000 0.90010  0.37670  0.38000  Biso   1.000  C
  C44      1.0000 0.59990  0.62330  0.88000  Biso   1.000  C
  C45      1.0000 0.90010  0.12330  0.88000  Biso   1.000  C
  C46      1.0000 0.59990  0.87670  0.38000  Biso   1.000  C
  C47      1.0000 0.09990  0.62330  0.62000  Biso   1.000  C
  C48      1.0000 0.40010  0.37670  0.12000  Biso   1.000  C
  H57      1.0000 0.05940  0.79640  0.11480  Biso   1.000  H
  H58      1.0000 0.44060  0.20360  0.61480  Biso   1.000  H
  H59      1.0000 0.94060  0.29640  0.38520  Biso   1.000  H
  H60      1.0000 0.55940  0.70360  0.88520  Biso   1.000  H
  H61      1.0000 0.94060  0.20360  0.88520  Biso   1.000  H
  H62      1.0000 0.55940  0.79640  0.38520  Biso   1.000  H
  H63      1.0000 0.05940  0.70360  0.61480  Biso   1.000  H
  H64      1.0000 0.44060  0.29640  0.11480  Biso   1.000  H
  C49      1.0000 0.11720  0.92530  0.16190  Biso   1.000  C
  C50      1.0000 0.38280  0.07470  0.66190  Biso   1.000  C
  C51      1.0000 0.88280  0.42530  0.33810  Biso   1.000  C
  C52      1.0000 0.61720  0.57470  0.83810  Biso   1.000  C
  C53      1.0000 0.88280  0.07470  0.83810  Biso   1.000  C
  C54      1.0000 0.61720  0.92530  0.33810  Biso   1.000  C
  C55      1.0000 0.11720  0.57470  0.66190  Biso   1.000  C
  C56      1.0000 0.38280  0.42530  0.16190  Biso   1.000  C
  H65      1.0000 0.08820  0.87530  0.18480  Biso   1.000  H
  H66      1.0000 0.41180  0.12470  0.68480  Biso   1.000  H
  H67      1.0000 0.91180  0.37530  0.31520  Biso   1.000  H
  H68      1.0000 0.58820  0.62470  0.81520  Biso   1.000  H
  H69      1.0000 0.91180  0.12470  0.81520  Biso   1.000  H
  H70      1.0000 0.58820  0.87530  0.31520  Biso   1.000  H
  H71      1.0000 0.08820  0.62470  0.68480  Biso   1.000  H
  H72      1.0000 0.41180  0.37530  0.18480  Biso   1.000  H
  N9       1.0000 0.34820  0.20890  0.35129  Biso   1.000  N
  N10      1.0000 0.15180  0.79110  0.85129  Biso   1.000  N
  N11      1.0000 0.65180  0.70890  0.14871  Biso   1.000  N
  N12      1.0000 0.84820  0.29110  0.64871  Biso   1.000  N
  N13      1.0000 0.65180  0.79110  0.64871  Biso   1.000  N
  N14      1.0000 0.84820  0.20890  0.14871  Biso   1.000  N
  N15      1.0000 0.34820  0.29110  0.85129  Biso   1.000  N
  N16      1.0000 0.15180  0.70890  0.35129  Biso   1.000  N
  H73      1.0000 0.30280  0.27980  0.35700  Biso   1.000  H
  H74      1.0000 0.19720  0.72020  0.85700  Biso   1.000  H
  H75      1.0000 0.69720  0.77980  0.14300  Biso   1.000  H
  H76      1.0000 0.80280  0.22020  0.64300  Biso   1.000  H
  H77      1.0000 0.69720  0.72020  0.64300  Biso   1.000  H
  H78      1.0000 0.80280  0.27980  0.14300  Biso   1.000  H
  H79      1.0000 0.30280  0.22020  0.85700  Biso   1.000  H
  H80      1.0000 0.19720  0.77980  0.35700  Biso   1.000  H
  C57      1.0000 0.35280  0.11810  0.39077  Biso   1.000  C
  C58      1.0000 0.14720  0.88190  0.89077  Biso   1.000  C
  C59      1.0000 0.64720  0.61810  0.10923  Biso   1.000  C
  C60      1.0000 0.85280  0.38190  0.60923  Biso   1.000  C
  C61      1.0000 0.64720  0.88190  0.60923  Biso   1.000  C
  C62      1.0000 0.85280  0.11810  0.10923  Biso   1.000  C
  C63      1.0000 0.35280  0.38190  0.89077  Biso   1.000  C
  C64      1.0000 0.14720  0.61810  0.39077  Biso   1.000  C
  H81      1.0000 0.40890  0.05270  0.38860  Biso   1.000  H
  H82      1.0000 0.09110  0.94730  0.88860  Biso   1.000  H
  H83      1.0000 0.59110  0.55270  0.11140  Biso   1.000  H
  H84      1.0000 0.90890  0.44730  0.61140  Biso   1.000  H
  H85      1.0000 0.59110  0.94730  0.61140  Biso   1.000  H
  H86      1.0000 0.90890  0.05270  0.11140  Biso   1.000  H
  H87      1.0000 0.40890  0.44730  0.88860  Biso   1.000  H
  H88      1.0000 0.09110  0.55270  0.38860  Biso   1.000  H
  H89      1.0000 0.29400  0.05770  0.39220  Biso   1.000  H
  H90      1.0000 0.20600  0.94230  0.89220  Biso   1.000  H
  H91      1.0000 0.70600  0.55770  0.10780  Biso   1.000  H
  H92      1.0000 0.79400  0.44230  0.60780  Biso   1.000  H
  H93      1.0000 0.70600  0.94230  0.60780  Biso   1.000  H
  H94      1.0000 0.79400  0.05770  0.10780  Biso   1.000  H
  H95      1.0000 0.29400  0.44230  0.89220  Biso   1.000  H
  H96      1.0000 0.20600  0.55770  0.39220  Biso   1.000  H
  C65      1.0000 0.36110  0.20450  0.43188  Biso   1.000  C
  C66      1.0000 0.13890  0.79550  0.93188  Biso   1.000  C
  C67      1.0000 0.63890  0.70450  0.06812  Biso   1.000  C
  C68      1.0000 0.86110  0.29550  0.56812  Biso   1.000  C
  C69      1.0000 0.63890  0.79550  0.56812  Biso   1.000  C
  C70      1.0000 0.86110  0.20450  0.06812  Biso   1.000  C
  C71      1.0000 0.36110  0.29550  0.93188  Biso   1.000  C
  C72      1.0000 0.13890  0.70450  0.43188  Biso   1.000  C
  C73      1.0000 0.28480  0.29020  0.44535  Biso   1.000  C
  C74      1.0000 0.21520  0.70980  0.94535  Biso   1.000  C
  C75      1.0000 0.71520  0.79020  0.05465  Biso   1.000  C
  C76      1.0000 0.78480  0.20980  0.55465  Biso   1.000  C
  C77      1.0000 0.71520  0.70980  0.55465  Biso   1.000  C
  C78      1.0000 0.78480  0.29020  0.05465  Biso   1.000  C
  C79      1.0000 0.28480  0.20980  0.94535  Biso   1.000  C
  C80      1.0000 0.21520  0.79020  0.44535  Biso   1.000  C
  H97      1.0000 0.22570  0.28900  0.43020  Biso   1.000  H
  H98      1.0000 0.27430  0.71100  0.93020  Biso   1.000  H
  H99      1.0000 0.77430  0.78900  0.06980  Biso   1.000  H
  H100     1.0000 0.72570  0.21100  0.56980  Biso   1.000  H
  H101     1.0000 0.77430  0.71100  0.56980  Biso   1.000  H
  H102     1.0000 0.72570  0.28900  0.06980  Biso   1.000  H
  H103     1.0000 0.22570  0.21100  0.93020  Biso   1.000  H
  H104     1.0000 0.27430  0.78900  0.43020  Biso   1.000  H
  C81      1.0000 0.29430  0.37950  0.48160  Biso   1.000  C
  C82      1.0000 0.20570  0.62050  0.98160  Biso   1.000  C
  C83      1.0000 0.70570  0.87950  0.01840  Biso   1.000  C
  C84      1.0000 0.79430  0.12050  0.51840  Biso   1.000  C
  C85      1.0000 0.70570  0.62050  0.51840  Biso   1.000  C
  C86      1.0000 0.79430  0.37950  0.01840  Biso   1.000  C
  C87      1.0000 0.29430  0.12050  0.98160  Biso   1.000  C
  C88      1.0000 0.20570  0.87950  0.48160  Biso   1.000  C
  H105     1.0000 0.24260  0.44000  0.49010  Biso   1.000  H
  H106     1.0000 0.25740  0.56000  0.99010  Biso   1.000  H
  H107     1.0000 0.75740  0.94000  0.00990  Biso   1.000  H
  H108     1.0000 0.74260  0.06000  0.50990  Biso   1.000  H
  H109     1.0000 0.75740  0.56000  0.50990  Biso   1.000  H
  H110     1.0000 0.74260  0.44000  0.00990  Biso   1.000  H
  H111     1.0000 0.24260  0.06000  0.99010  Biso   1.000  H
  H112     1.0000 0.25740  0.94000  0.49010  Biso   1.000  H
  C89      1.0000 0.37980  0.37760  0.50450  Biso   1.000  C
  C90      1.0000 0.12020  0.62240  0.00450  Biso   1.000  C
  C91      1.0000 0.62020  0.87760  0.99550  Biso   1.000  C
  C92      1.0000 0.87980  0.12240  0.49550  Biso   1.000  C
  C93      1.0000 0.62020  0.62240  0.49550  Biso   1.000  C
  C94      1.0000 0.87980  0.37760  0.99550  Biso   1.000  C
  C95      1.0000 0.37980  0.12240  0.00450  Biso   1.000  C
  C96      1.0000 0.12020  0.87760  0.50450  Biso   1.000  C
  H113     1.0000 0.38610  0.43700  0.52870  Biso   1.000  H
  H114     1.0000 0.11390  0.56300  0.02870  Biso   1.000  H
  H115     1.0000 0.61390  0.93700  0.97130  Biso   1.000  H
  H116     1.0000 0.88610  0.06300  0.47130  Biso   1.000  H
  H117     1.0000 0.61390  0.56300  0.47130  Biso   1.000  H
  H118     1.0000 0.88610  0.43700  0.97130  Biso   1.000  H
  H119     1.0000 0.38610  0.06300  0.02870  Biso   1.000  H
  H120     1.0000 0.11390  0.93700  0.52870  Biso   1.000  H
  C97      1.0000 0.45480  0.29130  0.49270  Biso   1.000  C
  C98      1.0000 0.04520  0.70870  0.99270  Biso   1.000  C
  C99      1.0000 0.54520  0.79130  0.00730  Biso   1.000  C
  C100     1.0000 0.95480  0.20870  0.50730  Biso   1.000  C
  C101     1.0000 0.54520  0.70870  0.50730  Biso   1.000  C
  C102     1.0000 0.95480  0.29130  0.00730  Biso   1.000  C
  C103     1.0000 0.45480  0.20870  0.99270  Biso   1.000  C
  C104     1.0000 0.04520  0.79130  0.49270  Biso   1.000  C
  H121     1.0000 0.51260  0.29040  0.50880  Biso   1.000  H
  H122     1.0000 0.98740  0.70960  0.00880  Biso   1.000  H
  H123     1.0000 0.48740  0.79040  0.99120  Biso   1.000  H
  H124     1.0000 0.01260  0.20960  0.49120  Biso   1.000  H
  H125     1.0000 0.48740  0.70960  0.49120  Biso   1.000  H
  H126     1.0000 0.01260  0.29040  0.99120  Biso   1.000  H
  H127     1.0000 0.51260  0.20960  0.00880  Biso   1.000  H
  H128     1.0000 0.98740  0.79040  0.50880  Biso   1.000  H
  C105     1.0000 0.44640  0.20300  0.45628  Biso   1.000  C
  C106     1.0000 0.05360  0.79700  0.95628  Biso   1.000  C
  C107     1.0000 0.55360  0.70300  0.04372  Biso   1.000  C
  C108     1.0000 0.94640  0.29700  0.54372  Biso   1.000  C
  C109     1.0000 0.55360  0.79700  0.54372  Biso   1.000  C
  C110     1.0000 0.94640  0.20300  0.04372  Biso   1.000  C
  C111     1.0000 0.44640  0.29700  0.95628  Biso   1.000  C
  C112     1.0000 0.05360  0.70300  0.45628  Biso   1.000  C
  H129     1.0000 0.49840  0.14250  0.44830  Biso   1.000  H
  H130     1.0000 0.00160  0.85750  0.94830  Biso   1.000  H
  H131     1.0000 0.50160  0.64250  0.05170  Biso   1.000  H
  H132     1.0000 0.99840  0.35750  0.55170  Biso   1.000  H
  H133     1.0000 0.50160  0.85750  0.55170  Biso   1.000  H
  H134     1.0000 0.99840  0.14250  0.05170  Biso   1.000  H
  H135     1.0000 0.49840  0.35750  0.94830  Biso   1.000  H
  H136     1.0000 0.00160  0.64250  0.44830  Biso   1.000  H
  O1       1.0000 0.30750  0.50040  0.32507  Biso   1.000  O
  O2       1.0000 0.19250  0.49960  0.82507  Biso   1.000  O
  O3       1.0000 0.69250  0.00040  0.17493  Biso   1.000  O
  O4       1.0000 0.80750  0.99960  0.67493  Biso   1.000  O
  O5       1.0000 0.69250  0.49960  0.67493  Biso   1.000  O
  O6       1.0000 0.80750  0.50040  0.17493  Biso   1.000  O
  O7       1.0000 0.30750  0.99960  0.82507  Biso   1.000  O
  O8       1.0000 0.19250  0.00040  0.32507  Biso   1.000  O
  O9       1.0000 0.39240  0.23240  0.26841  Biso   1.000  O
  O10      1.0000 0.10760  0.76760  0.76841  Biso   1.000  O
  O11      1.0000 0.60760  0.73240  0.23159  Biso   1.000  O
  O12      1.0000 0.89240  0.26760  0.73159  Biso   1.000  O
  O13      1.0000 0.60760  0.76760  0.73159  Biso   1.000  O
  O14      1.0000 0.89240  0.23240  0.23159  Biso   1.000  O
  O15      1.0000 0.39240  0.26760  0.76841  Biso   1.000  O
  O16      1.0000 0.10760  0.73240  0.26841  Biso   1.000  O
  O17      1.0000 0.52170  0.37570  0.27838  Biso   1.000  O
  O18      1.0000 0.97830  0.62430  0.77838  Biso   1.000  O
  O19      1.0000 0.47830  0.87570  0.22162  Biso   1.000  O
  O20      1.0000 0.02170  0.12430  0.72162  Biso   1.000  O
  O21      1.0000 0.47830  0.62430  0.72162  Biso   1.000  O
  O22      1.0000 0.02170  0.37570  0.22162  Biso   1.000  O
  O23      1.0000 0.52170  0.12430  0.77838  Biso   1.000  O
  O24      1.0000 0.97830  0.87570  0.27838  Biso   1.000  O
  O25      1.0000 0.38600  0.68000  0.35970  Biso   1.000  O
  O26      1.0000 0.11400  0.32000  0.85970  Biso   1.000  O
  O27      1.0000 0.61400  0.18000  0.14030  Biso   1.000  O
  O28      1.0000 0.88600  0.82000  0.64030  Biso   1.000  O
  O29      1.0000 0.61400  0.32000  0.64030  Biso   1.000  O
  O30      1.0000 0.88600  0.68000  0.14030  Biso   1.000  O
  O31      1.0000 0.38600  0.82000  0.85970  Biso   1.000  O
  O32      1.0000 0.11400  0.18000  0.35970  Biso   1.000  O
  C113     1.0000 0.37790  0.55040  0.34779  Biso   1.000  C
  C114     1.0000 0.12210  0.44960  0.84779  Biso   1.000  C
  C115     1.0000 0.62210  0.05040  0.15221  Biso   1.000  C
  C116     1.0000 0.87790  0.94960  0.65221  Biso   1.000  C
  C117     1.0000 0.62210  0.44960  0.65221  Biso   1.000  C
  C118     1.0000 0.87790  0.55040  0.15221  Biso   1.000  C
  C119     1.0000 0.37790  0.94960  0.84779  Biso   1.000  C
  C120     1.0000 0.12210  0.05040  0.34779  Biso   1.000  C
  C121     1.0000 0.45310  0.30130  0.29214  Biso   1.000  C
  C122     1.0000 0.04690  0.69870  0.79214  Biso   1.000  C
  C123     1.0000 0.54690  0.80130  0.20786  Biso   1.000  C
  C124     1.0000 0.95310  0.19870  0.70786  Biso   1.000  C
  C125     1.0000 0.54690  0.69870  0.70786  Biso   1.000  C
  C126     1.0000 0.95310  0.30130  0.20786  Biso   1.000  C
  C127     1.0000 0.45310  0.19870  0.79214  Biso   1.000  C
  C128     1.0000 0.04690  0.80130  0.29214  Biso   1.000  C
  C129     1.0000 0.45260  0.43980  0.36209  Biso   1.000  C
  C130     1.0000 0.04740  0.56020  0.86209  Biso   1.000  C
  C131     1.0000 0.54740  0.93980  0.13791  Biso   1.000  C
  C132     1.0000 0.95260  0.06020  0.63791  Biso   1.000  C
  C133     1.0000 0.54740  0.56020  0.63791  Biso   1.000  C
  C134     1.0000 0.95260  0.43980  0.13791  Biso   1.000  C
  C135     1.0000 0.45260  0.06020  0.86209  Biso   1.000  C
  C136     1.0000 0.04740  0.93980  0.36209  Biso   1.000  C
  H137     1.0000 0.51780  0.47690  0.35550  Biso   1.000  H
  H138     1.0000 0.98220  0.52310  0.85550  Biso   1.000  H
  H139     1.0000 0.48220  0.97690  0.14450  Biso   1.000  H
  H140     1.0000 0.01780  0.02310  0.64450  Biso   1.000  H
  H141     1.0000 0.48220  0.52310  0.64450  Biso   1.000  H
  H142     1.0000 0.01780  0.47690  0.14450  Biso   1.000  H
  H143     1.0000 0.51780  0.02310  0.85550  Biso   1.000  H
  H144     1.0000 0.98220  0.97690  0.35550  Biso   1.000  H
  H145     1.0000 0.44810  0.42840  0.39310  Biso   1.000  H
  H146     1.0000 0.05190  0.57160  0.89310  Biso   1.000  H
  H147     1.0000 0.55190  0.92840  0.10690  Biso   1.000  H
  H148     1.0000 0.94810  0.07160  0.60690  Biso   1.000  H
  H149     1.0000 0.55190  0.57160  0.60690  Biso   1.000  H
  H150     1.0000 0.94810  0.42840  0.10690  Biso   1.000  H
  H151     1.0000 0.44810  0.07160  0.89310  Biso   1.000  H
  H152     1.0000 0.05190  0.92840  0.39310  Biso   1.000  H
  C137     1.0000 0.44020  0.28930  0.34096  Biso   1.000  C
  C138     1.0000 0.05980  0.71070  0.84096  Biso   1.000  C
  C139     1.0000 0.55980  0.78930  0.15904  Biso   1.000  C
  C140     1.0000 0.94020  0.21070  0.65904  Biso   1.000  C
  C141     1.0000 0.55980  0.71070  0.65904  Biso   1.000  C
  C142     1.0000 0.94020  0.28930  0.15904  Biso   1.000  C
  C143     1.0000 0.44020  0.21070  0.84096  Biso   1.000  C
  C144     1.0000 0.05980  0.78930  0.34096  Biso   1.000  C
  H153     1.0000 0.49450  0.22820  0.35150  Biso   1.000  H
  H154     1.0000 0.00550  0.77180  0.85150  Biso   1.000  H
  H155     1.0000 0.50550  0.72820  0.14850  Biso   1.000  H
  H156     1.0000 0.99450  0.27180  0.64850  Biso   1.000  H
  H157     1.0000 0.50550  0.77180  0.64850  Biso   1.000  H
  H158     1.0000 0.99450  0.22820  0.14850  Biso   1.000  H
  H159     1.0000 0.49450  0.27180  0.85150  Biso   1.000  H
  H160     1.0000 0.00550  0.72820  0.35150  Biso   1.000  H
  O33      1.0000 0.38950  0.90130  0.29913  Biso   1.000  O
  O34      1.0000 0.11050  0.09870  0.79913  Biso   1.000  O
  O35      1.0000 0.61050  0.40130  0.20087  Biso   1.000  O
  O36      1.0000 0.88950  0.59870  0.70087  Biso   1.000  O
  O37      1.0000 0.61050  0.09870  0.70087  Biso   1.000  O
  O38      1.0000 0.88950  0.90130  0.20087  Biso   1.000  O
  O39      1.0000 0.38950  0.59870  0.79913  Biso   1.000  O
  O40      1.0000 0.11050  0.40130  0.29913  Biso   1.000  O
  H161     1.0000 0.37690  0.81770  0.30930  Biso   1.000  H
  H162     1.0000 0.12310  0.18230  0.80930  Biso   1.000  H
  H163     1.0000 0.62310  0.31770  0.19070  Biso   1.000  H
  H164     1.0000 0.87690  0.68230  0.69070  Biso   1.000  H
  H165     1.0000 0.62310  0.18230  0.69070  Biso   1.000  H
  H166     1.0000 0.87690  0.81770  0.19070  Biso   1.000  H
  H167     1.0000 0.37690  0.68230  0.80930  Biso   1.000  H
  H168     1.0000 0.12310  0.31770  0.30930  Biso   1.000  H
  H169     1.0000 0.43210  0.89100  0.28120  Biso   1.000  H
  H170     1.0000 0.06790  0.10900  0.78120  Biso   1.000  H
  H171     1.0000 0.56790  0.39100  0.21880  Biso   1.000  H
  H172     1.0000 0.93210  0.60900  0.71880  Biso   1.000  H
  H173     1.0000 0.56790  0.10900  0.71880  Biso   1.000  H
  H174     1.0000 0.93210  0.89100  0.21880  Biso   1.000  H
  H175     1.0000 0.43210  0.60900  0.78120  Biso   1.000  H
  H176     1.0000 0.06790  0.39100  0.28120  Biso   1.000  H
