data_image0
_cell_length_a       51.713
_cell_length_b       10.5805
_cell_length_c       10.0239
_cell_angle_alpha    90
_cell_angle_beta     100.515
_cell_angle_gamma    90

_symmetry_space_group_name_H-M    "P 1"
_symmetry_int_tables_number       1

loop_
  _symmetry_equiv_pos_as_xyz
  'x, y, z'

loop_
  _atom_site_label
  _atom_site_occupancy
  _atom_site_fract_x
  _atom_site_fract_y
  _atom_site_fract_z
  _atom_site_thermal_displace_type
  _atom_site_B_iso_or_equiv
  _atom_site_type_symbol
  Cu1      1.0000 0.62450  0.00038  0.07625  Biso   1.000  Cu
  Cu2      1.0000 0.37550  0.00038  0.42375  Biso   1.000  Cu
  Cu3      1.0000 0.12451  0.50038  0.07625  Biso   1.000  Cu
  Cu4      1.0000 0.87550  0.50038  0.42375  Biso   1.000  Cu
  Cu5      1.0000 0.37550  0.99962  0.92375  Biso   1.000  Cu
  Cu6      1.0000 0.62450  0.99962  0.57625  Biso   1.000  Cu
  Cu7      1.0000 0.87550  0.49962  0.92375  Biso   1.000  Cu
  Cu8      1.0000 0.12451  0.49962  0.57625  Biso   1.000  Cu
  O1       1.0000 0.64144  0.83840  0.04830  Biso   1.000  O
  O2       1.0000 0.35856  0.83840  0.45170  Biso   1.000  O
  O3       1.0000 0.14144  0.33840  0.04830  Biso   1.000  O
  O4       1.0000 0.85856  0.33840  0.45170  Biso   1.000  O
  O5       1.0000 0.35856  0.16160  0.95170  Biso   1.000  O
  O6       1.0000 0.64144  0.16160  0.54830  Biso   1.000  O
  O7       1.0000 0.85856  0.66160  0.95170  Biso   1.000  O
  O8       1.0000 0.14144  0.66160  0.54830  Biso   1.000  O
  O9       1.0000 0.66039  0.79550  0.26270  Biso   1.000  O
  O10      1.0000 0.33961  0.79550  0.23730  Biso   1.000  O
  O11      1.0000 0.16039  0.29550  0.26270  Biso   1.000  O
  O12      1.0000 0.83961  0.29550  0.23730  Biso   1.000  O
  O13      1.0000 0.33961  0.20450  0.73730  Biso   1.000  O
  O14      1.0000 0.66039  0.20450  0.76270  Biso   1.000  O
  O15      1.0000 0.83961  0.70450  0.73730  Biso   1.000  O
  O16      1.0000 0.16039  0.70450  0.76270  Biso   1.000  O
  Cl1      1.0000 0.71606  0.73940  0.20590  Biso   1.000  Cl
  Cl2      1.0000 0.28394  0.73940  0.29410  Biso   1.000  Cl
  Cl3      1.0000 0.21606  0.23940  0.20590  Biso   1.000  Cl
  Cl4      1.0000 0.78394  0.23940  0.29410  Biso   1.000  Cl
  Cl5      1.0000 0.28394  0.26060  0.79410  Biso   1.000  Cl
  Cl6      1.0000 0.71606  0.26060  0.70590  Biso   1.000  Cl
  Cl7      1.0000 0.78394  0.76060  0.79410  Biso   1.000  Cl
  Cl8      1.0000 0.21606  0.76060  0.70590  Biso   1.000  Cl
  O17      1.0000 0.60782  0.16240  0.10880  Biso   1.000  O
  O18      1.0000 0.39218  0.16240  0.39120  Biso   1.000  O
  O19      1.0000 0.10782  0.66240  0.10880  Biso   1.000  O
  O20      1.0000 0.89218  0.66240  0.39120  Biso   1.000  O
  O21      1.0000 0.39218  0.83760  0.89120  Biso   1.000  O
  O22      1.0000 0.60782  0.83760  0.60880  Biso   1.000  O
  O23      1.0000 0.89218  0.33760  0.89120  Biso   1.000  O
  O24      1.0000 0.10782  0.33760  0.60880  Biso   1.000  O
  O25      1.0000 0.58531  0.19920  0.90000  Biso   1.000  O
  O26      1.0000 0.41469  0.19920  0.60000  Biso   1.000  O
  O27      1.0000 0.08531  0.69920  0.90000  Biso   1.000  O
  O28      1.0000 0.91469  0.69920  0.60000  Biso   1.000  O
  O29      1.0000 0.41469  0.80080  0.10000  Biso   1.000  O
  O30      1.0000 0.58531  0.80080  0.40000  Biso   1.000  O
  O31      1.0000 0.91469  0.30080  0.10000  Biso   1.000  O
  O32      1.0000 0.08531  0.30080  0.40000  Biso   1.000  O
  Cl9      1.0000 0.53166  0.28470  0.96430  Biso   1.000  Cl
  Cl10     1.0000 0.46834  0.28470  0.53570  Biso   1.000  Cl
  Cl11     1.0000 0.03166  0.78470  0.96430  Biso   1.000  Cl
  Cl12     1.0000 0.96834  0.78470  0.53570  Biso   1.000  Cl
  Cl13     1.0000 0.46834  0.71530  0.03570  Biso   1.000  Cl
  Cl14     1.0000 0.53166  0.71530  0.46430  Biso   1.000  Cl
  Cl15     1.0000 0.96834  0.21530  0.03570  Biso   1.000  Cl
  Cl16     1.0000 0.03166  0.21530  0.46430  Biso   1.000  Cl
  N1       1.0000 0.65992  0.08300  0.13250  Biso   1.000  N
  N2       1.0000 0.34008  0.08300  0.36750  Biso   1.000  N
  N3       1.0000 0.15992  0.58300  0.13250  Biso   1.000  N
  N4       1.0000 0.84008  0.58300  0.36750  Biso   1.000  N
  N5       1.0000 0.34008  0.91700  0.86750  Biso   1.000  N
  N6       1.0000 0.65992  0.91700  0.63250  Biso   1.000  N
  N7       1.0000 0.84008  0.41700  0.86750  Biso   1.000  N
  N8       1.0000 0.15992  0.41700  0.63250  Biso   1.000  N
  N9       1.0000 0.58911  0.91730  0.02560  Biso   1.000  N
  N10      1.0000 0.41089  0.91730  0.47440  Biso   1.000  N
  N11      1.0000 0.08911  0.41730  0.02560  Biso   1.000  N
  N12      1.0000 0.91089  0.41730  0.47440  Biso   1.000  N
  N13      1.0000 0.41089  0.08270  0.97440  Biso   1.000  N
  N14      1.0000 0.58911  0.08270  0.52560  Biso   1.000  N
  N15      1.0000 0.91089  0.58270  0.97440  Biso   1.000  N
  N16      1.0000 0.08911  0.58270  0.52560  Biso   1.000  N
  C1       1.0000 0.67988  0.05600  0.06900  Biso   1.000  C
  C2       1.0000 0.32012  0.05600  0.43100  Biso   1.000  C
  C3       1.0000 0.17988  0.55600  0.06900  Biso   1.000  C
  C4       1.0000 0.82012  0.55600  0.43100  Biso   1.000  C
  C5       1.0000 0.32012  0.94400  0.93100  Biso   1.000  C
  C6       1.0000 0.67988  0.94400  0.56900  Biso   1.000  C
  C7       1.0000 0.82012  0.44400  0.93100  Biso   1.000  C
  C8       1.0000 0.17988  0.44400  0.56900  Biso   1.000  C
  H1       1.0000 0.67670  0.00080  0.99560  Biso   1.000  H
  H2       1.0000 0.32330  0.00080  0.50440  Biso   1.000  H
  H3       1.0000 0.17670  0.50080  0.99560  Biso   1.000  H
  H4       1.0000 0.82330  0.50080  0.50440  Biso   1.000  H
  H5       1.0000 0.32330  0.99920  0.00440  Biso   1.000  H
  H6       1.0000 0.67670  0.99920  0.49560  Biso   1.000  H
  H7       1.0000 0.82330  0.49920  0.00440  Biso   1.000  H
  H8       1.0000 0.17670  0.49920  0.49560  Biso   1.000  H
  C9       1.0000 0.70473  0.10490  0.10560  Biso   1.000  C
  C10      1.0000 0.29527  0.10490  0.39440  Biso   1.000  C
  C11      1.0000 0.20473  0.60490  0.10560  Biso   1.000  C
  C12      1.0000 0.79527  0.60490  0.39440  Biso   1.000  C
  C13      1.0000 0.29527  0.89510  0.89440  Biso   1.000  C
  C14      1.0000 0.70473  0.89510  0.60560  Biso   1.000  C
  C15      1.0000 0.79527  0.39510  0.89440  Biso   1.000  C
  C16      1.0000 0.20473  0.39510  0.60560  Biso   1.000  C
  C17      1.0000 0.70889  0.18760  0.21340  Biso   1.000  C
  C18      1.0000 0.29111  0.18760  0.28660  Biso   1.000  C
  C19      1.0000 0.20889  0.68760  0.21340  Biso   1.000  C
  C20      1.0000 0.79111  0.68760  0.28660  Biso   1.000  C
  C21      1.0000 0.29111  0.81240  0.78660  Biso   1.000  C
  C22      1.0000 0.70889  0.81240  0.71340  Biso   1.000  C
  C23      1.0000 0.79111  0.31240  0.78660  Biso   1.000  C
  C24      1.0000 0.20889  0.31240  0.71340  Biso   1.000  C
  H9       1.0000 0.72540  0.22400  0.24110  Biso   1.000  H
  H10      1.0000 0.27460  0.22400  0.25890  Biso   1.000  H
  H11      1.0000 0.22540  0.72400  0.24110  Biso   1.000  H
  H12      1.0000 0.77460  0.72400  0.25890  Biso   1.000  H
  H13      1.0000 0.27460  0.77600  0.75890  Biso   1.000  H
  H14      1.0000 0.72540  0.77600  0.74110  Biso   1.000  H
  H15      1.0000 0.77460  0.27600  0.75890  Biso   1.000  H
  H16      1.0000 0.22540  0.27600  0.74110  Biso   1.000  H
  C25      1.0000 0.68863  0.21640  0.28010  Biso   1.000  C
  C26      1.0000 0.31137  0.21640  0.21990  Biso   1.000  C
  C27      1.0000 0.18863  0.71640  0.28010  Biso   1.000  C
  C28      1.0000 0.81137  0.71640  0.21990  Biso   1.000  C
  C29      1.0000 0.31137  0.78360  0.71990  Biso   1.000  C
  C30      1.0000 0.68863  0.78360  0.78010  Biso   1.000  C
  C31      1.0000 0.81137  0.28360  0.71990  Biso   1.000  C
  C32      1.0000 0.18863  0.28360  0.78010  Biso   1.000  C
  H17      1.0000 0.69140  0.27140  0.35370  Biso   1.000  H
  H18      1.0000 0.30860  0.27140  0.14630  Biso   1.000  H
  H19      1.0000 0.19140  0.77140  0.35370  Biso   1.000  H
  H20      1.0000 0.80860  0.77140  0.14630  Biso   1.000  H
  H21      1.0000 0.30860  0.72860  0.64630  Biso   1.000  H
  H22      1.0000 0.69140  0.72860  0.85370  Biso   1.000  H
  H23      1.0000 0.80860  0.22860  0.64630  Biso   1.000  H
  H24      1.0000 0.19140  0.22860  0.85370  Biso   1.000  H
  C33      1.0000 0.66439  0.16360  0.23730  Biso   1.000  C
  C34      1.0000 0.33561  0.16360  0.26270  Biso   1.000  C
  C35      1.0000 0.16439  0.66360  0.23730  Biso   1.000  C
  C36      1.0000 0.83561  0.66360  0.26270  Biso   1.000  C
  C37      1.0000 0.33561  0.83640  0.76270  Biso   1.000  C
  C38      1.0000 0.66439  0.83640  0.73730  Biso   1.000  C
  C39      1.0000 0.83561  0.33640  0.76270  Biso   1.000  C
  C40      1.0000 0.16439  0.33640  0.73730  Biso   1.000  C
  H25      1.0000 0.65070  0.18400  0.28190  Biso   1.000  H
  H26      1.0000 0.34930  0.18400  0.21810  Biso   1.000  H
  H27      1.0000 0.15070  0.68400  0.28190  Biso   1.000  H
  H28      1.0000 0.84930  0.68400  0.21810  Biso   1.000  H
  H29      1.0000 0.34930  0.81600  0.71810  Biso   1.000  H
  H30      1.0000 0.65070  0.81600  0.78190  Biso   1.000  H
  H31      1.0000 0.84930  0.31600  0.71810  Biso   1.000  H
  H32      1.0000 0.15070  0.31600  0.78190  Biso   1.000  H
  C41      1.0000 0.72650  0.06780  0.03090  Biso   1.000  C
  C42      1.0000 0.27350  0.06780  0.46910  Biso   1.000  C
  C43      1.0000 0.22650  0.56780  0.03090  Biso   1.000  C
  C44      1.0000 0.77350  0.56780  0.46910  Biso   1.000  C
  C45      1.0000 0.27350  0.93220  0.96910  Biso   1.000  C
  C46      1.0000 0.72650  0.93220  0.53090  Biso   1.000  C
  C47      1.0000 0.77350  0.43220  0.96910  Biso   1.000  C
  C48      1.0000 0.22650  0.43220  0.53090  Biso   1.000  C
  H33      1.0000 0.72240  0.09830  0.93930  Biso   1.000  H
  H34      1.0000 0.27760  0.09830  0.56070  Biso   1.000  H
  H35      1.0000 0.22240  0.59830  0.93930  Biso   1.000  H
  H36      1.0000 0.77760  0.59830  0.56070  Biso   1.000  H
  H37      1.0000 0.27760  0.90170  0.06070  Biso   1.000  H
  H38      1.0000 0.72240  0.90170  0.43930  Biso   1.000  H
  H39      1.0000 0.77760  0.40170  0.06070  Biso   1.000  H
  H40      1.0000 0.22240  0.40170  0.43930  Biso   1.000  H
  H41      1.0000 0.72810  0.97740  0.03030  Biso   1.000  H
  H42      1.0000 0.27190  0.97740  0.46970  Biso   1.000  H
  H43      1.0000 0.22810  0.47740  0.03030  Biso   1.000  H
  H44      1.0000 0.77190  0.47740  0.46970  Biso   1.000  H
  H45      1.0000 0.27190  0.02260  0.96970  Biso   1.000  H
  H46      1.0000 0.72810  0.02260  0.53030  Biso   1.000  H
  H47      1.0000 0.77190  0.52260  0.96970  Biso   1.000  H
  H48      1.0000 0.22810  0.52260  0.53030  Biso   1.000  H
  H49      1.0000 0.74280  0.10410  0.07570  Biso   1.000  H
  H50      1.0000 0.25720  0.10410  0.42430  Biso   1.000  H
  H51      1.0000 0.24280  0.60410  0.07570  Biso   1.000  H
  H52      1.0000 0.75720  0.60410  0.42430  Biso   1.000  H
  H53      1.0000 0.25720  0.89590  0.92430  Biso   1.000  H
  H54      1.0000 0.74280  0.89590  0.57570  Biso   1.000  H
  H55      1.0000 0.75720  0.39590  0.92430  Biso   1.000  H
  H56      1.0000 0.24280  0.39590  0.57570  Biso   1.000  H
  C49      1.0000 0.56999  0.94410  0.09500  Biso   1.000  C
  C50      1.0000 0.43001  0.94410  0.40500  Biso   1.000  C
  C51      1.0000 0.06999  0.44410  0.09500  Biso   1.000  C
  C52      1.0000 0.93001  0.44410  0.40500  Biso   1.000  C
  C53      1.0000 0.43001  0.05590  0.90500  Biso   1.000  C
  C54      1.0000 0.56999  0.05590  0.59500  Biso   1.000  C
  C55      1.0000 0.93001  0.55590  0.90500  Biso   1.000  C
  C56      1.0000 0.06999  0.55590  0.59500  Biso   1.000  C
  H57      1.0000 0.57370  0.00020  0.16750  Biso   1.000  H
  H58      1.0000 0.42630  0.00020  0.33250  Biso   1.000  H
  H59      1.0000 0.07370  0.50020  0.16750  Biso   1.000  H
  H60      1.0000 0.92630  0.50020  0.33250  Biso   1.000  H
  H61      1.0000 0.42630  0.99980  0.83250  Biso   1.000  H
  H62      1.0000 0.57370  0.99980  0.66750  Biso   1.000  H
  H63      1.0000 0.92630  0.49980  0.83250  Biso   1.000  H
  H64      1.0000 0.07370  0.49980  0.66750  Biso   1.000  H
  C57      1.0000 0.54508  0.89350  0.06520  Biso   1.000  C
  C58      1.0000 0.45492  0.89350  0.43480  Biso   1.000  C
  C59      1.0000 0.04508  0.39350  0.06520  Biso   1.000  C
  C60      1.0000 0.95492  0.39350  0.43480  Biso   1.000  C
  C61      1.0000 0.45492  0.10650  0.93480  Biso   1.000  C
  C62      1.0000 0.54508  0.10650  0.56520  Biso   1.000  C
  C63      1.0000 0.95492  0.60650  0.93480  Biso   1.000  C
  C64      1.0000 0.04508  0.60650  0.56520  Biso   1.000  C
  C65      1.0000 0.53977  0.81160  0.95680  Biso   1.000  C
  C66      1.0000 0.46023  0.81160  0.54320  Biso   1.000  C
  C67      1.0000 0.03977  0.31160  0.95680  Biso   1.000  C
  C68      1.0000 0.96023  0.31160  0.54320  Biso   1.000  C
  C69      1.0000 0.46023  0.18840  0.04320  Biso   1.000  C
  C70      1.0000 0.53977  0.18840  0.45680  Biso   1.000  C
  C71      1.0000 0.96023  0.68840  0.04320  Biso   1.000  C
  C72      1.0000 0.03977  0.68840  0.45680  Biso   1.000  C
  H65      1.0000 0.52310  0.77640  0.93200  Biso   1.000  H
  H66      1.0000 0.47690  0.77640  0.56800  Biso   1.000  H
  H67      1.0000 0.02310  0.27640  0.93200  Biso   1.000  H
  H68      1.0000 0.97690  0.27640  0.56800  Biso   1.000  H
  H69      1.0000 0.47690  0.22360  0.06800  Biso   1.000  H
  H70      1.0000 0.52310  0.22360  0.43200  Biso   1.000  H
  H71      1.0000 0.97690  0.72360  0.06800  Biso   1.000  H
  H72      1.0000 0.02310  0.72360  0.43200  Biso   1.000  H
  C73      1.0000 0.55953  0.78230  0.88500  Biso   1.000  C
  C74      1.0000 0.44047  0.78230  0.61500  Biso   1.000  C
  C75      1.0000 0.05953  0.28230  0.88500  Biso   1.000  C
  C76      1.0000 0.94047  0.28230  0.61500  Biso   1.000  C
  C77      1.0000 0.44047  0.21770  0.11500  Biso   1.000  C
  C78      1.0000 0.55953  0.21770  0.38500  Biso   1.000  C
  C79      1.0000 0.94047  0.71770  0.11500  Biso   1.000  C
  C80      1.0000 0.05953  0.71770  0.38500  Biso   1.000  C
  H73      1.0000 0.55620  0.72650  0.81220  Biso   1.000  H
  H74      1.0000 0.44380  0.72650  0.68780  Biso   1.000  H
  H75      1.0000 0.05620  0.22650  0.81220  Biso   1.000  H
  H76      1.0000 0.94380  0.22650  0.68780  Biso   1.000  H
  H77      1.0000 0.44380  0.27350  0.18780  Biso   1.000  H
  H78      1.0000 0.55620  0.27350  0.31220  Biso   1.000  H
  H79      1.0000 0.94380  0.77350  0.18780  Biso   1.000  H
  H80      1.0000 0.05620  0.77350  0.31220  Biso   1.000  H
  C81      1.0000 0.58380  0.83540  0.92150  Biso   1.000  C
  C82      1.0000 0.41620  0.83540  0.57850  Biso   1.000  C
  C83      1.0000 0.08380  0.33540  0.92150  Biso   1.000  C
  C84      1.0000 0.91620  0.33540  0.57850  Biso   1.000  C
  C85      1.0000 0.41620  0.16460  0.07850  Biso   1.000  C
  C86      1.0000 0.58380  0.16460  0.42150  Biso   1.000  C
  C87      1.0000 0.91620  0.66460  0.07850  Biso   1.000  C
  C88      1.0000 0.08380  0.66460  0.42150  Biso   1.000  C
  H81      1.0000 0.59700  0.81460  0.87340  Biso   1.000  H
  H82      1.0000 0.40300  0.81460  0.62660  Biso   1.000  H
  H83      1.0000 0.09700  0.31460  0.87340  Biso   1.000  H
  H84      1.0000 0.90300  0.31460  0.62660  Biso   1.000  H
  H85      1.0000 0.40300  0.18540  0.12660  Biso   1.000  H
  H86      1.0000 0.59700  0.18540  0.37340  Biso   1.000  H
  H87      1.0000 0.90300  0.68540  0.12660  Biso   1.000  H
  H88      1.0000 0.09700  0.68540  0.37340  Biso   1.000  H
  C89      1.0000 0.52509  0.92950  0.15170  Biso   1.000  C
  C90      1.0000 0.47491  0.92950  0.34830  Biso   1.000  C
  C91      1.0000 0.02509  0.42950  0.15170  Biso   1.000  C
  C92      1.0000 0.97491  0.42950  0.34830  Biso   1.000  C
  C93      1.0000 0.47491  0.07050  0.84830  Biso   1.000  C
  C94      1.0000 0.52509  0.07050  0.65170  Biso   1.000  C
  C95      1.0000 0.97491  0.57050  0.84830  Biso   1.000  C
  C96      1.0000 0.02509  0.57050  0.65170  Biso   1.000  C
  H89      1.0000 0.52780  0.01590  0.18020  Biso   1.000  H
  H90      1.0000 0.47220  0.01590  0.31980  Biso   1.000  H
  H91      1.0000 0.02780  0.51590  0.18020  Biso   1.000  H
  H92      1.0000 0.97220  0.51590  0.31980  Biso   1.000  H
  H93      1.0000 0.47220  0.98410  0.81980  Biso   1.000  H
  H94      1.0000 0.52780  0.98410  0.68020  Biso   1.000  H
  H95      1.0000 0.97220  0.48410  0.81980  Biso   1.000  H
  H96      1.0000 0.02780  0.48410  0.68020  Biso   1.000  H
  H97      1.0000 0.52720  0.87560  0.23000  Biso   1.000  H
  H98      1.0000 0.47280  0.87560  0.27000  Biso   1.000  H
  H99      1.0000 0.02720  0.37560  0.23000  Biso   1.000  H
  H100     1.0000 0.97280  0.37560  0.27000  Biso   1.000  H
  H101     1.0000 0.47280  0.12440  0.77000  Biso   1.000  H
  H102     1.0000 0.52720  0.12440  0.73000  Biso   1.000  H
  H103     1.0000 0.97280  0.62440  0.77000  Biso   1.000  H
  H104     1.0000 0.02720  0.62440  0.73000  Biso   1.000  H
  H105     1.0000 0.50770  0.91980  0.09970  Biso   1.000  H
  H106     1.0000 0.49230  0.91980  0.40030  Biso   1.000  H
  H107     1.0000 0.00770  0.41980  0.09970  Biso   1.000  H
  H108     1.0000 0.99230  0.41980  0.40030  Biso   1.000  H
  H109     1.0000 0.49230  0.08020  0.90030  Biso   1.000  H
  H110     1.0000 0.50770  0.08020  0.59970  Biso   1.000  H
  H111     1.0000 0.99230  0.58020  0.90030  Biso   1.000  H
  H112     1.0000 0.00770  0.58020  0.59970  Biso   1.000  H
  C97      1.0000 0.65581  0.77420  0.14030  Biso   1.000  C
  C98      1.0000 0.34419  0.77420  0.35970  Biso   1.000  C
  C99      1.0000 0.15581  0.27420  0.14030  Biso   1.000  C
  C100     1.0000 0.84419  0.27420  0.35970  Biso   1.000  C
  C101     1.0000 0.34419  0.22580  0.85970  Biso   1.000  C
  C102     1.0000 0.65581  0.22580  0.64030  Biso   1.000  C
  C103     1.0000 0.84419  0.72580  0.85970  Biso   1.000  C
  C104     1.0000 0.15581  0.72580  0.64030  Biso   1.000  C
  C105     1.0000 0.66789  0.65850  0.08880  Biso   1.000  C
  C106     1.0000 0.33211  0.65850  0.41120  Biso   1.000  C
  C107     1.0000 0.16789  0.15850  0.08880  Biso   1.000  C
  C108     1.0000 0.83211  0.15850  0.41120  Biso   1.000  C
  C109     1.0000 0.33211  0.34150  0.91120  Biso   1.000  C
  C110     1.0000 0.66789  0.34150  0.58880  Biso   1.000  C
  C111     1.0000 0.83211  0.84150  0.91120  Biso   1.000  C
  C112     1.0000 0.16789  0.84150  0.58880  Biso   1.000  C
  C113     1.0000 0.69427  0.63240  0.11490  Biso   1.000  C
  C114     1.0000 0.30573  0.63240  0.38510  Biso   1.000  C
  C115     1.0000 0.19427  0.13240  0.11490  Biso   1.000  C
  C116     1.0000 0.80573  0.13240  0.38510  Biso   1.000  C
  C117     1.0000 0.30573  0.36760  0.88510  Biso   1.000  C
  C118     1.0000 0.69427  0.36760  0.61490  Biso   1.000  C
  C119     1.0000 0.80573  0.86760  0.88510  Biso   1.000  C
  C120     1.0000 0.19427  0.86760  0.61490  Biso   1.000  C
  C121     1.0000 0.70422  0.52230  0.06380  Biso   1.000  C
  C122     1.0000 0.29578  0.52230  0.43620  Biso   1.000  C
  C123     1.0000 0.20422  0.02230  0.06380  Biso   1.000  C
  C124     1.0000 0.79578  0.02230  0.43620  Biso   1.000  C
  C125     1.0000 0.29578  0.47770  0.93620  Biso   1.000  C
  C126     1.0000 0.70422  0.47770  0.56380  Biso   1.000  C
  C127     1.0000 0.79578  0.97770  0.93620  Biso   1.000  C
  C128     1.0000 0.20422  0.97770  0.56380  Biso   1.000  C
  H113     1.0000 0.72220  0.50560  0.08190  Biso   1.000  H
  H114     1.0000 0.27780  0.50560  0.41810  Biso   1.000  H
  H115     1.0000 0.22220  0.00560  0.08190  Biso   1.000  H
  H116     1.0000 0.77780  0.00560  0.41810  Biso   1.000  H
  H117     1.0000 0.27780  0.49440  0.91810  Biso   1.000  H
  H118     1.0000 0.72220  0.49440  0.58190  Biso   1.000  H
  H119     1.0000 0.77780  0.99440  0.91810  Biso   1.000  H
  H120     1.0000 0.22220  0.99440  0.58190  Biso   1.000  H
  C129     1.0000 0.68720  0.44020  0.98730  Biso   1.000  C
  C130     1.0000 0.31280  0.44020  0.51270  Biso   1.000  C
  C131     1.0000 0.18720  0.94020  0.98730  Biso   1.000  C
  C132     1.0000 0.81280  0.94020  0.51270  Biso   1.000  C
  C133     1.0000 0.31280  0.55980  0.01270  Biso   1.000  C
  C134     1.0000 0.68720  0.55980  0.48730  Biso   1.000  C
  C135     1.0000 0.81280  0.05980  0.01270  Biso   1.000  C
  C136     1.0000 0.18720  0.05980  0.48730  Biso   1.000  C
  H121     1.0000 0.69370  0.36690  0.95440  Biso   1.000  H
  H122     1.0000 0.30630  0.36690  0.54560  Biso   1.000  H
  H123     1.0000 0.19370  0.86690  0.95440  Biso   1.000  H
  H124     1.0000 0.80630  0.86690  0.54560  Biso   1.000  H
  H125     1.0000 0.30630  0.63310  0.04560  Biso   1.000  H
  H126     1.0000 0.69370  0.63310  0.45440  Biso   1.000  H
  H127     1.0000 0.80630  0.13310  0.04560  Biso   1.000  H
  H128     1.0000 0.19370  0.13310  0.45440  Biso   1.000  H
  C137     1.0000 0.66130  0.46360  0.95880  Biso   1.000  C
  C138     1.0000 0.33870  0.46360  0.54120  Biso   1.000  C
  C139     1.0000 0.16130  0.96360  0.95880  Biso   1.000  C
  C140     1.0000 0.83870  0.96360  0.54120  Biso   1.000  C
  C141     1.0000 0.33870  0.53640  0.04120  Biso   1.000  C
  C142     1.0000 0.66130  0.53640  0.45880  Biso   1.000  C
  C143     1.0000 0.83870  0.03640  0.04120  Biso   1.000  C
  C144     1.0000 0.16130  0.03640  0.45880  Biso   1.000  C
  H129     1.0000 0.64980  0.40700  0.90700  Biso   1.000  H
  H130     1.0000 0.35020  0.40700  0.59300  Biso   1.000  H
  H131     1.0000 0.14980  0.90700  0.90700  Biso   1.000  H
  H132     1.0000 0.85020  0.90700  0.59300  Biso   1.000  H
  H133     1.0000 0.35020  0.59300  0.09300  Biso   1.000  H
  H134     1.0000 0.64980  0.59300  0.40700  Biso   1.000  H
  H135     1.0000 0.85020  0.09300  0.09300  Biso   1.000  H
  H136     1.0000 0.14980  0.09300  0.40700  Biso   1.000  H
  C145     1.0000 0.65181  0.57280  0.00770  Biso   1.000  C
  C146     1.0000 0.34819  0.57280  0.49230  Biso   1.000  C
  C147     1.0000 0.15181  0.07280  0.00770  Biso   1.000  C
  C148     1.0000 0.84819  0.07280  0.49230  Biso   1.000  C
  C149     1.0000 0.34819  0.42720  0.99230  Biso   1.000  C
  C150     1.0000 0.65181  0.42720  0.50770  Biso   1.000  C
  C151     1.0000 0.84819  0.92720  0.99230  Biso   1.000  C
  C152     1.0000 0.15181  0.92720  0.50770  Biso   1.000  C
  H137     1.0000 0.63390  0.58980  0.98530  Biso   1.000  H
  H138     1.0000 0.36610  0.58980  0.51470  Biso   1.000  H
  H139     1.0000 0.13390  0.08980  0.98530  Biso   1.000  H
  H140     1.0000 0.86610  0.08980  0.51470  Biso   1.000  H
  H141     1.0000 0.36610  0.41020  0.01470  Biso   1.000  H
  H142     1.0000 0.63390  0.41020  0.48530  Biso   1.000  H
  H143     1.0000 0.86610  0.91020  0.01470  Biso   1.000  H
  H144     1.0000 0.13390  0.91020  0.48530  Biso   1.000  H
  C153     1.0000 0.59209  0.22540  0.02170  Biso   1.000  C
  C154     1.0000 0.40791  0.22540  0.47830  Biso   1.000  C
  C155     1.0000 0.09209  0.72540  0.02170  Biso   1.000  C
  C156     1.0000 0.90791  0.72540  0.47830  Biso   1.000  C
  C157     1.0000 0.40791  0.77460  0.97830  Biso   1.000  C
  C158     1.0000 0.59209  0.77460  0.52170  Biso   1.000  C
  C159     1.0000 0.90791  0.27460  0.97830  Biso   1.000  C
  C160     1.0000 0.09209  0.27460  0.52170  Biso   1.000  C
  C161     1.0000 0.58185  0.34450  0.07860  Biso   1.000  C
  C162     1.0000 0.41815  0.34450  0.42140  Biso   1.000  C
  C163     1.0000 0.08185  0.84450  0.07860  Biso   1.000  C
  C164     1.0000 0.91815  0.84450  0.42140  Biso   1.000  C
  C165     1.0000 0.41815  0.65550  0.92140  Biso   1.000  C
  C166     1.0000 0.58185  0.65550  0.57860  Biso   1.000  C
  C167     1.0000 0.91815  0.15550  0.92140  Biso   1.000  C
  C168     1.0000 0.08185  0.15550  0.57860  Biso   1.000  C
  C169     1.0000 0.55583  0.38050  0.05470  Biso   1.000  C
  C170     1.0000 0.44417  0.38050  0.44530  Biso   1.000  C
  C171     1.0000 0.05583  0.88050  0.05470  Biso   1.000  C
  C172     1.0000 0.94417  0.88050  0.44530  Biso   1.000  C
  C173     1.0000 0.44417  0.61950  0.94530  Biso   1.000  C
  C174     1.0000 0.55583  0.61950  0.55470  Biso   1.000  C
  C175     1.0000 0.94417  0.11950  0.94530  Biso   1.000  C
  C176     1.0000 0.05583  0.11950  0.55470  Biso   1.000  C
  C177     1.0000 0.54773  0.49160  0.11110  Biso   1.000  C
  C178     1.0000 0.45227  0.49160  0.38890  Biso   1.000  C
  C179     1.0000 0.04773  0.99160  0.11110  Biso   1.000  C
  C180     1.0000 0.95227  0.99160  0.38890  Biso   1.000  C
  C181     1.0000 0.45227  0.50840  0.88890  Biso   1.000  C
  C182     1.0000 0.54773  0.50840  0.61110  Biso   1.000  C
  C183     1.0000 0.95227  0.00840  0.88890  Biso   1.000  C
  C184     1.0000 0.04773  0.00840  0.61110  Biso   1.000  C
  H145     1.0000 0.53000  0.51410  0.09560  Biso   1.000  H
  H146     1.0000 0.47000  0.51410  0.40440  Biso   1.000  H
  H147     1.0000 0.03000  0.01410  0.09560  Biso   1.000  H
  H148     1.0000 0.97000  0.01410  0.40440  Biso   1.000  H
  H149     1.0000 0.47000  0.48590  0.90440  Biso   1.000  H
  H150     1.0000 0.53000  0.48590  0.59560  Biso   1.000  H
  H151     1.0000 0.97000  0.98590  0.90440  Biso   1.000  H
  H152     1.0000 0.03000  0.98590  0.59560  Biso   1.000  H
  C185     1.0000 0.56566  0.56540  0.18770  Biso   1.000  C
  C186     1.0000 0.43434  0.56540  0.31230  Biso   1.000  C
  C187     1.0000 0.06566  0.06540  0.18770  Biso   1.000  C
  C188     1.0000 0.93434  0.06540  0.31230  Biso   1.000  C
  C189     1.0000 0.43434  0.43460  0.81230  Biso   1.000  C
  C190     1.0000 0.56566  0.43460  0.68770  Biso   1.000  C
  C191     1.0000 0.93434  0.93460  0.81230  Biso   1.000  C
  C192     1.0000 0.06566  0.93460  0.68770  Biso   1.000  C
  H153     1.0000 0.56020  0.63900  0.22510  Biso   1.000  H
  H154     1.0000 0.43980  0.63900  0.27490  Biso   1.000  H
  H155     1.0000 0.06020  0.13900  0.22510  Biso   1.000  H
  H156     1.0000 0.93980  0.13900  0.27490  Biso   1.000  H
  H157     1.0000 0.43980  0.36100  0.77490  Biso   1.000  H
  H158     1.0000 0.56020  0.36100  0.72510  Biso   1.000  H
  H159     1.0000 0.93980  0.86100  0.77490  Biso   1.000  H
  H160     1.0000 0.06020  0.86100  0.72510  Biso   1.000  H
  C193     1.0000 0.59163  0.53480  0.21170  Biso   1.000  C
  C194     1.0000 0.40837  0.53480  0.28830  Biso   1.000  C
  C195     1.0000 0.09163  0.03480  0.21170  Biso   1.000  C
  C196     1.0000 0.90837  0.03480  0.28830  Biso   1.000  C
  C197     1.0000 0.40837  0.46520  0.78830  Biso   1.000  C
  C198     1.0000 0.59163  0.46520  0.71170  Biso   1.000  C
  C199     1.0000 0.90837  0.96520  0.78830  Biso   1.000  C
  C200     1.0000 0.09163  0.96520  0.71170  Biso   1.000  C
  H161     1.0000 0.60390  0.58830  0.26280  Biso   1.000  H
  H162     1.0000 0.39610  0.58830  0.23720  Biso   1.000  H
  H163     1.0000 0.10390  0.08830  0.26280  Biso   1.000  H
  H164     1.0000 0.89610  0.08830  0.23720  Biso   1.000  H
  H165     1.0000 0.39610  0.41170  0.73720  Biso   1.000  H
  H166     1.0000 0.60390  0.41170  0.76280  Biso   1.000  H
  H167     1.0000 0.89610  0.91170  0.73720  Biso   1.000  H
  H168     1.0000 0.10390  0.91170  0.76280  Biso   1.000  H
  C201     1.0000 0.59974  0.42320  0.15930  Biso   1.000  C
  C202     1.0000 0.40026  0.42320  0.34070  Biso   1.000  C
  C203     1.0000 0.09974  0.92320  0.15930  Biso   1.000  C
  C204     1.0000 0.90026  0.92320  0.34070  Biso   1.000  C
  C205     1.0000 0.40026  0.57680  0.84070  Biso   1.000  C
  C206     1.0000 0.59974  0.57680  0.65930  Biso   1.000  C
  C207     1.0000 0.90026  0.07680  0.84070  Biso   1.000  C
  C208     1.0000 0.09974  0.07680  0.65930  Biso   1.000  C
  H169     1.0000 0.61740  0.40070  0.17860  Biso   1.000  H
  H170     1.0000 0.38260  0.40070  0.32140  Biso   1.000  H
  H171     1.0000 0.11740  0.90070  0.17860  Biso   1.000  H
  H172     1.0000 0.88260  0.90070  0.32140  Biso   1.000  H
  H173     1.0000 0.38260  0.59930  0.82140  Biso   1.000  H
  H174     1.0000 0.61740  0.59930  0.67860  Biso   1.000  H
  H175     1.0000 0.88260  0.09930  0.82140  Biso   1.000  H
  H176     1.0000 0.11740  0.09930  0.67860  Biso   1.000  H
  O33      1.0000 0.62365  0.04850  0.83320  Biso   1.000  O
  O34      1.0000 0.37635  0.04850  0.66680  Biso   1.000  O
  O35      1.0000 0.12365  0.54850  0.83320  Biso   1.000  O
  O36      1.0000 0.87635  0.54850  0.66680  Biso   1.000  O
  O37      1.0000 0.37635  0.95150  0.16680  Biso   1.000  O
  O38      1.0000 0.62365  0.95150  0.33320  Biso   1.000  O
  O39      1.0000 0.87635  0.45150  0.16680  Biso   1.000  O
  O40      1.0000 0.12365  0.45150  0.33320  Biso   1.000  O
  H177     1.0000 0.63620  0.09000  0.81700  Biso   1.000  H
  H178     1.0000 0.36380  0.09000  0.68300  Biso   1.000  H
  H179     1.0000 0.13620  0.59000  0.81700  Biso   1.000  H
  H180     1.0000 0.86380  0.59000  0.68300  Biso   1.000  H
  H181     1.0000 0.36380  0.91000  0.18300  Biso   1.000  H
  H182     1.0000 0.63620  0.91000  0.31700  Biso   1.000  H
  H183     1.0000 0.86380  0.41000  0.18300  Biso   1.000  H
  H184     1.0000 0.13620  0.41000  0.31700  Biso   1.000  H
  H185     1.0000 0.61270  0.09400  0.83800  Biso   1.000  H
  H186     1.0000 0.38730  0.09400  0.66200  Biso   1.000  H
  H187     1.0000 0.11270  0.59400  0.83800  Biso   1.000  H
  H188     1.0000 0.88730  0.59400  0.66200  Biso   1.000  H
  H189     1.0000 0.38730  0.90600  0.16200  Biso   1.000  H
  H190     1.0000 0.61270  0.90600  0.33800  Biso   1.000  H
  H191     1.0000 0.88730  0.40600  0.16200  Biso   1.000  H
  H192     1.0000 0.11270  0.40600  0.33800  Biso   1.000  H
