data_image0
_cell_length_a       10.5781
_cell_length_b       7.7753
_cell_length_c       23.7726
_cell_angle_alpha    90
_cell_angle_beta     98.381
_cell_angle_gamma    90

_symmetry_space_group_name_H-M    "P 1"
_symmetry_int_tables_number       1

loop_
  _symmetry_equiv_pos_as_xyz
  'x, y, z'

loop_
  _atom_site_label
  _atom_site_occupancy
  _atom_site_fract_x
  _atom_site_fract_y
  _atom_site_fract_z
  _atom_site_thermal_displace_type
  _atom_site_B_iso_or_equiv
  _atom_site_type_symbol
  C1       1.0000 0.18650  0.08000  0.12920  Biso   1.000  C
  C2       1.0000 0.31350  0.58000  0.37080  Biso   1.000  C
  C3       1.0000 0.81350  0.92000  0.87080  Biso   1.000  C
  C4       1.0000 0.68650  0.42000  0.62920  Biso   1.000  C
  H1       1.0000 0.10760  0.06580  0.14150  Biso   1.000  H
  H2       1.0000 0.39240  0.56580  0.35850  Biso   1.000  H
  H3       1.0000 0.89240  0.93420  0.85850  Biso   1.000  H
  H4       1.0000 0.60760  0.43420  0.64150  Biso   1.000  H
  C5       1.0000 0.19200  0.07780  0.07310  Biso   1.000  C
  C6       1.0000 0.30800  0.57780  0.42690  Biso   1.000  C
  C7       1.0000 0.80800  0.92220  0.92690  Biso   1.000  C
  C8       1.0000 0.69200  0.42220  0.57310  Biso   1.000  C
  H5       1.0000 0.11840  0.06120  0.04710  Biso   1.000  H
  H6       1.0000 0.38160  0.56120  0.45290  Biso   1.000  H
  H7       1.0000 0.88160  0.93880  0.95290  Biso   1.000  H
  H8       1.0000 0.61840  0.43880  0.54710  Biso   1.000  H
  C9       1.0000 0.30630  0.10010  0.05490  Biso   1.000  C
  C10      1.0000 0.19370  0.60010  0.44510  Biso   1.000  C
  C11      1.0000 0.69370  0.89990  0.94510  Biso   1.000  C
  C12      1.0000 0.80630  0.39990  0.55490  Biso   1.000  C
  H9       1.0000 0.31220  0.09700  0.01630  Biso   1.000  H
  H10      1.0000 0.18780  0.59700  0.48370  Biso   1.000  H
  H11      1.0000 0.68780  0.90300  0.98370  Biso   1.000  H
  H12      1.0000 0.81220  0.40300  0.51630  Biso   1.000  H
  C13      1.0000 0.41400  0.12740  0.09420  Biso   1.000  C
  C14      1.0000 0.08600  0.62740  0.40580  Biso   1.000  C
  C15      1.0000 0.58600  0.87260  0.90580  Biso   1.000  C
  C16      1.0000 0.91400  0.37260  0.59420  Biso   1.000  C
  H13      1.0000 0.49270  0.14580  0.08220  Biso   1.000  H
  H14      1.0000 0.00730  0.64580  0.41780  Biso   1.000  H
  H15      1.0000 0.50730  0.85420  0.91780  Biso   1.000  H
  H16      1.0000 0.99270  0.35420  0.58220  Biso   1.000  H
  C17      1.0000 0.40400  0.12720  0.15090  Biso   1.000  C
  C18      1.0000 0.09600  0.62720  0.34910  Biso   1.000  C
  C19      1.0000 0.59600  0.87280  0.84910  Biso   1.000  C
  C20      1.0000 0.90400  0.37280  0.65090  Biso   1.000  C
  C21      1.0000 0.51670  0.14690  0.19640  Biso   1.000  C
  C22      1.0000 0.98330  0.64690  0.30360  Biso   1.000  C
  C23      1.0000 0.48330  0.85310  0.80360  Biso   1.000  C
  C24      1.0000 0.01670  0.35310  0.69640  Biso   1.000  C
  H17      1.0000 0.56420  0.03990  0.20110  Biso   1.000  H
  H18      1.0000 0.93580  0.53990  0.29890  Biso   1.000  H
  H19      1.0000 0.43580  0.96010  0.79890  Biso   1.000  H
  H20      1.0000 0.06420  0.46010  0.70110  Biso   1.000  H
  H21      1.0000 0.57300  0.23590  0.18590  Biso   1.000  H
  H22      1.0000 0.92700  0.73590  0.31410  Biso   1.000  H
  H23      1.0000 0.42700  0.76410  0.81410  Biso   1.000  H
  H24      1.0000 0.07300  0.26410  0.68590  Biso   1.000  H
  C25      1.0000 0.55600  0.15280  0.30250  Biso   1.000  C
  C26      1.0000 0.94400  0.65280  0.19750  Biso   1.000  C
  C27      1.0000 0.44400  0.84720  0.69750  Biso   1.000  C
  C28      1.0000 0.05600  0.34720  0.80250  Biso   1.000  C
  H25      1.0000 0.62120  0.24090  0.31020  Biso   1.000  H
  H26      1.0000 0.87880  0.74090  0.18980  Biso   1.000  H
  H27      1.0000 0.37880  0.75910  0.68980  Biso   1.000  H
  H28      1.0000 0.12120  0.25910  0.81020  Biso   1.000  H
  H29      1.0000 0.59810  0.04350  0.29860  Biso   1.000  H
  H30      1.0000 0.90190  0.54350  0.20140  Biso   1.000  H
  H31      1.0000 0.40190  0.95650  0.70140  Biso   1.000  H
  H32      1.0000 0.09810  0.45650  0.79860  Biso   1.000  H
  C29      1.0000 0.47920  0.14370  0.35060  Biso   1.000  C
  C30      1.0000 0.02080  0.64370  0.14940  Biso   1.000  C
  C31      1.0000 0.52080  0.85630  0.64940  Biso   1.000  C
  C32      1.0000 0.97920  0.35630  0.85060  Biso   1.000  C
  C33      1.0000 0.53030  0.17350  0.40620  Biso   1.000  C
  C34      1.0000 0.96970  0.67350  0.09380  Biso   1.000  C
  C35      1.0000 0.46970  0.82650  0.59380  Biso   1.000  C
  C36      1.0000 0.03030  0.32650  0.90620  Biso   1.000  C
  H33      1.0000 0.61550  0.20520  0.41580  Biso   1.000  H
  H34      1.0000 0.88450  0.70520  0.08420  Biso   1.000  H
  H35      1.0000 0.38450  0.79480  0.58420  Biso   1.000  H
  H36      1.0000 0.11550  0.29480  0.91580  Biso   1.000  H
  C37      1.0000 0.45230  0.15520  0.44780  Biso   1.000  C
  C38      1.0000 0.04770  0.65520  0.05220  Biso   1.000  C
  C39      1.0000 0.54770  0.84480  0.55220  Biso   1.000  C
  C40      1.0000 0.95230  0.34480  0.94780  Biso   1.000  C
  H37      1.0000 0.48430  0.17650  0.48570  Biso   1.000  H
  H38      1.0000 0.01570  0.67650  0.01430  Biso   1.000  H
  H39      1.0000 0.51570  0.82350  0.51430  Biso   1.000  H
  H40      1.0000 0.98430  0.32350  0.98570  Biso   1.000  H
  C41      1.0000 0.32750  0.10540  0.43280  Biso   1.000  C
  C42      1.0000 0.17250  0.60540  0.06720  Biso   1.000  C
  C43      1.0000 0.67250  0.89460  0.56720  Biso   1.000  C
  C44      1.0000 0.82750  0.39460  0.93280  Biso   1.000  C
  H41      1.0000 0.27460  0.08830  0.46030  Biso   1.000  H
  H42      1.0000 0.22540  0.58830  0.03970  Biso   1.000  H
  H43      1.0000 0.72540  0.91170  0.53970  Biso   1.000  H
  H44      1.0000 0.77460  0.41170  0.96030  Biso   1.000  H
  C45      1.0000 0.28300  0.08170  0.37680  Biso   1.000  C
  C46      1.0000 0.21700  0.58170  0.12320  Biso   1.000  C
  C47      1.0000 0.71700  0.91830  0.62320  Biso   1.000  C
  C48      1.0000 0.78300  0.41830  0.87680  Biso   1.000  C
  H45      1.0000 0.19770  0.05150  0.36660  Biso   1.000  H
  H46      1.0000 0.30230  0.55150  0.13340  Biso   1.000  H
  H47      1.0000 0.80230  0.94850  0.63340  Biso   1.000  H
  H48      1.0000 0.69770  0.44850  0.86660  Biso   1.000  H
  C49      1.0000 0.05660  0.16920  0.25770  Biso   1.000  C
  C50      1.0000 0.44340  0.66920  0.24230  Biso   1.000  C
  C51      1.0000 0.94340  0.83080  0.74230  Biso   1.000  C
  C52      1.0000 0.55660  0.33080  0.75770  Biso   1.000  C
  C53      1.0000 0.91900  0.14750  0.26410  Biso   1.000  C
  C54      1.0000 0.58100  0.64750  0.23590  Biso   1.000  C
  C55      1.0000 0.08100  0.85250  0.73590  Biso   1.000  C
  C56      1.0000 0.41900  0.35250  0.76410  Biso   1.000  C
  H49      1.0000 0.91270  0.08910  0.29910  Biso   1.000  H
  H50      1.0000 0.58730  0.58910  0.20090  Biso   1.000  H
  H51      1.0000 0.08730  0.91090  0.70090  Biso   1.000  H
  H52      1.0000 0.41270  0.41090  0.79910  Biso   1.000  H
  H53      1.0000 0.87670  0.08120  0.23280  Biso   1.000  H
  H54      1.0000 0.62330  0.58120  0.26720  Biso   1.000  H
  H55      1.0000 0.12330  0.91880  0.76720  Biso   1.000  H
  H56      1.0000 0.37670  0.41880  0.73280  Biso   1.000  H
  H57      1.0000 0.87930  0.25850  0.26440  Biso   1.000  H
  H58      1.0000 0.62070  0.75850  0.23560  Biso   1.000  H
  H59      1.0000 0.12070  0.74150  0.73560  Biso   1.000  H
  H60      1.0000 0.37930  0.24150  0.76440  Biso   1.000  H
  N1       1.0000 0.35560  0.09980  0.33559  Biso   1.000  N
  N2       1.0000 0.14440  0.59980  0.16441  Biso   1.000  N
  N3       1.0000 0.64440  0.90020  0.66441  Biso   1.000  N
  N4       1.0000 0.85560  0.40020  0.83559  Biso   1.000  N
  N5       1.0000 0.29060  0.10180  0.16838  Biso   1.000  N
  N6       1.0000 0.20940  0.60180  0.33162  Biso   1.000  N
  N7       1.0000 0.70940  0.89820  0.83162  Biso   1.000  N
  N8       1.0000 0.79060  0.39820  0.66838  Biso   1.000  N
  N9       1.0000 0.47120  0.19320  0.24981  Biso   1.000  N
  N10      1.0000 0.02880  0.69320  0.25019  Biso   1.000  N
  N11      1.0000 0.52880  0.80680  0.75019  Biso   1.000  N
  N12      1.0000 0.97120  0.30680  0.74981  Biso   1.000  N
  H61      1.0000 0.44900  0.30500  0.25200  Biso   1.000  H
  H62      1.0000 0.05100  0.80500  0.24800  Biso   1.000  H
  H63      1.0000 0.55100  0.69500  0.74800  Biso   1.000  H
  H64      1.0000 0.94900  0.19500  0.75200  Biso   1.000  H
  O1       1.0000 0.12240  0.03140  0.25544  Biso   1.000  O
  O2       1.0000 0.37760  0.53140  0.24456  Biso   1.000  O
  O3       1.0000 0.87760  0.96860  0.74456  Biso   1.000  O
  O4       1.0000 0.62240  0.46860  0.75544  Biso   1.000  O
  O5       1.0000 0.10440  0.31230  0.25534  Biso   1.000  O
  O6       1.0000 0.39560  0.81230  0.24466  Biso   1.000  O
  O7       1.0000 0.89560  0.68770  0.74466  Biso   1.000  O
  O8       1.0000 0.60440  0.18770  0.75534  Biso   1.000  O
  Cu1      1.0000 0.30084  0.08807  0.25227  Biso   1.000  Cu
  Cu2      1.0000 0.19916  0.58807  0.24773  Biso   1.000  Cu
  Cu3      1.0000 0.69916  0.91193  0.74773  Biso   1.000  Cu
  Cu4      1.0000 0.80084  0.41193  0.75227  Biso   1.000  Cu
  C57      1.0000 0.51890  0.52780  0.09070  Biso   1.000  C
  C58      1.0000 0.98110  0.02780  0.40930  Biso   1.000  C
  C59      1.0000 0.48110  0.47220  0.90930  Biso   1.000  C
  C60      1.0000 0.01890  0.97220  0.59070  Biso   1.000  C
  O9       1.0000 0.56500  0.65900  0.06190  Biso   1.000  O
  O10      1.0000 0.93500  0.15900  0.43810  Biso   1.000  O
  O11      1.0000 0.43500  0.34100  0.93810  Biso   1.000  O
  O12      1.0000 0.06500  0.84100  0.56190  Biso   1.000  O
  C61      1.0000 0.54500  0.67000  0.07000  Biso   1.000  C
  C62      1.0000 0.95500  0.17000  0.43000  Biso   1.000  C
  C63      1.0000 0.45500  0.33000  0.93000  Biso   1.000  C
  C64      1.0000 0.04500  0.83000  0.57000  Biso   1.000  C
  O13      1.0000 0.61500  0.56100  0.10680  Biso   1.000  O
  O14      1.0000 0.88500  0.06100  0.39320  Biso   1.000  O
  O15      1.0000 0.38500  0.43900  0.89320  Biso   1.000  O
  O16      1.0000 0.11500  0.93900  0.60680  Biso   1.000  O
  O17      1.0000 0.75580  0.31600  0.13300  Biso   1.000  O
  O18      1.0000 0.74420  0.81600  0.36700  Biso   1.000  O
  O19      1.0000 0.24420  0.68400  0.86700  Biso   1.000  O
  O20      1.0000 0.25580  0.18400  0.63300  Biso   1.000  O
  O21      1.0000 0.70520  0.18300  0.04590  Biso   1.000  O
  O22      1.0000 0.79480  0.68300  0.45410  Biso   1.000  O
  O23      1.0000 0.29480  0.81700  0.95410  Biso   1.000  O
  O24      1.0000 0.20520  0.31700  0.54590  Biso   1.000  O
  O25      1.0000 0.91830  0.23300  0.08390  Biso   1.000  O
  O26      1.0000 0.58170  0.73300  0.41610  Biso   1.000  O
  O27      1.0000 0.08170  0.76700  0.91610  Biso   1.000  O
  O28      1.0000 0.41830  0.26700  0.58390  Biso   1.000  O
  O29      1.0000 0.79810  0.02360  0.12450  Biso   1.000  O
  O30      1.0000 0.70190  0.52360  0.37550  Biso   1.000  O
  O31      1.0000 0.20190  0.97640  0.87550  Biso   1.000  O
  O32      1.0000 0.29810  0.47640  0.62450  Biso   1.000  O
  O33      1.0000 0.87210  0.27780  0.13180  Biso   1.000  O
  O34      1.0000 0.62790  0.77780  0.36820  Biso   1.000  O
  O35      1.0000 0.12790  0.72220  0.86820  Biso   1.000  O
  O36      1.0000 0.37210  0.22220  0.63180  Biso   1.000  O
  O37      1.0000 0.70720  0.26400  0.05980  Biso   1.000  O
  O38      1.0000 0.79280  0.76400  0.44020  Biso   1.000  O
  O39      1.0000 0.29280  0.73600  0.94020  Biso   1.000  O
  O40      1.0000 0.20720  0.23600  0.55980  Biso   1.000  O
  O41      1.0000 0.87740  0.09560  0.05950  Biso   1.000  O
  O42      1.0000 0.62260  0.59560  0.44050  Biso   1.000  O
  O43      1.0000 0.12260  0.90440  0.94050  Biso   1.000  O
  O44      1.0000 0.37740  0.40440  0.55950  Biso   1.000  O
  O45      1.0000 0.74300  0.04670  0.12180  Biso   1.000  O
  O46      1.0000 0.75700  0.54670  0.37820  Biso   1.000  O
  O47      1.0000 0.25700  0.95330  0.87820  Biso   1.000  O
  O48      1.0000 0.24300  0.45330  0.62180  Biso   1.000  O
  Cl1      1.0000 0.79804  0.17800  0.09522  Biso   1.000  Cl
  Cl2      1.0000 0.70196  0.67800  0.40478  Biso   1.000  Cl
  Cl3      1.0000 0.20196  0.82200  0.90478  Biso   1.000  Cl
  Cl4      1.0000 0.29804  0.32200  0.59522  Biso   1.000  Cl
