data_image0
_cell_length_a       9.2368
_cell_length_b       12.517
_cell_length_c       16.062
_cell_angle_alpha    90
_cell_angle_beta     105.99
_cell_angle_gamma    90

_symmetry_space_group_name_H-M    "P 1"
_symmetry_int_tables_number       1

loop_
  _symmetry_equiv_pos_as_xyz
  'x, y, z'

loop_
  _atom_site_label
  _atom_site_occupancy
  _atom_site_fract_x
  _atom_site_fract_y
  _atom_site_fract_z
  _atom_site_thermal_displace_type
  _atom_site_B_iso_or_equiv
  _atom_site_type_symbol
  Cu1      1.0000 0.24449  0.20184  0.02057  Biso   1.000  Cu
  Cu2      1.0000 0.75551  0.70184  0.47943  Biso   1.000  Cu
  Cu3      1.0000 0.75551  0.79816  0.97943  Biso   1.000  Cu
  Cu4      1.0000 0.24449  0.29816  0.52057  Biso   1.000  Cu
  N1       1.0000 0.06160  0.12740  0.05430  Biso   1.000  N
  N2       1.0000 0.93840  0.62740  0.44570  Biso   1.000  N
  N3       1.0000 0.93840  0.87260  0.94570  Biso   1.000  N
  N4       1.0000 0.06160  0.37260  0.55430  Biso   1.000  N
  N5       1.0000 0.35290  0.11140  0.12400  Biso   1.000  N
  N6       1.0000 0.64710  0.61140  0.37600  Biso   1.000  N
  N7       1.0000 0.64710  0.88860  0.87600  Biso   1.000  N
  N8       1.0000 0.35290  0.38860  0.62400  Biso   1.000  N
  N9       1.0000 0.50130  0.09160  0.16620  Biso   1.000  N
  N10      1.0000 0.49870  0.59160  0.33380  Biso   1.000  N
  N11      1.0000 0.49870  0.90840  0.83380  Biso   1.000  N
  N12      1.0000 0.50130  0.40840  0.66620  Biso   1.000  N
  N13      1.0000 0.35370  0.00960  0.23370  Biso   1.000  N
  N14      1.0000 0.64630  0.50960  0.26630  Biso   1.000  N
  N15      1.0000 0.64630  0.99040  0.76630  Biso   1.000  N
  N16      1.0000 0.35370  0.49040  0.73370  Biso   1.000  N
  N17      1.0000 0.76220  0.84930  0.39370  Biso   1.000  N
  N18      1.0000 0.23780  0.34930  0.10630  Biso   1.000  N
  N19      1.0000 0.23780  0.15070  0.60630  Biso   1.000  N
  N20      1.0000 0.76220  0.65070  0.89370  Biso   1.000  N
  N21      1.0000 0.23510  0.84450  0.43360  Biso   1.000  N
  N22      1.0000 0.76490  0.34450  0.06640  Biso   1.000  N
  N23      1.0000 0.76490  0.15550  0.56640  Biso   1.000  N
  N24      1.0000 0.23510  0.65550  0.93360  Biso   1.000  N
  N25      1.0000 0.10280  0.25690  0.91510  Biso   1.000  N
  N26      1.0000 0.89720  0.75690  0.58490  Biso   1.000  N
  N27      1.0000 0.89720  0.74310  0.08490  Biso   1.000  N
  N28      1.0000 0.10280  0.24310  0.41510  Biso   1.000  N
  N29      1.0000 0.12610  0.25810  0.84630  Biso   1.000  N
  N30      1.0000 0.87390  0.75810  0.65370  Biso   1.000  N
  N31      1.0000 0.87390  0.74190  0.15370  Biso   1.000  N
  N32      1.0000 0.12610  0.24190  0.34630  Biso   1.000  N
  N33      1.0000 0.14250  0.26080  0.77820  Biso   1.000  N
  N34      1.0000 0.85750  0.76080  0.72180  Biso   1.000  N
  N35      1.0000 0.85750  0.73920  0.22180  Biso   1.000  N
  N36      1.0000 0.14250  0.23920  0.27820  Biso   1.000  N
  N37      1.0000 0.42890  0.23180  0.98880  Biso   1.000  N
  N38      1.0000 0.57110  0.73180  0.51120  Biso   1.000  N
  N39      1.0000 0.57110  0.76820  0.01120  Biso   1.000  N
  N40      1.0000 0.42890  0.26820  0.48880  Biso   1.000  N
  N41      1.0000 0.47050  0.21880  0.92680  Biso   1.000  N
  N42      1.0000 0.52950  0.71880  0.57320  Biso   1.000  N
  N43      1.0000 0.52950  0.78120  0.07320  Biso   1.000  N
  N44      1.0000 0.47050  0.28120  0.42680  Biso   1.000  N
  N45      1.0000 0.52230  0.21350  0.87100  Biso   1.000  N
  N46      1.0000 0.47770  0.71350  0.62900  Biso   1.000  N
  N47      1.0000 0.47770  0.78650  0.12900  Biso   1.000  N
  N48      1.0000 0.52230  0.28650  0.37100  Biso   1.000  N
  C1       1.0000 0.91520  0.13490  0.01140  Biso   1.000  C
  C2       1.0000 0.08480  0.63490  0.48860  Biso   1.000  C
  C3       1.0000 0.08480  0.86510  0.98860  Biso   1.000  C
  C4       1.0000 0.91520  0.36510  0.51140  Biso   1.000  C
  H1       1.0000 0.88750  0.17810  0.96250  Biso   1.000  H
  H2       1.0000 0.11250  0.67810  0.53750  Biso   1.000  H
  H3       1.0000 0.11250  0.82190  0.03750  Biso   1.000  H
  H4       1.0000 0.88750  0.32190  0.46250  Biso   1.000  H
  C5       1.0000 0.80310  0.08100  0.03680  Biso   1.000  C
  C6       1.0000 0.19690  0.58100  0.46320  Biso   1.000  C
  C7       1.0000 0.19690  0.91900  0.96320  Biso   1.000  C
  C8       1.0000 0.80310  0.41900  0.53680  Biso   1.000  C
  H5       1.0000 0.70300  0.08630  0.00450  Biso   1.000  H
  H6       1.0000 0.29700  0.58630  0.49550  Biso   1.000  H
  H7       1.0000 0.29700  0.91370  0.99550  Biso   1.000  H
  H8       1.0000 0.70300  0.41370  0.50450  Biso   1.000  H
  C9       1.0000 0.84280  0.01930  0.11120  Biso   1.000  C
  C10      1.0000 0.15720  0.51930  0.38880  Biso   1.000  C
  C11      1.0000 0.15720  0.98070  0.88880  Biso   1.000  C
  C12      1.0000 0.84280  0.48070  0.61120  Biso   1.000  C
  H9       1.0000 0.76960  0.98280  0.12970  Biso   1.000  H
  H10      1.0000 0.23040  0.48280  0.37030  Biso   1.000  H
  H11      1.0000 0.23040  0.01720  0.87030  Biso   1.000  H
  H12      1.0000 0.76960  0.51720  0.62970  Biso   1.000  H
  C13      1.0000 0.99320  0.01280  0.15790  Biso   1.000  C
  C14      1.0000 0.00680  0.51280  0.34210  Biso   1.000  C
  C15      1.0000 0.00680  0.98720  0.84210  Biso   1.000  C
  C16      1.0000 0.99320  0.48720  0.65790  Biso   1.000  C
  H13      1.0000 0.02180  0.97310  0.20880  Biso   1.000  H
  H14      1.0000 0.97820  0.47310  0.29120  Biso   1.000  H
  H15      1.0000 0.97820  0.02690  0.79120  Biso   1.000  H
  H16      1.0000 0.02180  0.52690  0.70880  Biso   1.000  H
  C17      1.0000 0.10070  0.06610  0.12770  Biso   1.000  C
  C18      1.0000 0.89930  0.56610  0.37230  Biso   1.000  C
  C19      1.0000 0.89930  0.93390  0.87230  Biso   1.000  C
  C20      1.0000 0.10070  0.43390  0.62770  Biso   1.000  C
  C21      1.0000 0.26480  0.06230  0.16380  Biso   1.000  C
  C22      1.0000 0.73520  0.56230  0.33620  Biso   1.000  C
  C23      1.0000 0.73520  0.93770  0.83620  Biso   1.000  C
  C24      1.0000 0.26480  0.43770  0.66380  Biso   1.000  C
  C25      1.0000 0.50030  0.02950  0.23230  Biso   1.000  C
  C26      1.0000 0.49970  0.52950  0.26770  Biso   1.000  C
  C27      1.0000 0.49970  0.97050  0.76770  Biso   1.000  C
  C28      1.0000 0.50030  0.47050  0.73230  Biso   1.000  C
  C29      1.0000 0.63580  0.98760  0.29500  Biso   1.000  C
  C30      1.0000 0.36420  0.48760  0.20500  Biso   1.000  C
  C31      1.0000 0.36420  0.01240  0.70500  Biso   1.000  C
  C32      1.0000 0.63580  0.51240  0.79500  Biso   1.000  C
  C33      1.0000 0.76750  0.04850  0.31740  Biso   1.000  C
  C34      1.0000 0.23250  0.54850  0.18260  Biso   1.000  C
  C35      1.0000 0.23250  0.95150  0.68260  Biso   1.000  C
  C36      1.0000 0.76750  0.45150  0.81740  Biso   1.000  C
  H17      1.0000 0.76910  0.11610  0.29360  Biso   1.000  H
  H18      1.0000 0.23090  0.61610  0.20640  Biso   1.000  H
  H19      1.0000 0.23090  0.88390  0.70640  Biso   1.000  H
  H20      1.0000 0.76910  0.38390  0.79360  Biso   1.000  H
  C37      1.0000 0.89430  0.00810  0.37450  Biso   1.000  C
  C38      1.0000 0.10570  0.50810  0.12550  Biso   1.000  C
  C39      1.0000 0.10570  0.99190  0.62550  Biso   1.000  C
  C40      1.0000 0.89430  0.49190  0.87450  Biso   1.000  C
  H21      1.0000 0.98380  0.04670  0.38810  Biso   1.000  H
  H22      1.0000 0.01620  0.54670  0.11190  Biso   1.000  H
  H23      1.0000 0.01620  0.95330  0.61190  Biso   1.000  H
  H24      1.0000 0.98380  0.45330  0.88810  Biso   1.000  H
  C41      1.0000 0.88740  0.90890  0.41190  Biso   1.000  C
  C42      1.0000 0.11260  0.40890  0.08810  Biso   1.000  C
  C43      1.0000 0.11260  0.09110  0.58810  Biso   1.000  C
  C44      1.0000 0.88740  0.59110  0.91190  Biso   1.000  C
  H25      1.0000 0.97360  0.88260  0.45130  Biso   1.000  H
  H26      1.0000 0.02640  0.38260  0.04870  Biso   1.000  H
  H27      1.0000 0.02640  0.11740  0.54870  Biso   1.000  H
  H28      1.0000 0.97360  0.61740  0.95130  Biso   1.000  H
  C45      1.0000 0.63960  0.88680  0.33410  Biso   1.000  C
  C46      1.0000 0.36040  0.38680  0.16590  Biso   1.000  C
  C47      1.0000 0.36040  0.11320  0.66590  Biso   1.000  C
  C48      1.0000 0.63960  0.61320  0.83410  Biso   1.000  C
  H29      1.0000 0.55400  0.84400  0.31810  Biso   1.000  H
  H30      1.0000 0.44600  0.34400  0.18190  Biso   1.000  H
  H31      1.0000 0.44600  0.15600  0.68190  Biso   1.000  H
  H32      1.0000 0.55400  0.65600  0.81810  Biso   1.000  H
  C49      1.0000 0.30910  0.95410  0.30150  Biso   1.000  C
  C50      1.0000 0.69090  0.45410  0.19850  Biso   1.000  C
  C51      1.0000 0.69090  0.04590  0.69850  Biso   1.000  C
  C52      1.0000 0.30910  0.54590  0.80150  Biso   1.000  C
  C53      1.0000 0.24760  0.85290  0.28650  Biso   1.000  C
  C54      1.0000 0.75240  0.35290  0.21350  Biso   1.000  C
  C55      1.0000 0.75240  0.14710  0.71350  Biso   1.000  C
  C56      1.0000 0.24760  0.64710  0.78650  Biso   1.000  C
  H33      1.0000 0.23180  0.81970  0.23290  Biso   1.000  H
  H34      1.0000 0.76820  0.31970  0.26710  Biso   1.000  H
  H35      1.0000 0.76820  0.18030  0.76710  Biso   1.000  H
  H36      1.0000 0.23180  0.68030  0.73290  Biso   1.000  H
  C57      1.0000 0.21060  0.80320  0.35500  Biso   1.000  C
  C58      1.0000 0.78940  0.30320  0.14500  Biso   1.000  C
  C59      1.0000 0.78940  0.19680  0.64500  Biso   1.000  C
  C60      1.0000 0.21060  0.69680  0.85500  Biso   1.000  C
  H37      1.0000 0.16540  0.73630  0.34510  Biso   1.000  H
  H38      1.0000 0.83460  0.23630  0.15490  Biso   1.000  H
  H39      1.0000 0.83460  0.26370  0.65490  Biso   1.000  H
  H40      1.0000 0.16540  0.76370  0.84510  Biso   1.000  H
  C61      1.0000 0.29570  0.94090  0.44550  Biso   1.000  C
  C62      1.0000 0.70430  0.44090  0.05450  Biso   1.000  C
  C63      1.0000 0.70430  0.05910  0.55450  Biso   1.000  C
  C64      1.0000 0.29570  0.55910  0.94550  Biso   1.000  C
  H41      1.0000 0.31370  0.97080  0.50040  Biso   1.000  H
  H42      1.0000 0.68630  0.47080  0.99960  Biso   1.000  H
  H43      1.0000 0.68630  0.02920  0.49960  Biso   1.000  H
  H44      1.0000 0.31370  0.52920  0.00040  Biso   1.000  H
  C65      1.0000 0.33480  0.00130  0.38200  Biso   1.000  C
  C66      1.0000 0.66520  0.50130  0.11800  Biso   1.000  C
  C67      1.0000 0.66520  0.99870  0.61800  Biso   1.000  C
  C68      1.0000 0.33480  0.49870  0.88200  Biso   1.000  C
  H45      1.0000 0.37570  0.06940  0.39320  Biso   1.000  H
  H46      1.0000 0.62430  0.56940  0.10680  Biso   1.000  H
  H47      1.0000 0.62430  0.93060  0.60680  Biso   1.000  H
  H48      1.0000 0.37570  0.43060  0.89320  Biso   1.000  H
