data_image0
_cell_length_a       10.9029
_cell_length_b       13.9467
_cell_length_c       12.5057
_cell_angle_alpha    90
_cell_angle_beta     94.532
_cell_angle_gamma    90

_symmetry_space_group_name_H-M    "P 1"
_symmetry_int_tables_number       1

loop_
  _symmetry_equiv_pos_as_xyz
  'x, y, z'

loop_
  _atom_site_label
  _atom_site_occupancy
  _atom_site_fract_x
  _atom_site_fract_y
  _atom_site_fract_z
  _atom_site_thermal_displace_type
  _atom_site_B_iso_or_equiv
  _atom_site_type_symbol
  Cu1      1.0000 0.33854  0.70960  0.86501  Biso   1.000  Cu
  Cu2      1.0000 0.83854  0.29040  0.36501  Biso   1.000  Cu
  O1       1.0000 0.17160  0.65680  0.94160  Biso   1.000  O
  O2       1.0000 0.67160  0.34320  0.44160  Biso   1.000  O
  H1       1.0000 0.15440  0.59810  0.93020  Biso   1.000  H
  H2       1.0000 0.65440  0.40190  0.43020  Biso   1.000  H
  H3       1.0000 0.16490  0.67660  0.00520  Biso   1.000  H
  H4       1.0000 0.66490  0.32340  0.50520  Biso   1.000  H
  N1       1.0000 0.42550  0.71540  0.02340  Biso   1.000  N
  N2       1.0000 0.92550  0.28460  0.52340  Biso   1.000  N
  N3       1.0000 0.43030  0.58510  0.87780  Biso   1.000  N
  N4       1.0000 0.93030  0.41490  0.37780  Biso   1.000  N
  N5       1.0000 0.45100  0.51410  0.80720  Biso   1.000  N
  N6       1.0000 0.95100  0.48590  0.30720  Biso   1.000  N
  N7       1.0000 0.53490  0.47650  0.96790  Biso   1.000  N
  N8       1.0000 0.03490  0.52350  0.46790  Biso   1.000  N
  N9       1.0000 0.62470  0.29510  0.64860  Biso   1.000  N
  N10      1.0000 0.12470  0.70490  0.14860  Biso   1.000  N
  N11      1.0000 0.73950  0.33090  0.21480  Biso   1.000  N
  N12      1.0000 0.23950  0.66910  0.71480  Biso   1.000  N
  N13      1.0000 0.47560  0.79870  0.78730  Biso   1.000  N
  N14      1.0000 0.97560  0.20130  0.28730  Biso   1.000  N
  N15      1.0000 0.26710  0.84090  0.86610  Biso   1.000  N
  N16      1.0000 0.76710  0.15910  0.36610  Biso   1.000  N
  N17      1.0000 0.16410  0.87630  0.90680  Biso   1.000  N
  N18      1.0000 0.66410  0.12370  0.40680  Biso   1.000  N
  N19      1.0000 0.25190  0.99063  0.81740  Biso   1.000  N
  N20      1.0000 0.75190  0.00937  0.31740  Biso   1.000  N
  N21      1.0000 0.83950  0.04200  0.92110  Biso   1.000  N
  N22      1.0000 0.33950  0.95800  0.42110  Biso   1.000  N
  N23      1.0000 0.27110  0.22760  0.61200  Biso   1.000  N
  N24      1.0000 0.77110  0.77240  0.11200  Biso   1.000  N
  C1       1.0000 0.51230  0.61740  0.16740  Biso   1.000  C
  C2       1.0000 0.01230  0.38260  0.66740  Biso   1.000  C
  H5       1.0000 0.54470  0.55880  0.19140  Biso   1.000  H
  H6       1.0000 0.04470  0.44120  0.69140  Biso   1.000  H
  C3       1.0000 0.50030  0.69350  0.23750  Biso   1.000  C
  C4       1.0000 0.00030  0.30650  0.73750  Biso   1.000  C
  H7       1.0000 0.52280  0.68640  0.31030  Biso   1.000  H
  H8       1.0000 0.02280  0.31360  0.81030  Biso   1.000  H
  C5       1.0000 0.45480  0.77940  0.19770  Biso   1.000  C
  C6       1.0000 0.95480  0.22060  0.69770  Biso   1.000  C
  H9       1.0000 0.44940  0.83180  0.24310  Biso   1.000  H
  H10      1.0000 0.94940  0.16820  0.74310  Biso   1.000  H
  C7       1.0000 0.41820  0.78730  0.09260  Biso   1.000  C
  C8       1.0000 0.91820  0.21270  0.59260  Biso   1.000  C
  H11      1.0000 0.38640  0.84570  0.06730  Biso   1.000  H
  H12      1.0000 0.88640  0.15430  0.56730  Biso   1.000  H
  C9       1.0000 0.47410  0.63210  0.06070  Biso   1.000  C
  C10      1.0000 0.97410  0.36790  0.56070  Biso   1.000  C
  C11      1.0000 0.48040  0.56290  0.97340  Biso   1.000  C
  C12      1.0000 0.98040  0.43710  0.47340  Biso   1.000  C
  C13      1.0000 0.51570  0.44990  0.86150  Biso   1.000  C
  C14      1.0000 0.01570  0.55010  0.36150  Biso   1.000  C
  C15      1.0000 0.56060  0.36370  0.81170  Biso   1.000  C
  C16      1.0000 0.06060  0.63630  0.31170  Biso   1.000  C
  C17      1.0000 0.59010  0.37060  0.70530  Biso   1.000  C
  C18      1.0000 0.09010  0.62940  0.20530  Biso   1.000  C
  H13      1.0000 0.58560  0.43030  0.67230  Biso   1.000  H
  H14      1.0000 0.08560  0.56970  0.17230  Biso   1.000  H
  C19      1.0000 0.63500  0.21170  0.69800  Biso   1.000  C
  C20      1.0000 0.13500  0.78830  0.19800  Biso   1.000  C
  H15      1.0000 0.65930  0.15890  0.65930  Biso   1.000  H
  H16      1.0000 0.15930  0.84110  0.15930  Biso   1.000  H
  C21      1.0000 0.61190  0.19810  0.80290  Biso   1.000  C
  C22      1.0000 0.11190  0.80190  0.30290  Biso   1.000  C
  H17      1.0000 0.62210  0.13790  0.83440  Biso   1.000  H
  H18      1.0000 0.12210  0.86210  0.33440  Biso   1.000  H
  C23      1.0000 0.57360  0.27450  0.86130  Biso   1.000  C
  C24      1.0000 0.07360  0.72550  0.36130  Biso   1.000  C
  H19      1.0000 0.55660  0.26670  0.93250  Biso   1.000  H
  H20      1.0000 0.05660  0.73330  0.43250  Biso   1.000  H
  C25      1.0000 0.60620  0.42470  0.05140  Biso   1.000  C
  C26      1.0000 0.10620  0.57530  0.55140  Biso   1.000  C
  C27      1.0000 0.54610  0.37280  0.12510  Biso   1.000  C
  C28      1.0000 0.04610  0.62720  0.62510  Biso   1.000  C
  H21      1.0000 0.46070  0.36860  0.12050  Biso   1.000  H
  H22      1.0000 0.96070  0.63140  0.62050  Biso   1.000  H
  C29      1.0000 0.61740  0.32730  0.20610  Biso   1.000  C
  C30      1.0000 0.11740  0.67270  0.70610  Biso   1.000  C
  H23      1.0000 0.57810  0.29260  0.25690  Biso   1.000  H
  H24      1.0000 0.07810  0.70740  0.75690  Biso   1.000  H
  C31      1.0000 0.79510  0.37730  0.13920  Biso   1.000  C
  C32      1.0000 0.29510  0.62270  0.63920  Biso   1.000  C
  H25      1.0000 0.88060  0.37700  0.14270  Biso   1.000  H
  H26      1.0000 0.38060  0.62300  0.64270  Biso   1.000  H
  C33      1.0000 0.73190  0.42610  0.05580  Biso   1.000  C
  C34      1.0000 0.23190  0.57390  0.55580  Biso   1.000  C
  H27      1.0000 0.77340  0.45860  0.00460  Biso   1.000  H
  H28      1.0000 0.27340  0.54140  0.50460  Biso   1.000  H
  C35      1.0000 0.58740  0.77480  0.76280  Biso   1.000  C
  C36      1.0000 0.08740  0.22520  0.26280  Biso   1.000  C
  H29      1.0000 0.61090  0.71090  0.76930  Biso   1.000  H
  H30      1.0000 0.11090  0.28910  0.26930  Biso   1.000  H
  C37      1.0000 0.67090  0.83980  0.72820  Biso   1.000  C
  C38      1.0000 0.17090  0.16020  0.22820  Biso   1.000  C
  H31      1.0000 0.74960  0.82060  0.71380  Biso   1.000  H
  H32      1.0000 0.24960  0.17940  0.21380  Biso   1.000  H
  C39      1.0000 0.63460  0.93360  0.71570  Biso   1.000  C
  C40      1.0000 0.13460  0.06640  0.21570  Biso   1.000  C
  H33      1.0000 0.68840  0.97900  0.69140  Biso   1.000  H
  H34      1.0000 0.18840  0.02100  0.19140  Biso   1.000  H
  C41      1.0000 0.51870  0.96030  0.73920  Biso   1.000  C
  C42      1.0000 0.01870  0.03970  0.23920  Biso   1.000  C
  H35      1.0000 0.49320  0.02370  0.73110  Biso   1.000  H
  H36      1.0000 0.99320  0.97630  0.23110  Biso   1.000  H
  C43      1.0000 0.44080  0.89200  0.77480  Biso   1.000  C
  C44      1.0000 0.94080  0.10800  0.27480  Biso   1.000  C
  C45      1.0000 0.32040  0.90890  0.81390  Biso   1.000  C
  C46      1.0000 0.82040  0.09110  0.31390  Biso   1.000  C
  C47      1.0000 0.15510  0.96710  0.87660  Biso   1.000  C
  C48      1.0000 0.65510  0.03290  0.37660  Biso   1.000  C
  C49      1.0000 0.05520  0.02910  0.90600  Biso   1.000  C
  C50      1.0000 0.55520  0.97090  0.40600  Biso   1.000  C
  C51      1.0000 0.93610  0.99520  0.89210  Biso   1.000  C
  C52      1.0000 0.43610  0.00480  0.39210  Biso   1.000  C
  H37      1.0000 0.92340  0.93550  0.86010  Biso   1.000  H
  H38      1.0000 0.42340  0.06450  0.36010  Biso   1.000  H
  C53      1.0000 0.85900  0.12680  0.96810  Biso   1.000  C
  C54      1.0000 0.35900  0.87320  0.46810  Biso   1.000  C
  H39      1.0000 0.79160  0.16070  0.98930  Biso   1.000  H
  H40      1.0000 0.29160  0.83930  0.48930  Biso   1.000  H
  C55      1.0000 0.97320  0.16670  0.98660  Biso   1.000  C
  C56      1.0000 0.47320  0.83330  0.48660  Biso   1.000  C
  H41      1.0000 0.98290  0.22630  0.01960  Biso   1.000  H
  H42      1.0000 0.48290  0.77370  0.51960  Biso   1.000  H
  C57      1.0000 0.07360  0.11700  0.95550  Biso   1.000  C
  C58      1.0000 0.57360  0.88300  0.45550  Biso   1.000  C
  H43      1.0000 0.15250  0.14220  0.96760  Biso   1.000  H
  H44      1.0000 0.65250  0.85780  0.46760  Biso   1.000  H
  C59      1.0000 0.26080  0.07340  0.74870  Biso   1.000  C
  C60      1.0000 0.76080  0.92660  0.24870  Biso   1.000  C
  C61      1.0000 0.28890  0.16280  0.79010  Biso   1.000  C
  C62      1.0000 0.78890  0.83720  0.29010  Biso   1.000  C
  H45      1.0000 0.30570  0.17270  0.86340  Biso   1.000  H
  H46      1.0000 0.80570  0.82730  0.36340  Biso   1.000  H
  C63      1.0000 0.29090  0.23820  0.71650  Biso   1.000  C
  C64      1.0000 0.79090  0.76180  0.21650  Biso   1.000  C
  H47      1.0000 0.30730  0.29960  0.74300  Biso   1.000  H
  H48      1.0000 0.80730  0.70040  0.24300  Biso   1.000  H
  C65      1.0000 0.24470  0.14070  0.57530  Biso   1.000  C
  C66      1.0000 0.74470  0.85930  0.07530  Biso   1.000  C
  H49      1.0000 0.22980  0.13270  0.50160  Biso   1.000  H
  H50      1.0000 0.72980  0.86730  0.00160  Biso   1.000  H
  C67      1.0000 0.23810  0.06150  0.63970  Biso   1.000  C
  C68      1.0000 0.73810  0.93850  0.13970  Biso   1.000  C
  H51      1.0000 0.21890  0.00150  0.61050  Biso   1.000  H
  H52      1.0000 0.71890  0.99850  0.11050  Biso   1.000  H
  Cl1      1.0000 0.46295  0.08231  0.07243  Biso   1.000  Cl
  Cl2      1.0000 0.96295  0.91769  0.57243  Biso   1.000  Cl
  O3       1.0000 0.41220  0.01690  0.12730  Biso   1.000  O
  O4       1.0000 0.91220  0.98310  0.62730  Biso   1.000  O
  O5       1.0000 0.38680  0.16340  0.04900  Biso   1.000  O
  O6       1.0000 0.88680  0.83660  0.54900  Biso   1.000  O
  O7       1.0000 0.56280  0.11630  0.13030  Biso   1.000  O
  O8       1.0000 0.06280  0.88370  0.63030  Biso   1.000  O
  O9       1.0000 0.50490  0.03920  0.98220  Biso   1.000  O
  O10      1.0000 0.00490  0.96080  0.48220  Biso   1.000  O
  Cl3      1.0000 0.18418  0.40772  0.00704  Biso   1.000  Cl
  Cl4      1.0000 0.68418  0.59228  0.50704  Biso   1.000  Cl
  O11      1.0000 0.15230  0.45970  0.91070  Biso   1.000  O
  O12      1.0000 0.65230  0.54030  0.41070  Biso   1.000  O
  O13      1.0000 0.24010  0.32780  0.97390  Biso   1.000  O
  O14      1.0000 0.74010  0.67220  0.47390  Biso   1.000  O
  O15      1.0000 0.07440  0.39460  0.04340  Biso   1.000  O
  O16      1.0000 0.57440  0.60540  0.54340  Biso   1.000  O
  O17      1.0000 0.26130  0.46820  0.07200  Biso   1.000  O
  O18      1.0000 0.76130  0.53180  0.57200  Biso   1.000  O
  O19      1.0000 0.85670  0.64300  0.88740  Biso   1.000  O
  O20      1.0000 0.35670  0.35700  0.38740  Biso   1.000  O
  C69      1.0000 0.74810  0.57150  0.84650  Biso   1.000  C
  C70      1.0000 0.24810  0.42850  0.34650  Biso   1.000  C
  O21      1.0000 0.74520  0.63380  0.94300  Biso   1.000  O
  O22      1.0000 0.24520  0.36620  0.44300  Biso   1.000  O
  C71      1.0000 0.87100  0.66700  0.93800  Biso   1.000  C
  C72      1.0000 0.37100  0.33300  0.43800  Biso   1.000  C
