data_image0
_cell_length_a       13.69
_cell_length_b       5.275
_cell_length_c       14.811
_cell_angle_alpha    90
_cell_angle_beta     106.57
_cell_angle_gamma    90

_symmetry_space_group_name_H-M    "P 1"
_symmetry_int_tables_number       1

loop_
  _symmetry_equiv_pos_as_xyz
  'x, y, z'

loop_
  _atom_site_label
  _atom_site_occupancy
  _atom_site_fract_x
  _atom_site_fract_y
  _atom_site_fract_z
  _atom_site_thermal_displace_type
  _atom_site_B_iso_or_equiv
  _atom_site_type_symbol
  Cu1      1.0000 0.12393  0.04310  0.17552  Biso   1.000  Cu
  Cu2      1.0000 0.87607  0.54310  0.32448  Biso   1.000  Cu
  Cu3      1.0000 0.87607  0.95690  0.82448  Biso   1.000  Cu
  Cu4      1.0000 0.12393  0.45690  0.67552  Biso   1.000  Cu
  Cl1      1.0000 0.20060  0.78930  0.09626  Biso   1.000  Cl
  Cl2      1.0000 0.79940  0.28930  0.40374  Biso   1.000  Cl
  Cl3      1.0000 0.79940  0.21070  0.90374  Biso   1.000  Cl
  Cl4      1.0000 0.20060  0.71070  0.59626  Biso   1.000  Cl
  O1       1.0000 0.07950  0.28240  0.07060  Biso   1.000  O
  O2       1.0000 0.92050  0.78240  0.42940  Biso   1.000  O
  O3       1.0000 0.92050  0.71760  0.92940  Biso   1.000  O
  O4       1.0000 0.07950  0.21760  0.57060  Biso   1.000  O
  O5       1.0000 0.07420  0.28910  0.24980  Biso   1.000  O
  O6       1.0000 0.92580  0.78910  0.25020  Biso   1.000  O
  O7       1.0000 0.92580  0.71090  0.75020  Biso   1.000  O
  O8       1.0000 0.07420  0.21090  0.74980  Biso   1.000  O
  O9       1.0000 0.95620  0.85030  0.11340  Biso   1.000  O
  O10      1.0000 0.04380  0.35030  0.38660  Biso   1.000  O
  O11      1.0000 0.04380  0.14970  0.88660  Biso   1.000  O
  O12      1.0000 0.95620  0.64970  0.61340  Biso   1.000  O
  O13      1.0000 0.32830  0.11470  0.30110  Biso   1.000  O
  O14      1.0000 0.67170  0.61470  0.19890  Biso   1.000  O
  O15      1.0000 0.67170  0.88530  0.69890  Biso   1.000  O
  O16      1.0000 0.32830  0.38530  0.80110  Biso   1.000  O
  O17      1.0000 0.43080  0.78850  0.35780  Biso   1.000  O
  O18      1.0000 0.56920  0.28850  0.14220  Biso   1.000  O
  O19      1.0000 0.56920  0.21150  0.64220  Biso   1.000  O
  O20      1.0000 0.43080  0.71150  0.85780  Biso   1.000  O
  N1       1.0000 0.15790  0.83250  0.29370  Biso   1.000  N
  N2       1.0000 0.84210  0.33250  0.20630  Biso   1.000  N
  N3       1.0000 0.84210  0.16750  0.70630  Biso   1.000  N
  N4       1.0000 0.15790  0.66750  0.79370  Biso   1.000  N
  C1       1.0000 0.08100  0.22410  0.33420  Biso   1.000  C
  C2       1.0000 0.91900  0.72410  0.16580  Biso   1.000  C
  C3       1.0000 0.91900  0.77590  0.66580  Biso   1.000  C
  C4       1.0000 0.08100  0.27590  0.83420  Biso   1.000  C
  C5       1.0000 0.13660  0.98200  0.37050  Biso   1.000  C
  C6       1.0000 0.86340  0.48200  0.12950  Biso   1.000  C
  C7       1.0000 0.86340  0.01800  0.62950  Biso   1.000  C
  C8       1.0000 0.13660  0.51800  0.87050  Biso   1.000  C
  C9       1.0000 0.25830  0.71200  0.32360  Biso   1.000  C
  C10      1.0000 0.74170  0.21200  0.17640  Biso   1.000  C
  C11      1.0000 0.74170  0.28800  0.67640  Biso   1.000  C
  C12      1.0000 0.25830  0.78800  0.82360  Biso   1.000  C
  C13      1.0000 0.34130  0.89900  0.32500  Biso   1.000  C
  C14      1.0000 0.65870  0.39900  0.17500  Biso   1.000  C
  C15      1.0000 0.65870  0.10100  0.67500  Biso   1.000  C
  C16      1.0000 0.34130  0.60100  0.82500  Biso   1.000  C
  C17      1.0000 0.52080  0.94100  0.36350  Biso   1.000  C
  C18      1.0000 0.47920  0.44100  0.13650  Biso   1.000  C
  C19      1.0000 0.47920  0.05900  0.63650  Biso   1.000  C
  C20      1.0000 0.52080  0.55900  0.86350  Biso   1.000  C
  C21      1.0000 0.60860  0.79200  0.41980  Biso   1.000  C
  C22      1.0000 0.39140  0.29200  0.08020  Biso   1.000  C
  C23      1.0000 0.39140  0.20800  0.58020  Biso   1.000  C
  C24      1.0000 0.60860  0.70800  0.91980  Biso   1.000  C
  H1       1.0000 0.11030  0.71450  0.27830  Biso   1.000  H
  H2       1.0000 0.88970  0.21450  0.22170  Biso   1.000  H
  H3       1.0000 0.88970  0.28550  0.72170  Biso   1.000  H
  H4       1.0000 0.11030  0.78550  0.77830  Biso   1.000  H
  H5       1.0000 0.07050  0.23910  0.02330  Biso   1.000  H
  H6       1.0000 0.92950  0.73910  0.47670  Biso   1.000  H
  H7       1.0000 0.92950  0.76090  0.97670  Biso   1.000  H
  H8       1.0000 0.07050  0.26090  0.52330  Biso   1.000  H
  H9       1.0000 0.11990  0.43130  0.08390  Biso   1.000  H
  H10      1.0000 0.88010  0.93130  0.41610  Biso   1.000  H
  H11      1.0000 0.88010  0.56870  0.91610  Biso   1.000  H
  H12      1.0000 0.11990  0.06870  0.58390  Biso   1.000  H
  H13      1.0000 0.09230  0.89420  0.40110  Biso   1.000  H
  H14      1.0000 0.90770  0.39420  0.09890  Biso   1.000  H
  H15      1.0000 0.90770  0.10580  0.59890  Biso   1.000  H
  H16      1.0000 0.09230  0.60580  0.90110  Biso   1.000  H
  H17      1.0000 0.19580  0.03360  0.41520  Biso   1.000  H
  H18      1.0000 0.80420  0.53360  0.08480  Biso   1.000  H
  H19      1.0000 0.80420  0.96640  0.58480  Biso   1.000  H
  H20      1.0000 0.19580  0.46640  0.91520  Biso   1.000  H
  H21      1.0000 0.26240  0.58890  0.27930  Biso   1.000  H
  H22      1.0000 0.73760  0.08890  0.22070  Biso   1.000  H
  H23      1.0000 0.73760  0.41110  0.72070  Biso   1.000  H
  H24      1.0000 0.26240  0.91110  0.77930  Biso   1.000  H
  H25      1.0000 0.27480  0.65250  0.38180  Biso   1.000  H
  H26      1.0000 0.72520  0.15250  0.11820  Biso   1.000  H
  H27      1.0000 0.72520  0.34750  0.61820  Biso   1.000  H
  H28      1.0000 0.27480  0.84750  0.88180  Biso   1.000  H
  H29      1.0000 0.51850  0.08100  0.39640  Biso   1.000  H
  H30      1.0000 0.48150  0.58100  0.10360  Biso   1.000  H
  H31      1.0000 0.48150  0.91900  0.60360  Biso   1.000  H
  H32      1.0000 0.51850  0.41900  0.89640  Biso   1.000  H
  H33      1.0000 0.52720  0.95020  0.30430  Biso   1.000  H
  H34      1.0000 0.47280  0.45020  0.19570  Biso   1.000  H
  H35      1.0000 0.47280  0.04980  0.69570  Biso   1.000  H
  H36      1.0000 0.52720  0.54980  0.80430  Biso   1.000  H
  H37      1.0000 0.59750  0.63430  0.37880  Biso   1.000  H
  H38      1.0000 0.40250  0.13430  0.12120  Biso   1.000  H
  H39      1.0000 0.40250  0.36570  0.62120  Biso   1.000  H
  H40      1.0000 0.59750  0.86570  0.87880  Biso   1.000  H
  H41      1.0000 0.69370  0.88520  0.42920  Biso   1.000  H
  H42      1.0000 0.30630  0.38520  0.07080  Biso   1.000  H
  H43      1.0000 0.30630  0.11480  0.57080  Biso   1.000  H
  H44      1.0000 0.69370  0.61480  0.92920  Biso   1.000  H
  H45      1.0000 0.59930  0.71130  0.48180  Biso   1.000  H
  H46      1.0000 0.40070  0.21130  0.01820  Biso   1.000  H
  H47      1.0000 0.40070  0.28870  0.51820  Biso   1.000  H
  H48      1.0000 0.59930  0.78870  0.98180  Biso   1.000  H
