data_image0
_cell_length_a       8.94
_cell_length_b       11.64
_cell_length_c       18.45
_cell_angle_alpha    90
_cell_angle_beta     94.5
_cell_angle_gamma    90

_symmetry_space_group_name_H-M    "P 1"
_symmetry_int_tables_number       1

loop_
  _symmetry_equiv_pos_as_xyz
  'x, y, z'

loop_
  _atom_site_label
  _atom_site_occupancy
  _atom_site_fract_x
  _atom_site_fract_y
  _atom_site_fract_z
  _atom_site_thermal_displace_type
  _atom_site_B_iso_or_equiv
  _atom_site_type_symbol
  Cu1      1.0000 0.09650  0.25970  0.65730  Biso   1.000  Cu
  Cu2      1.0000 0.90350  0.75970  0.84270  Biso   1.000  Cu
  Cu3      1.0000 0.90350  0.74030  0.34270  Biso   1.000  Cu
  Cu4      1.0000 0.09650  0.24030  0.15730  Biso   1.000  Cu
  Cu5      1.0000 0.12990  0.01430  0.64750  Biso   1.000  Cu
  Cu6      1.0000 0.87010  0.51430  0.85250  Biso   1.000  Cu
  Cu7      1.0000 0.87010  0.98570  0.35250  Biso   1.000  Cu
  Cu8      1.0000 0.12990  0.48570  0.14750  Biso   1.000  Cu
  O1       1.0000 0.24300  0.14200  0.68950  Biso   1.000  O
  O2       1.0000 0.75700  0.64200  0.81050  Biso   1.000  O
  O3       1.0000 0.75700  0.85800  0.31050  Biso   1.000  O
  O4       1.0000 0.24300  0.35800  0.18950  Biso   1.000  O
  O5       1.0000 0.96700  0.12200  0.65690  Biso   1.000  O
  O6       1.0000 0.03300  0.62200  0.84310  Biso   1.000  O
  O7       1.0000 0.03300  0.87800  0.34310  Biso   1.000  O
  O8       1.0000 0.96700  0.37800  0.15690  Biso   1.000  O
  O9       1.0000 0.32800  0.31400  0.55100  Biso   1.000  O
  O10      1.0000 0.67200  0.81400  0.94900  Biso   1.000  O
  O11      1.0000 0.67200  0.68600  0.44900  Biso   1.000  O
  O12      1.0000 0.32800  0.18600  0.05100  Biso   1.000  O
  O13      1.0000 0.23400  0.38500  0.64890  Biso   1.000  O
  O14      1.0000 0.76600  0.88500  0.85110  Biso   1.000  O
  O15      1.0000 0.76600  0.61500  0.35110  Biso   1.000  O
  O16      1.0000 0.23400  0.11500  0.14890  Biso   1.000  O
  O17      1.0000 0.00000  0.88800  0.61300  Biso   1.000  O
  O18      1.0000 0.00000  0.38800  0.88700  Biso   1.000  O
  O19      1.0000 0.00000  0.11200  0.38700  Biso   1.000  O
  O20      1.0000 0.00000  0.61200  0.11300  Biso   1.000  O
  O21      1.0000 0.97900  0.85000  0.73100  Biso   1.000  O
  O22      1.0000 0.02100  0.35000  0.76900  Biso   1.000  O
  O23      1.0000 0.02100  0.15000  0.26900  Biso   1.000  O
  O24      1.0000 0.97900  0.65000  0.23100  Biso   1.000  O
  O25      1.0000 0.17300  0.09900  0.52430  Biso   1.000  O
  O26      1.0000 0.82700  0.59900  0.97570  Biso   1.000  O
  O27      1.0000 0.82700  0.90100  0.47570  Biso   1.000  O
  O28      1.0000 0.17300  0.40100  0.02430  Biso   1.000  O
  O29      1.0000 0.79500  0.09900  0.78000  Biso   1.000  O
  O30      1.0000 0.20500  0.59900  0.72000  Biso   1.000  O
  O31      1.0000 0.20500  0.90100  0.22000  Biso   1.000  O
  O32      1.0000 0.79500  0.40100  0.28000  Biso   1.000  O
  N1       1.0000 0.33100  0.93500  0.64500  Biso   1.000  N
  N2       1.0000 0.66900  0.43500  0.85500  Biso   1.000  N
  N3       1.0000 0.66900  0.06500  0.35500  Biso   1.000  N
  N4       1.0000 0.33100  0.56500  0.14500  Biso   1.000  N
  N5       1.0000 0.91800  0.33600  0.59800  Biso   1.000  N
  N6       1.0000 0.08200  0.83600  0.90200  Biso   1.000  N
  N7       1.0000 0.08200  0.66400  0.40200  Biso   1.000  N
  N8       1.0000 0.91800  0.16400  0.09800  Biso   1.000  N
  C1       1.0000 0.40000  0.13100  0.69400  Biso   1.000  C
  C2       1.0000 0.60000  0.63100  0.80600  Biso   1.000  C
  C3       1.0000 0.60000  0.86900  0.30600  Biso   1.000  C
  C4       1.0000 0.40000  0.36900  0.19400  Biso   1.000  C
  C5       1.0000 0.43600  0.03900  0.64400  Biso   1.000  C
  C6       1.0000 0.56400  0.53900  0.85600  Biso   1.000  C
  C7       1.0000 0.56400  0.96100  0.35600  Biso   1.000  C
  C8       1.0000 0.43600  0.46100  0.14400  Biso   1.000  C
  C9       1.0000 0.35600  0.87000  0.58100  Biso   1.000  C
  C10      1.0000 0.64400  0.37000  0.91900  Biso   1.000  C
  C11      1.0000 0.64400  0.13000  0.41900  Biso   1.000  C
  C12      1.0000 0.35600  0.63000  0.08100  Biso   1.000  C
  C13      1.0000 0.36800  0.87400  0.71500  Biso   1.000  C
  C14      1.0000 0.63200  0.37400  0.78500  Biso   1.000  C
  C15      1.0000 0.63200  0.12600  0.28500  Biso   1.000  C
  C16      1.0000 0.36800  0.62600  0.21500  Biso   1.000  C
  C17      1.0000 0.84600  0.13400  0.61100  Biso   1.000  C
  C18      1.0000 0.15400  0.63400  0.88900  Biso   1.000  C
  C19      1.0000 0.15400  0.86600  0.38900  Biso   1.000  C
  C20      1.0000 0.84600  0.36600  0.11100  Biso   1.000  C
  C21      1.0000 0.78700  0.25800  0.60500  Biso   1.000  C
  C22      1.0000 0.21300  0.75800  0.89500  Biso   1.000  C
  C23      1.0000 0.21300  0.74200  0.39500  Biso   1.000  C
  C24      1.0000 0.78700  0.24200  0.10500  Biso   1.000  C
  C25      1.0000 0.94800  0.34000  0.52000  Biso   1.000  C
  C26      1.0000 0.05200  0.84000  0.98000  Biso   1.000  C
  C27      1.0000 0.05200  0.66000  0.48000  Biso   1.000  C
  C28      1.0000 0.94800  0.16000  0.02000  Biso   1.000  C
  C29      1.0000 0.89300  0.45600  0.62200  Biso   1.000  C
  C30      1.0000 0.10700  0.95600  0.87800  Biso   1.000  C
  C31      1.0000 0.10700  0.54400  0.37800  Biso   1.000  C
  C32      1.0000 0.89300  0.04400  0.12200  Biso   1.000  C
  C33      1.0000 0.32000  0.38300  0.60000  Biso   1.000  C
  C34      1.0000 0.68000  0.88300  0.90000  Biso   1.000  C
  C35      1.0000 0.68000  0.61700  0.40000  Biso   1.000  C
  C36      1.0000 0.32000  0.11700  0.10000  Biso   1.000  C
  C37      1.0000 0.42600  0.48600  0.59600  Biso   1.000  C
  C38      1.0000 0.57400  0.98600  0.90400  Biso   1.000  C
  C39      1.0000 0.57400  0.51400  0.40400  Biso   1.000  C
  C40      1.0000 0.42600  0.01400  0.09600  Biso   1.000  C
  C41      1.0000 0.94400  0.83400  0.67000  Biso   1.000  C
  C42      1.0000 0.05600  0.33400  0.83000  Biso   1.000  C
  C43      1.0000 0.05600  0.16600  0.33000  Biso   1.000  C
  C44      1.0000 0.94400  0.66600  0.17000  Biso   1.000  C
  C45      1.0000 0.81500  0.75400  0.64500  Biso   1.000  C
  C46      1.0000 0.18500  0.25400  0.85500  Biso   1.000  C
  C47      1.0000 0.18500  0.24600  0.35500  Biso   1.000  C
  C48      1.0000 0.81500  0.74600  0.14500  Biso   1.000  C
  H1       1.0000 0.44350  0.20070  0.68000  Biso   1.000  H
  H2       1.0000 0.55650  0.70070  0.82000  Biso   1.000  H
  H3       1.0000 0.55650  0.79930  0.32000  Biso   1.000  H
  H4       1.0000 0.44350  0.29930  0.18000  Biso   1.000  H
  H5       1.0000 0.43580  0.11160  0.74210  Biso   1.000  H
  H6       1.0000 0.56420  0.61160  0.75790  Biso   1.000  H
  H7       1.0000 0.56420  0.88840  0.25790  Biso   1.000  H
  H8       1.0000 0.43580  0.38840  0.24210  Biso   1.000  H
  H9       1.0000 0.53540  0.01390  0.65710  Biso   1.000  H
  H10      1.0000 0.46460  0.51390  0.84290  Biso   1.000  H
  H11      1.0000 0.46460  0.98610  0.34290  Biso   1.000  H
  H12      1.0000 0.53540  0.48610  0.15710  Biso   1.000  H
  H13      1.0000 0.42990  0.06930  0.59610  Biso   1.000  H
  H14      1.0000 0.57010  0.56930  0.90390  Biso   1.000  H
  H15      1.0000 0.57010  0.93070  0.40390  Biso   1.000  H
  H16      1.0000 0.42990  0.43070  0.09610  Biso   1.000  H
  H17      1.0000 0.29710  0.80320  0.57900  Biso   1.000  H
  H18      1.0000 0.70290  0.30320  0.92100  Biso   1.000  H
  H19      1.0000 0.70290  0.19680  0.42100  Biso   1.000  H
  H20      1.0000 0.29710  0.69680  0.07900  Biso   1.000  H
  H21      1.0000 0.32900  0.91680  0.53900  Biso   1.000  H
  H22      1.0000 0.67100  0.41680  0.96100  Biso   1.000  H
  H23      1.0000 0.67100  0.08320  0.46100  Biso   1.000  H
  H24      1.0000 0.32900  0.58320  0.03900  Biso   1.000  H
  H25      1.0000 0.45950  0.85110  0.58120  Biso   1.000  H
  H26      1.0000 0.54050  0.35110  0.91880  Biso   1.000  H
  H27      1.0000 0.54050  0.14890  0.41880  Biso   1.000  H
  H28      1.0000 0.45950  0.64890  0.08120  Biso   1.000  H
  H29      1.0000 0.30840  0.80680  0.71620  Biso   1.000  H
  H30      1.0000 0.69160  0.30680  0.78380  Biso   1.000  H
  H31      1.0000 0.69160  0.19320  0.28380  Biso   1.000  H
  H32      1.0000 0.30840  0.69320  0.21620  Biso   1.000  H
  H33      1.0000 0.47110  0.85390  0.71850  Biso   1.000  H
  H34      1.0000 0.52890  0.35390  0.78150  Biso   1.000  H
  H35      1.0000 0.52890  0.14610  0.28150  Biso   1.000  H
  H36      1.0000 0.47110  0.64610  0.21850  Biso   1.000  H
  H37      1.0000 0.34770  0.92330  0.75380  Biso   1.000  H
  H38      1.0000 0.65230  0.42330  0.74620  Biso   1.000  H
  H39      1.0000 0.65230  0.07670  0.24620  Biso   1.000  H
  H40      1.0000 0.34770  0.57670  0.25380  Biso   1.000  H
  H41      1.0000 0.86870  0.10890  0.56460  Biso   1.000  H
  H42      1.0000 0.13130  0.60890  0.93540  Biso   1.000  H
  H43      1.0000 0.13130  0.89110  0.43540  Biso   1.000  H
  H44      1.0000 0.86870  0.39110  0.06460  Biso   1.000  H
  H45      1.0000 0.76850  0.08650  0.62820  Biso   1.000  H
  H46      1.0000 0.23150  0.58650  0.87180  Biso   1.000  H
  H47      1.0000 0.23150  0.91350  0.37180  Biso   1.000  H
  H48      1.0000 0.76850  0.41350  0.12820  Biso   1.000  H
  H49      1.0000 0.73690  0.27200  0.64730  Biso   1.000  H
  H50      1.0000 0.26310  0.77200  0.85270  Biso   1.000  H
  H51      1.0000 0.26310  0.72800  0.35270  Biso   1.000  H
  H52      1.0000 0.73690  0.22800  0.14730  Biso   1.000  H
  H53      1.0000 0.71770  0.26490  0.56340  Biso   1.000  H
  H54      1.0000 0.28230  0.76490  0.93660  Biso   1.000  H
  H55      1.0000 0.28230  0.73510  0.43660  Biso   1.000  H
  H56      1.0000 0.71770  0.23510  0.06340  Biso   1.000  H
  H57      1.0000 0.96100  0.26320  0.50310  Biso   1.000  H
  H58      1.0000 0.03900  0.76320  0.99690  Biso   1.000  H
  H59      1.0000 0.03900  0.73680  0.49690  Biso   1.000  H
  H60      1.0000 0.96100  0.23680  0.00310  Biso   1.000  H
  H61      1.0000 0.86680  0.37470  0.49260  Biso   1.000  H
  H62      1.0000 0.13320  0.87470  0.00740  Biso   1.000  H
  H63      1.0000 0.13320  0.62530  0.50740  Biso   1.000  H
  H64      1.0000 0.86680  0.12530  0.99260  Biso   1.000  H
  H65      1.0000 0.03760  0.38200  0.51490  Biso   1.000  H
  H66      1.0000 0.96240  0.88200  0.98510  Biso   1.000  H
  H67      1.0000 0.96240  0.61800  0.48510  Biso   1.000  H
  H68      1.0000 0.03760  0.11800  0.01490  Biso   1.000  H
  H69      1.0000 0.98090  0.50000  0.61770  Biso   1.000  H
  H70      1.0000 0.01910  0.00000  0.88230  Biso   1.000  H
  H71      1.0000 0.01910  0.50000  0.38230  Biso   1.000  H
  H72      1.0000 0.98090  0.00000  0.11770  Biso   1.000  H
  H73      1.0000 0.81140  0.48910  0.59340  Biso   1.000  H
  H74      1.0000 0.18860  0.98910  0.90660  Biso   1.000  H
  H75      1.0000 0.18860  0.51090  0.40660  Biso   1.000  H
  H76      1.0000 0.81140  0.01090  0.09340  Biso   1.000  H
  H77      1.0000 0.86970  0.45610  0.67200  Biso   1.000  H
  H78      1.0000 0.13030  0.95610  0.82800  Biso   1.000  H
  H79      1.0000 0.13030  0.54390  0.32800  Biso   1.000  H
  H80      1.0000 0.86970  0.04390  0.17200  Biso   1.000  H
  H81      1.0000 0.52670  0.45950  0.59810  Biso   1.000  H
  H82      1.0000 0.47330  0.95950  0.90190  Biso   1.000  H
  H83      1.0000 0.47330  0.54050  0.40190  Biso   1.000  H
  H84      1.0000 0.52670  0.04050  0.09810  Biso   1.000  H
  H85      1.0000 0.40330  0.52610  0.55160  Biso   1.000  H
  H86      1.0000 0.59670  0.02610  0.94840  Biso   1.000  H
  H87      1.0000 0.59670  0.47390  0.44840  Biso   1.000  H
  H88      1.0000 0.40330  0.97390  0.05160  Biso   1.000  H
  H89      1.0000 0.41360  0.53610  0.63570  Biso   1.000  H
  H90      1.0000 0.58640  0.03610  0.86430  Biso   1.000  H
  H91      1.0000 0.58640  0.46390  0.36430  Biso   1.000  H
  H92      1.0000 0.41360  0.96390  0.13570  Biso   1.000  H
  H93      1.0000 0.73740  0.79790  0.61940  Biso   1.000  H
  H94      1.0000 0.26260  0.29790  0.88060  Biso   1.000  H
  H95      1.0000 0.26260  0.20210  0.38060  Biso   1.000  H
  H96      1.0000 0.73740  0.70210  0.11940  Biso   1.000  H
  H97      1.0000 0.84960  0.69720  0.61370  Biso   1.000  H
  H98      1.0000 0.15040  0.19720  0.88630  Biso   1.000  H
  H99      1.0000 0.15040  0.30280  0.38630  Biso   1.000  H
  H100     1.0000 0.84960  0.80280  0.11370  Biso   1.000  H
  H101     1.0000 0.77660  0.71920  0.68600  Biso   1.000  H
  H102     1.0000 0.22340  0.21920  0.81400  Biso   1.000  H
  H103     1.0000 0.22340  0.28080  0.31400  Biso   1.000  H
  H104     1.0000 0.77660  0.78080  0.18600  Biso   1.000  H
