data_image0
_cell_length_a       13.854
_cell_length_b       14.051
_cell_length_c       11.566
_cell_angle_alpha    90
_cell_angle_beta     91.028
_cell_angle_gamma    90

_symmetry_space_group_name_H-M    "P 1"
_symmetry_int_tables_number       1

loop_
  _symmetry_equiv_pos_as_xyz
  'x, y, z'

loop_
  _atom_site_label
  _atom_site_occupancy
  _atom_site_fract_x
  _atom_site_fract_y
  _atom_site_fract_z
  _atom_site_thermal_displace_type
  _atom_site_B_iso_or_equiv
  _atom_site_type_symbol
  Cu1      1.0000 0.76667  0.31831  0.12371  Biso   1.000  Cu
  Cu2      1.0000 0.73333  0.31831  0.87629  Biso   1.000  Cu
  Cu3      1.0000 0.26667  0.81831  0.62371  Biso   1.000  Cu
  Cu4      1.0000 0.23333  0.81831  0.37629  Biso   1.000  Cu
  Cu5      1.0000 0.23333  0.68169  0.87629  Biso   1.000  Cu
  Cu6      1.0000 0.26667  0.68169  0.12371  Biso   1.000  Cu
  Cu7      1.0000 0.73333  0.18169  0.37629  Biso   1.000  Cu
  Cu8      1.0000 0.76667  0.18169  0.62371  Biso   1.000  Cu
  O1       1.0000 0.83780  0.28940  0.98640  Biso   1.000  O
  O2       1.0000 0.66220  0.28940  0.01360  Biso   1.000  O
  O3       1.0000 0.33780  0.78940  0.48640  Biso   1.000  O
  O4       1.0000 0.16220  0.78940  0.51360  Biso   1.000  O
  O5       1.0000 0.16220  0.71060  0.01360  Biso   1.000  O
  O6       1.0000 0.33780  0.71060  0.98640  Biso   1.000  O
  O7       1.0000 0.66220  0.21060  0.51360  Biso   1.000  O
  O8       1.0000 0.83780  0.21060  0.48640  Biso   1.000  O
  O9       1.0000 0.69460  0.33110  0.26450  Biso   1.000  O
  O10      1.0000 0.80540  0.33110  0.73550  Biso   1.000  O
  O11      1.0000 0.19460  0.83110  0.76450  Biso   1.000  O
  O12      1.0000 0.30540  0.83110  0.23550  Biso   1.000  O
  O13      1.0000 0.30540  0.66890  0.73550  Biso   1.000  O
  O14      1.0000 0.19460  0.66890  0.26450  Biso   1.000  O
  O15      1.0000 0.80540  0.16890  0.23550  Biso   1.000  O
  O16      1.0000 0.69460  0.16890  0.76450  Biso   1.000  O
  O17      1.0000 0.65130  0.47690  0.21560  Biso   1.000  O
  O18      1.0000 0.84870  0.47690  0.78440  Biso   1.000  O
  O19      1.0000 0.15130  0.97690  0.71560  Biso   1.000  O
  O20      1.0000 0.34870  0.97690  0.28440  Biso   1.000  O
  O21      1.0000 0.34870  0.52310  0.78440  Biso   1.000  O
  O22      1.0000 0.15130  0.52310  0.21560  Biso   1.000  O
  O23      1.0000 0.84870  0.02310  0.28440  Biso   1.000  O
  O24      1.0000 0.65130  0.02310  0.71560  Biso   1.000  O
  O25      1.0000 0.32800  0.17100  0.97800  Biso   1.000  O
  O26      1.0000 0.17200  0.17100  0.02200  Biso   1.000  O
  O27      1.0000 0.82800  0.67100  0.47800  Biso   1.000  O
  O28      1.0000 0.67200  0.67100  0.52200  Biso   1.000  O
  O29      1.0000 0.67200  0.82900  0.02200  Biso   1.000  O
  O30      1.0000 0.82800  0.82900  0.97800  Biso   1.000  O
  O31      1.0000 0.17200  0.32900  0.52200  Biso   1.000  O
  O32      1.0000 0.32800  0.32900  0.47800  Biso   1.000  O
  N1       1.0000 0.88820  0.39260  0.17250  Biso   1.000  N
  N2       1.0000 0.61180  0.39260  0.82750  Biso   1.000  N
  N3       1.0000 0.38820  0.89260  0.67250  Biso   1.000  N
  N4       1.0000 0.11180  0.89260  0.32750  Biso   1.000  N
  N5       1.0000 0.11180  0.60740  0.82750  Biso   1.000  N
  N6       1.0000 0.38820  0.60740  0.17250  Biso   1.000  N
  N7       1.0000 0.61180  0.10740  0.32750  Biso   1.000  N
  N8       1.0000 0.88820  0.10740  0.67250  Biso   1.000  N
  C1       1.0000 0.93350  0.32670  0.98760  Biso   1.000  C
  C2       1.0000 0.56650  0.32670  0.01240  Biso   1.000  C
  C3       1.0000 0.43350  0.82670  0.48760  Biso   1.000  C
  C4       1.0000 0.06650  0.82670  0.51240  Biso   1.000  C
  C5       1.0000 0.06650  0.67330  0.01240  Biso   1.000  C
  C6       1.0000 0.43350  0.67330  0.98760  Biso   1.000  C
  C7       1.0000 0.56650  0.17330  0.51240  Biso   1.000  C
  C8       1.0000 0.93350  0.17330  0.48760  Biso   1.000  C
  C9       1.0000 0.96170  0.35400  0.10600  Biso   1.000  C
  C10      1.0000 0.53830  0.35400  0.89400  Biso   1.000  C
  C11      1.0000 0.46170  0.85400  0.60600  Biso   1.000  C
  C12      1.0000 0.03830  0.85400  0.39400  Biso   1.000  C
  C13      1.0000 0.03830  0.64600  0.89400  Biso   1.000  C
  C14      1.0000 0.46170  0.64600  0.10600  Biso   1.000  C
  C15      1.0000 0.53830  0.14600  0.39400  Biso   1.000  C
  C16      1.0000 0.96170  0.14600  0.60600  Biso   1.000  C
  C17      1.0000 0.87900  0.49100  0.14100  Biso   1.000  C
  C18      1.0000 0.62100  0.49100  0.85900  Biso   1.000  C
  C19      1.0000 0.37900  0.99100  0.64100  Biso   1.000  C
  C20      1.0000 0.12100  0.99100  0.35900  Biso   1.000  C
  C21      1.0000 0.12100  0.50900  0.85900  Biso   1.000  C
  C22      1.0000 0.37900  0.50900  0.14100  Biso   1.000  C
  C23      1.0000 0.62100  0.00900  0.35900  Biso   1.000  C
  C24      1.0000 0.87900  0.00900  0.64100  Biso   1.000  C
  C25      1.0000 0.91200  0.39000  0.29200  Biso   1.000  C
  C26      1.0000 0.58800  0.39000  0.70800  Biso   1.000  C
  C27      1.0000 0.41200  0.89000  0.79200  Biso   1.000  C
  C28      1.0000 0.08800  0.89000  0.20800  Biso   1.000  C
  C29      1.0000 0.08800  0.61000  0.70800  Biso   1.000  C
  C30      1.0000 0.41200  0.61000  0.29200  Biso   1.000  C
  C31      1.0000 0.58800  0.11000  0.20800  Biso   1.000  C
  C32      1.0000 0.91200  0.11000  0.79200  Biso   1.000  C
  C33      1.0000 0.65480  0.41090  0.28430  Biso   1.000  C
  C34      1.0000 0.84520  0.41090  0.71570  Biso   1.000  C
  C35      1.0000 0.15480  0.91090  0.78430  Biso   1.000  C
  C36      1.0000 0.34520  0.91090  0.21570  Biso   1.000  C
  C37      1.0000 0.34520  0.58910  0.71570  Biso   1.000  C
  C38      1.0000 0.15480  0.58910  0.28430  Biso   1.000  C
  C39      1.0000 0.84520  0.08910  0.21570  Biso   1.000  C
  C40      1.0000 0.65480  0.08910  0.78430  Biso   1.000  C
  C41      1.0000 0.60800  0.42180  0.40030  Biso   1.000  C
  C42      1.0000 0.89200  0.42180  0.59970  Biso   1.000  C
  C43      1.0000 0.10800  0.92180  0.90030  Biso   1.000  C
  C44      1.0000 0.39200  0.92180  0.09970  Biso   1.000  C
  C45      1.0000 0.39200  0.57820  0.59970  Biso   1.000  C
  C46      1.0000 0.10800  0.57820  0.40030  Biso   1.000  C
  C47      1.0000 0.89200  0.07820  0.09970  Biso   1.000  C
  C48      1.0000 0.60800  0.07820  0.90030  Biso   1.000  C
  C49      1.0000 0.30200  0.23000  0.08000  Biso   1.000  C
  C50      1.0000 0.19800  0.23000  0.92000  Biso   1.000  C
  C51      1.0000 0.80200  0.73000  0.58000  Biso   1.000  C
  C52      1.0000 0.69800  0.73000  0.42000  Biso   1.000  C
  C53      1.0000 0.69800  0.77000  0.92000  Biso   1.000  C
  C54      1.0000 0.80200  0.77000  0.08000  Biso   1.000  C
  C55      1.0000 0.19800  0.27000  0.42000  Biso   1.000  C
  C56      1.0000 0.30200  0.27000  0.58000  Biso   1.000  C
  C57      1.0000 0.21700  0.28200  0.05100  Biso   1.000  C
  C58      1.0000 0.28300  0.28200  0.94900  Biso   1.000  C
  C59      1.0000 0.71700  0.78200  0.55100  Biso   1.000  C
  C60      1.0000 0.78300  0.78200  0.44900  Biso   1.000  C
  C61      1.0000 0.78300  0.71800  0.94900  Biso   1.000  C
  C62      1.0000 0.71700  0.71800  0.05100  Biso   1.000  C
  C63      1.0000 0.28300  0.21800  0.44900  Biso   1.000  C
  C64      1.0000 0.21700  0.21800  0.55100  Biso   1.000  C
  C65      1.0000 0.21900  0.17100  0.09900  Biso   1.000  C
  C66      1.0000 0.28100  0.17100  0.90100  Biso   1.000  C
  C67      1.0000 0.71900  0.67100  0.59900  Biso   1.000  C
  C68      1.0000 0.78100  0.67100  0.40100  Biso   1.000  C
  C69      1.0000 0.78100  0.82900  0.90100  Biso   1.000  C
  C70      1.0000 0.71900  0.82900  0.09900  Biso   1.000  C
  C71      1.0000 0.28100  0.32900  0.40100  Biso   1.000  C
  C72      1.0000 0.21900  0.32900  0.59900  Biso   1.000  C
  H1       1.0000 0.97670  0.27960  0.96010  Biso   1.000  H
  H2       1.0000 0.52330  0.27960  0.03990  Biso   1.000  H
  H3       1.0000 0.47670  0.77960  0.46010  Biso   1.000  H
  H4       1.0000 0.02330  0.77960  0.53990  Biso   1.000  H
  H5       1.0000 0.02330  0.72040  0.03990  Biso   1.000  H
  H6       1.0000 0.47670  0.72040  0.96010  Biso   1.000  H
  H7       1.0000 0.52330  0.22040  0.53990  Biso   1.000  H
  H8       1.0000 0.97670  0.22040  0.46010  Biso   1.000  H
  H9       1.0000 0.93590  0.38110  0.93910  Biso   1.000  H
  H10      1.0000 0.56410  0.38110  0.06090  Biso   1.000  H
  H11      1.0000 0.43590  0.88110  0.43910  Biso   1.000  H
  H12      1.0000 0.06410  0.88110  0.56090  Biso   1.000  H
  H13      1.0000 0.06410  0.61890  0.06090  Biso   1.000  H
  H14      1.0000 0.43590  0.61890  0.93910  Biso   1.000  H
  H15      1.0000 0.56410  0.11890  0.56090  Biso   1.000  H
  H16      1.0000 0.93590  0.11890  0.43910  Biso   1.000  H
  H17      1.0000 0.01220  0.39910  0.10180  Biso   1.000  H
  H18      1.0000 0.48780  0.39910  0.89820  Biso   1.000  H
  H19      1.0000 0.51220  0.89910  0.60180  Biso   1.000  H
  H20      1.0000 0.98780  0.89910  0.39820  Biso   1.000  H
  H21      1.0000 0.98780  0.60090  0.89820  Biso   1.000  H
  H22      1.0000 0.51220  0.60090  0.10180  Biso   1.000  H
  H23      1.0000 0.48780  0.10090  0.39820  Biso   1.000  H
  H24      1.0000 0.01220  0.10090  0.60180  Biso   1.000  H
  H25      1.0000 0.98490  0.29810  0.14450  Biso   1.000  H
  H26      1.0000 0.51510  0.29810  0.85550  Biso   1.000  H
  H27      1.0000 0.48490  0.79810  0.64450  Biso   1.000  H
  H28      1.0000 0.01510  0.79810  0.35550  Biso   1.000  H
  H29      1.0000 0.01510  0.70190  0.85550  Biso   1.000  H
  H30      1.0000 0.48490  0.70190  0.14450  Biso   1.000  H
  H31      1.0000 0.51510  0.20190  0.35550  Biso   1.000  H
  H32      1.0000 0.98490  0.20190  0.64450  Biso   1.000  H
  H33      1.0000 0.93810  0.52250  0.15640  Biso   1.000  H
  H34      1.0000 0.56190  0.52250  0.84360  Biso   1.000  H
  H35      1.0000 0.43810  0.02250  0.65640  Biso   1.000  H
  H36      1.0000 0.06190  0.02250  0.34360  Biso   1.000  H
  H37      1.0000 0.06190  0.47750  0.84360  Biso   1.000  H
  H38      1.0000 0.43810  0.47750  0.15640  Biso   1.000  H
  H39      1.0000 0.56190  0.97750  0.34360  Biso   1.000  H
  H40      1.0000 0.93810  0.97750  0.65640  Biso   1.000  H
  H41      1.0000 0.86250  0.49540  0.06140  Biso   1.000  H
  H42      1.0000 0.63750  0.49540  0.93860  Biso   1.000  H
  H43      1.0000 0.36250  0.99540  0.56140  Biso   1.000  H
  H44      1.0000 0.13750  0.99540  0.43860  Biso   1.000  H
  H45      1.0000 0.13750  0.50460  0.93860  Biso   1.000  H
  H46      1.0000 0.36250  0.50460  0.06140  Biso   1.000  H
  H47      1.0000 0.63750  0.00460  0.43860  Biso   1.000  H
  H48      1.0000 0.86250  0.00460  0.56140  Biso   1.000  H
  H49      1.0000 0.82920  0.51900  0.18550  Biso   1.000  H
  H50      1.0000 0.67080  0.51900  0.81450  Biso   1.000  H
  H51      1.0000 0.32920  0.01900  0.68550  Biso   1.000  H
  H52      1.0000 0.17080  0.01900  0.31450  Biso   1.000  H
  H53      1.0000 0.17080  0.48100  0.81450  Biso   1.000  H
  H54      1.0000 0.32920  0.48100  0.18550  Biso   1.000  H
  H55      1.0000 0.67080  0.98100  0.31450  Biso   1.000  H
  H56      1.0000 0.82920  0.98100  0.68550  Biso   1.000  H
  H57      1.0000 0.91910  0.32610  0.31620  Biso   1.000  H
  H58      1.0000 0.58090  0.32610  0.68380  Biso   1.000  H
  H59      1.0000 0.41910  0.82610  0.81620  Biso   1.000  H
  H60      1.0000 0.08090  0.82610  0.18380  Biso   1.000  H
  H61      1.0000 0.08090  0.67390  0.68380  Biso   1.000  H
  H62      1.0000 0.41910  0.67390  0.31620  Biso   1.000  H
  H63      1.0000 0.58090  0.17390  0.18380  Biso   1.000  H
  H64      1.0000 0.91910  0.17390  0.81620  Biso   1.000  H
  H65      1.0000 0.97010  0.42400  0.30580  Biso   1.000  H
  H66      1.0000 0.52990  0.42400  0.69420  Biso   1.000  H
  H67      1.0000 0.47010  0.92400  0.80580  Biso   1.000  H
  H68      1.0000 0.02990  0.92400  0.19420  Biso   1.000  H
  H69      1.0000 0.02990  0.57600  0.69420  Biso   1.000  H
  H70      1.0000 0.47010  0.57600  0.30580  Biso   1.000  H
  H71      1.0000 0.52990  0.07600  0.19420  Biso   1.000  H
  H72      1.0000 0.97010  0.07600  0.80580  Biso   1.000  H
  H73      1.0000 0.86120  0.41930  0.33400  Biso   1.000  H
  H74      1.0000 0.63880  0.41930  0.66600  Biso   1.000  H
  H75      1.0000 0.36120  0.91930  0.83400  Biso   1.000  H
  H76      1.0000 0.13880  0.91930  0.16600  Biso   1.000  H
  H77      1.0000 0.13880  0.58070  0.66600  Biso   1.000  H
  H78      1.0000 0.36120  0.58070  0.33400  Biso   1.000  H
  H79      1.0000 0.63880  0.08070  0.16600  Biso   1.000  H
  H80      1.0000 0.86120  0.08070  0.83400  Biso   1.000  H
  H81      1.0000 0.63700  0.47340  0.44100  Biso   1.000  H
  H82      1.0000 0.86300  0.47340  0.55900  Biso   1.000  H
  H83      1.0000 0.13700  0.97340  0.94100  Biso   1.000  H
  H84      1.0000 0.36300  0.97340  0.05900  Biso   1.000  H
  H85      1.0000 0.36300  0.52660  0.55900  Biso   1.000  H
  H86      1.0000 0.13700  0.52660  0.44100  Biso   1.000  H
  H87      1.0000 0.86300  0.02660  0.05900  Biso   1.000  H
  H88      1.0000 0.63700  0.02660  0.94100  Biso   1.000  H
  H89      1.0000 0.54100  0.43390  0.38920  Biso   1.000  H
  H90      1.0000 0.95900  0.43390  0.61080  Biso   1.000  H
  H91      1.0000 0.04100  0.93390  0.88920  Biso   1.000  H
  H92      1.0000 0.45900  0.93390  0.11080  Biso   1.000  H
  H93      1.0000 0.45900  0.56610  0.61080  Biso   1.000  H
  H94      1.0000 0.04100  0.56610  0.38920  Biso   1.000  H
  H95      1.0000 0.95900  0.06610  0.11080  Biso   1.000  H
  H96      1.0000 0.54100  0.06610  0.88920  Biso   1.000  H
  H97      1.0000 0.61640  0.36490  0.44360  Biso   1.000  H
  H98      1.0000 0.88360  0.36490  0.55640  Biso   1.000  H
  H99      1.0000 0.11640  0.86490  0.94360  Biso   1.000  H
  H100     1.0000 0.38360  0.86490  0.05640  Biso   1.000  H
  H101     1.0000 0.38360  0.63510  0.55640  Biso   1.000  H
  H102     1.0000 0.11640  0.63510  0.44360  Biso   1.000  H
  H103     1.0000 0.88360  0.13510  0.05640  Biso   1.000  H
  H104     1.0000 0.61640  0.13510  0.94360  Biso   1.000  H
