data_image0
_cell_length_a       15.117
_cell_length_b       8.606
_cell_length_c       7.212
_cell_angle_alpha    90
_cell_angle_beta     99.36
_cell_angle_gamma    90

_symmetry_space_group_name_H-M    "P 1"
_symmetry_int_tables_number       1

loop_
  _symmetry_equiv_pos_as_xyz
  'x, y, z'

loop_
  _atom_site_label
  _atom_site_occupancy
  _atom_site_fract_x
  _atom_site_fract_y
  _atom_site_fract_z
  _atom_site_thermal_displace_type
  _atom_site_B_iso_or_equiv
  _atom_site_type_symbol
  Cu1      1.0000 0.93408  0.06404  0.64930  Biso   1.000  Cu
  Cu2      1.0000 0.56592  0.56404  0.85070  Biso   1.000  Cu
  Cu3      1.0000 0.06592  0.93596  0.35070  Biso   1.000  Cu
  Cu4      1.0000 0.43408  0.43596  0.14930  Biso   1.000  Cu
  N1       1.0000 0.89090  0.98900  0.87610  Biso   1.000  N
  N2       1.0000 0.60910  0.48900  0.62390  Biso   1.000  N
  N3       1.0000 0.10910  0.01100  0.12390  Biso   1.000  N
  N4       1.0000 0.39090  0.51100  0.37610  Biso   1.000  N
  N5       1.0000 0.82690  0.99890  0.47030  Biso   1.000  N
  N6       1.0000 0.67310  0.49890  0.02970  Biso   1.000  N
  N7       1.0000 0.17310  0.00110  0.52970  Biso   1.000  N
  N8       1.0000 0.32690  0.50110  0.97030  Biso   1.000  N
  O1       1.0000 0.04830  0.09870  0.82730  Biso   1.000  O
  O2       1.0000 0.45170  0.59870  0.67270  Biso   1.000  O
  O3       1.0000 0.95170  0.90130  0.17270  Biso   1.000  O
  O4       1.0000 0.54830  0.40130  0.32730  Biso   1.000  O
  O5       1.0000 0.98900  0.16430  0.45270  Biso   1.000  O
  O6       1.0000 0.51100  0.66430  0.04730  Biso   1.000  O
  O7       1.0000 0.01100  0.83570  0.54730  Biso   1.000  O
  O8       1.0000 0.48900  0.33570  0.95270  Biso   1.000  O
  O9       1.0000 0.89490  0.35950  0.44160  Biso   1.000  O
  O10      1.0000 0.60510  0.85950  0.05840  Biso   1.000  O
  O11      1.0000 0.10510  0.64050  0.55840  Biso   1.000  O
  O12      1.0000 0.39490  0.14050  0.94160  Biso   1.000  O
  O13      1.0000 0.16370  0.35860  0.74410  Biso   1.000  O
  O14      1.0000 0.33630  0.85860  0.75590  Biso   1.000  O
  O15      1.0000 0.83630  0.64140  0.25590  Biso   1.000  O
  O16      1.0000 0.66370  0.14140  0.24410  Biso   1.000  O
  C1       1.0000 0.95400  0.96840  0.01570  Biso   1.000  C
  C2       1.0000 0.54600  0.46840  0.48430  Biso   1.000  C
  C3       1.0000 0.04600  0.03160  0.98430  Biso   1.000  C
  C4       1.0000 0.45400  0.53160  0.51570  Biso   1.000  C
  C5       1.0000 0.80170  0.92900  0.89630  Biso   1.000  C
  C6       1.0000 0.69830  0.42900  0.60370  Biso   1.000  C
  C7       1.0000 0.19830  0.07100  0.10370  Biso   1.000  C
  C8       1.0000 0.30170  0.57100  0.39630  Biso   1.000  C
  C9       1.0000 0.73450  0.94740  0.71650  Biso   1.000  C
  C10      1.0000 0.76550  0.44740  0.78350  Biso   1.000  C
  C11      1.0000 0.26550  0.05260  0.28350  Biso   1.000  C
  C12      1.0000 0.23450  0.55260  0.21650  Biso   1.000  C
  C13      1.0000 0.76760  0.88630  0.54280  Biso   1.000  C
  C14      1.0000 0.73240  0.38630  0.95720  Biso   1.000  C
  C15      1.0000 0.23240  0.11370  0.45720  Biso   1.000  C
  C16      1.0000 0.26760  0.61370  0.04280  Biso   1.000  C
  C17      1.0000 0.95680  0.29360  0.38590  Biso   1.000  C
  C18      1.0000 0.54320  0.79360  0.11410  Biso   1.000  C
  C19      1.0000 0.04320  0.70640  0.61410  Biso   1.000  C
  C20      1.0000 0.45680  0.20640  0.88590  Biso   1.000  C
  C21      1.0000 0.00040  0.36400  0.23140  Biso   1.000  C
  C22      1.0000 0.49960  0.86400  0.26860  Biso   1.000  C
  C23      1.0000 0.99960  0.63600  0.76860  Biso   1.000  C
  C24      1.0000 0.50040  0.13600  0.73140  Biso   1.000  C
  H1       1.0000 0.79230  0.08060  0.43640  Biso   1.000  H
  H2       1.0000 0.70770  0.58060  0.06360  Biso   1.000  H
  H3       1.0000 0.20770  0.91940  0.56360  Biso   1.000  H
  H4       1.0000 0.29230  0.41940  0.93640  Biso   1.000  H
  H5       1.0000 0.84340  0.95050  0.38180  Biso   1.000  H
  H6       1.0000 0.65660  0.45050  0.11820  Biso   1.000  H
  H7       1.0000 0.15660  0.04950  0.61820  Biso   1.000  H
  H8       1.0000 0.34340  0.54950  0.88180  Biso   1.000  H
  H9       1.0000 0.10920  0.29330  0.77950  Biso   1.000  H
  H10      1.0000 0.39080  0.79330  0.72050  Biso   1.000  H
  H11      1.0000 0.89080  0.70670  0.22050  Biso   1.000  H
  H12      1.0000 0.60920  0.20670  0.27950  Biso   1.000  H
  H13      1.0000 0.13950  0.42100  0.65800  Biso   1.000  H
  H14      1.0000 0.36050  0.92100  0.84200  Biso   1.000  H
  H15      1.0000 0.86050  0.57900  0.34200  Biso   1.000  H
  H16      1.0000 0.63950  0.07900  0.15800  Biso   1.000  H
  H17      1.0000 0.81220  0.82290  0.91050  Biso   1.000  H
  H18      1.0000 0.68780  0.32290  0.58950  Biso   1.000  H
  H19      1.0000 0.18780  0.17710  0.08950  Biso   1.000  H
  H20      1.0000 0.31220  0.67710  0.41050  Biso   1.000  H
  H21      1.0000 0.77970  0.98060  0.99170  Biso   1.000  H
  H22      1.0000 0.72030  0.48060  0.50830  Biso   1.000  H
  H23      1.0000 0.22030  0.01940  0.00830  Biso   1.000  H
  H24      1.0000 0.27970  0.51940  0.49170  Biso   1.000  H
  H25      1.0000 0.67600  0.88110  0.72970  Biso   1.000  H
  H26      1.0000 0.82400  0.38110  0.77030  Biso   1.000  H
  H27      1.0000 0.32400  0.11890  0.27030  Biso   1.000  H
  H28      1.0000 0.17600  0.61890  0.22970  Biso   1.000  H
  H29      1.0000 0.71660  0.06150  0.69050  Biso   1.000  H
  H30      1.0000 0.78340  0.56150  0.80950  Biso   1.000  H
  H31      1.0000 0.28340  0.93850  0.30950  Biso   1.000  H
  H32      1.0000 0.21660  0.43850  0.19050  Biso   1.000  H
  H33      1.0000 0.72020  0.85900  0.45180  Biso   1.000  H
  H34      1.0000 0.77980  0.35900  0.04820  Biso   1.000  H
  H35      1.0000 0.27980  0.14100  0.54820  Biso   1.000  H
  H36      1.0000 0.22020  0.64100  0.95180  Biso   1.000  H
  H37      1.0000 0.80400  0.77510  0.56560  Biso   1.000  H
  H38      1.0000 0.69600  0.27510  0.93440  Biso   1.000  H
  H39      1.0000 0.19600  0.22490  0.43440  Biso   1.000  H
  H40      1.0000 0.30400  0.72490  0.06560  Biso   1.000  H
  H41      1.0000 0.03710  0.45750  0.28920  Biso   1.000  H
  H42      1.0000 0.46290  0.95750  0.21080  Biso   1.000  H
  H43      1.0000 0.96290  0.54250  0.71080  Biso   1.000  H
  H44      1.0000 0.53710  0.04250  0.78920  Biso   1.000  H
  H45      1.0000 0.95260  0.40040  0.12680  Biso   1.000  H
  H46      1.0000 0.54740  0.90040  0.37320  Biso   1.000  H
  H47      1.0000 0.04740  0.59960  0.87320  Biso   1.000  H
  H48      1.0000 0.45260  0.09960  0.62680  Biso   1.000  H
  H49      1.0000 0.03940  0.28680  0.18280  Biso   1.000  H
  H50      1.0000 0.46060  0.78680  0.31720  Biso   1.000  H
  H51      1.0000 0.96060  0.71320  0.81720  Biso   1.000  H
  H52      1.0000 0.53940  0.21320  0.68280  Biso   1.000  H
