data_image0
_cell_length_a       12.1072
_cell_length_b       15.4007
_cell_length_c       15.9259
_cell_angle_alpha    84.207
_cell_angle_beta     74.161
_cell_angle_gamma    87.545

_symmetry_space_group_name_H-M    "P 1"
_symmetry_int_tables_number       1

loop_
  _symmetry_equiv_pos_as_xyz
  'x, y, z'

loop_
  _atom_site_label
  _atom_site_occupancy
  _atom_site_fract_x
  _atom_site_fract_y
  _atom_site_fract_z
  _atom_site_thermal_displace_type
  _atom_site_B_iso_or_equiv
  _atom_site_type_symbol
  Cu1      1.0000 0.35090  0.91175  0.30277  Biso   1.000  Cu
  Cu2      1.0000 0.64910  0.08825  0.69723  Biso   1.000  Cu
  O1       1.0000 0.48142  0.97207  0.31885  Biso   1.000  O
  O2       1.0000 0.51858  0.02793  0.68115  Biso   1.000  O
  C1       1.0000 0.66560  0.02340  0.29640  Biso   1.000  C
  C2       1.0000 0.33440  0.97660  0.70360  Biso   1.000  C
  F1       1.0000 0.77190  0.01092  0.25152  Biso   1.000  F
  F2       1.0000 0.22810  0.98908  0.74848  Biso   1.000  F
  F3       1.0000 0.64780  0.11075  0.28793  Biso   1.000  F
  F4       1.0000 0.35220  0.88925  0.71207  Biso   1.000  F
  F5       1.0000 0.65330  0.00400  0.38022  Biso   1.000  F
  F6       1.0000 0.34670  0.99600  0.61978  Biso   1.000  F
  C3       1.0000 0.57710  0.97838  0.26374  Biso   1.000  C
  C4       1.0000 0.42290  0.02162  0.73626  Biso   1.000  C
  C5       1.0000 0.60980  0.95190  0.17960  Biso   1.000  C
  C6       1.0000 0.39020  0.04810  0.82040  Biso   1.000  C
  H1       1.0000 0.68620  0.96170  0.14470  Biso   1.000  H
  H2       1.0000 0.31380  0.03830  0.85530  Biso   1.000  H
  C7       1.0000 0.53450  0.91167  0.14519  Biso   1.000  C
  C8       1.0000 0.46550  0.08833  0.85481  Biso   1.000  C
  C9       1.0000 0.57740  0.88230  0.05300  Biso   1.000  C
  C10      1.0000 0.42260  0.11770  0.94700  Biso   1.000  C
  F7       1.0000 0.67400  0.91790  0.00683  Biso   1.000  F
  F8       1.0000 0.32600  0.08210  0.99317  Biso   1.000  F
  F9       1.0000 0.50220  0.89710  0.00833  Biso   1.000  F
  F10      1.0000 0.49780  0.10290  0.99167  Biso   1.000  F
  F11      1.0000 0.59850  0.79800  0.05800  Biso   1.000  F
  F12      1.0000 0.40150  0.20200  0.94200  Biso   1.000  F
  O3       1.0000 0.43159  0.89303  0.18107  Biso   1.000  O
  O4       1.0000 0.56841  0.10697  0.81893  Biso   1.000  O
  O5       1.0000 0.26788  0.91550  0.42793  Biso   1.000  O
  O6       1.0000 0.73212  0.08450  0.57207  Biso   1.000  O
  C11      1.0000 0.11230  0.92748  0.55103  Biso   1.000  C
  C12      1.0000 0.88770  0.07252  0.44897  Biso   1.000  C
  F13      1.0000 0.14288  0.00752  0.55912  Biso   1.000  F
  F14      1.0000 0.85712  0.99248  0.44088  Biso   1.000  F
  F15      1.0000 0.99773  0.92576  0.57649  Biso   1.000  F
  F16      1.0000 0.00227  0.07424  0.42351  Biso   1.000  F
  F17      1.0000 0.15157  0.87357  0.60736  Biso   1.000  F
  F18      1.0000 0.84843  0.12643  0.39264  Biso   1.000  F
  C13      1.0000 0.16160  0.90309  0.45683  Biso   1.000  C
  C14      1.0000 0.83840  0.09691  0.54317  Biso   1.000  C
  C15      1.0000 0.08800  0.87063  0.41518  Biso   1.000  C
  C16      1.0000 0.91200  0.12937  0.58482  Biso   1.000  C
  H3       1.0000 0.00840  0.86760  0.44440  Biso   1.000  H
  H4       1.0000 0.99160  0.13240  0.55560  Biso   1.000  H
  C17      1.0000 0.12690  0.84228  0.33180  Biso   1.000  C
  C18      1.0000 0.87310  0.15772  0.66820  Biso   1.000  C
  C19      1.0000 0.04230  0.79970  0.29400  Biso   1.000  C
  C20      1.0000 0.95770  0.20030  0.70600  Biso   1.000  C
  F19      1.0000 0.93491  0.80484  0.34048  Biso   1.000  F
  F20      1.0000 0.06509  0.19516  0.65952  Biso   1.000  F
  F21      1.0000 0.05060  0.83020  0.21435  Biso   1.000  F
  F22      1.0000 0.94940  0.16980  0.78565  Biso   1.000  F
  F23      1.0000 0.06580  0.71391  0.29270  Biso   1.000  F
  F24      1.0000 0.93420  0.28609  0.70730  Biso   1.000  F
  O7       1.0000 0.22690  0.84623  0.28181  Biso   1.000  O
  O8       1.0000 0.77310  0.15377  0.71819  Biso   1.000  O
  Cu3      1.0000 0.19714  0.43077  0.20204  Biso   1.000  Cu
  Cu4      1.0000 0.80286  0.56923  0.79796  Biso   1.000  Cu
  O9       1.0000 0.05785  0.50134  0.20386  Biso   1.000  O
  O10      1.0000 0.94215  0.49866  0.79614  Biso   1.000  O
  C21      1.0000 0.87390  0.56160  0.25600  Biso   1.000  C
  C22      1.0000 0.12610  0.43840  0.74400  Biso   1.000  C
  F25      1.0000 0.78510  0.51590  0.25630  Biso   1.000  F
  F26      1.0000 0.21490  0.48410  0.74370  Biso   1.000  F
  F27      1.0000 0.90220  0.61410  0.18520  Biso   1.000  F
  F28      1.0000 0.09780  0.38590  0.81480  Biso   1.000  F
  F29      1.0000 0.83810  0.61510  0.32210  Biso   1.000  F
  F30      1.0000 0.16190  0.38490  0.67790  Biso   1.000  F
  C23      1.0000 0.97440  0.50426  0.27030  Biso   1.000  C
  C24      1.0000 0.02560  0.49574  0.72970  Biso   1.000  C
  C25      1.0000 0.96120  0.46116  0.35374  Biso   1.000  C
  C26      1.0000 0.03880  0.53884  0.64626  Biso   1.000  C
  H5       1.0000 0.89280  0.47050  0.39840  Biso   1.000  H
  H6       1.0000 0.10720  0.52950  0.60160  Biso   1.000  H
  C27      1.0000 0.04470  0.40553  0.37300  Biso   1.000  C
  C28      1.0000 0.95530  0.59447  0.62700  Biso   1.000  C
  C29      1.0000 0.02460  0.35980  0.46530  Biso   1.000  C
  C30      1.0000 0.97540  0.64020  0.53470  Biso   1.000  C
  F31      1.0000 0.06700  0.27900  0.46510  Biso   1.000  F
  F32      1.0000 0.93300  0.72100  0.53490  Biso   1.000  F
  F33      1.0000 0.09760  0.38720  0.50463  Biso   1.000  F
  F34      1.0000 0.90240  0.61280  0.49537  Biso   1.000  F
  F35      1.0000 0.91830  0.35980  0.50860  Biso   1.000  F
  F36      1.0000 0.08170  0.64020  0.49140  Biso   1.000  F
  O11      1.0000 0.14176  0.38622  0.32412  Biso   1.000  O
  O12      1.0000 0.85824  0.61378  0.67588  Biso   1.000  O
  O13      1.0000 0.24776  0.46028  0.07533  Biso   1.000  O
  O14      1.0000 0.75224  0.53972  0.92467  Biso   1.000  O
  C31      1.0000 0.34870  0.45670  0.92775  Biso   1.000  C
  C32      1.0000 0.65130  0.54330  0.07225  Biso   1.000  C
  F37      1.0000 0.32180  0.53640  0.91530  Biso   1.000  F
  F38      1.0000 0.67820  0.46360  0.08470  Biso   1.000  F
  F39      1.0000 0.30160  0.41810  0.89430  Biso   1.000  F
  F40      1.0000 0.69840  0.58190  0.10570  Biso   1.000  F
  F41      1.0000 0.45210  0.44830  0.88070  Biso   1.000  F
  F42      1.0000 0.54790  0.55170  0.11930  Biso   1.000  F
  C33      1.0000 0.33330  0.42648  0.02492  Biso   1.000  C
  C34      1.0000 0.66670  0.57352  0.97508  Biso   1.000  C
  C35      1.0000 0.41240  0.36680  0.04607  Biso   1.000  C
  C36      1.0000 0.58760  0.63320  0.95393  Biso   1.000  C
  H7       1.0000 0.47340  0.34690  0.00030  Biso   1.000  H
  H8       1.0000 0.52660  0.65310  0.99970  Biso   1.000  H
  C37      1.0000 0.40530  0.33534  0.13170  Biso   1.000  C
  C38      1.0000 0.59470  0.66466  0.86830  Biso   1.000  C
  C39      1.0000 0.49660  0.26890  0.14933  Biso   1.000  C
  C40      1.0000 0.50340  0.73110  0.85067  Biso   1.000  C
  F43      1.0000 0.58830  0.26513  0.08114  Biso   1.000  F
  F44      1.0000 0.41170  0.73487  0.91886  Biso   1.000  F
  F45      1.0000 0.45402  0.18891  0.16715  Biso   1.000  F
  F46      1.0000 0.54598  0.81109  0.83285  Biso   1.000  F
  F47      1.0000 0.53270  0.28749  0.21624  Biso   1.000  F
  F48      1.0000 0.46730  0.71251  0.78376  Biso   1.000  F
  O15      1.0000 0.33107  0.35277  0.19989  Biso   1.000  O
  O16      1.0000 0.66893  0.64723  0.80011  Biso   1.000  O
  O17      1.0000 0.46776  0.78306  0.33520  Biso   1.000  O
  O18      1.0000 0.53224  0.21694  0.66480  Biso   1.000  O
  N1       1.0000 0.44216  0.72406  0.40041  Biso   1.000  N
  N2       1.0000 0.55784  0.27594  0.59959  Biso   1.000  N
  C41      1.0000 0.48920  0.72378  0.47869  Biso   1.000  C
  C42      1.0000 0.51080  0.27622  0.52131  Biso   1.000  C
  C43      1.0000 0.61390  0.69300  0.44870  Biso   1.000  C
  C44      1.0000 0.38610  0.30700  0.55130  Biso   1.000  C
  H9       1.0000 0.64900  0.69180  0.49740  Biso   1.000  H
  H10      1.0000 0.35100  0.30820  0.50260  Biso   1.000  H
  H11      1.0000 0.65600  0.73320  0.39980  Biso   1.000  H
  H12      1.0000 0.34400  0.26680  0.60020  Biso   1.000  H
  H13      1.0000 0.61690  0.63430  0.42940  Biso   1.000  H
  H14      1.0000 0.38310  0.36570  0.57060  Biso   1.000  H
  C45      1.0000 0.48180  0.81578  0.50740  Biso   1.000  C
  C46      1.0000 0.51820  0.18422  0.49260  Biso   1.000  C
  H15      1.0000 0.51530  0.81600  0.55690  Biso   1.000  H
  H16      1.0000 0.48470  0.18400  0.44310  Biso   1.000  H
  H17      1.0000 0.40120  0.83480  0.52530  Biso   1.000  H
  H18      1.0000 0.59880  0.16520  0.47470  Biso   1.000  H
  H19      1.0000 0.52420  0.85570  0.45850  Biso   1.000  H
  H20      1.0000 0.47580  0.14430  0.54150  Biso   1.000  H
  C47      1.0000 0.40920  0.65624  0.54362  Biso   1.000  C
  C48      1.0000 0.59080  0.34376  0.45638  Biso   1.000  C
  C49      1.0000 0.29890  0.69660  0.59890  Biso   1.000  C
  C50      1.0000 0.70110  0.30340  0.40110  Biso   1.000  C
  H21      1.0000 0.31740  0.73050  0.64200  Biso   1.000  H
  H22      1.0000 0.68260  0.26950  0.35800  Biso   1.000  H
  H23      1.0000 0.24580  0.65020  0.62930  Biso   1.000  H
  H24      1.0000 0.75420  0.34980  0.37070  Biso   1.000  H
  H25      1.0000 0.26300  0.73510  0.56070  Biso   1.000  H
  H26      1.0000 0.73700  0.26490  0.43930  Biso   1.000  H
  C51      1.0000 0.46660  0.59650  0.60170  Biso   1.000  C
  C52      1.0000 0.53340  0.40350  0.39830  Biso   1.000  C
  H27      1.0000 0.49200  0.63100  0.64110  Biso   1.000  H
  H28      1.0000 0.50800  0.36900  0.35890  Biso   1.000  H
  H29      1.0000 0.53300  0.56700  0.56500  Biso   1.000  H
  H30      1.0000 0.46700  0.43300  0.43500  Biso   1.000  H
  H31      1.0000 0.41170  0.55280  0.63630  Biso   1.000  H
  H32      1.0000 0.58830  0.44720  0.36370  Biso   1.000  H
  N3       1.0000 0.37266  0.60453  0.48087  Biso   1.000  N
  N4       1.0000 0.62734  0.39547  0.51913  Biso   1.000  N
  O19      1.0000 0.31984  0.53245  0.50556  Biso   1.000  O
  O20      1.0000 0.68016  0.46755  0.49444  Biso   1.000  O
  C53      1.0000 0.38740  0.64971  0.40171  Biso   1.000  C
  C54      1.0000 0.61260  0.35029  0.59829  Biso   1.000  C
  C55      1.0000 0.34960  0.62411  0.32969  Biso   1.000  C
  C56      1.0000 0.65040  0.37589  0.67031  Biso   1.000  C
  C57      1.0000 0.29910  0.54530  0.32313  Biso   1.000  C
  C58      1.0000 0.70090  0.45470  0.67687  Biso   1.000  C
  H33      1.0000 0.28520  0.49770  0.36730  Biso   1.000  H
  H34      1.0000 0.71480  0.50230  0.63270  Biso   1.000  H
  N5       1.0000 0.27366  0.54639  0.24716  Biso   1.000  N
  N6       1.0000 0.72634  0.45361  0.75284  Biso   1.000  N
  N7       1.0000 0.30667  0.62608  0.20449  Biso   1.000  N
  N8       1.0000 0.69333  0.37392  0.79551  Biso   1.000  N
  C59      1.0000 0.28080  0.65370  0.12173  Biso   1.000  C
  C60      1.0000 0.71920  0.34630  0.87827  Biso   1.000  C
  H35      1.0000 0.24890  0.60470  0.10180  Biso   1.000  H
  H36      1.0000 0.75110  0.39530  0.89820  Biso   1.000  H
  H37      1.0000 0.35140  0.67290  0.07780  Biso   1.000  H
  H38      1.0000 0.64860  0.32710  0.92220  Biso   1.000  H
  H39      1.0000 0.22480  0.70200  0.12990  Biso   1.000  H
  H40      1.0000 0.77520  0.29800  0.87010  Biso   1.000  H
  C61      1.0000 0.35350  0.67314  0.25110  Biso   1.000  C
  C62      1.0000 0.64650  0.32686  0.74890  Biso   1.000  C
  H41      1.0000 0.38400  0.73000  0.23370  Biso   1.000  H
  H42      1.0000 0.61600  0.27000  0.76630  Biso   1.000  H
  O21      1.0000 0.07443  0.31296  0.18426  Biso   1.000  O
  O22      1.0000 0.92557  0.68704  0.81574  Biso   1.000  O
  N9       1.0000 0.05165  0.25303  0.14055  Biso   1.000  N
  N10      1.0000 0.94835  0.74697  0.85945  Biso   1.000  N
  C63      1.0000 0.96580  0.26809  0.08820  Biso   1.000  C
  C64      1.0000 0.03420  0.73191  0.91180  Biso   1.000  C
  C65      1.0000 0.99030  0.35360  0.03090  Biso   1.000  C
  C66      1.0000 0.00970  0.64640  0.96910  Biso   1.000  C
  H43      1.0000 0.93490  0.36270  0.99590  Biso   1.000  H
  H44      1.0000 0.06510  0.63730  0.00410  Biso   1.000  H
  H45      1.0000 0.06820  0.35160  0.99180  Biso   1.000  H
  H46      1.0000 0.93180  0.64840  0.00820  Biso   1.000  H
  H47      1.0000 0.98350  0.40170  0.06790  Biso   1.000  H
  H48      1.0000 0.01650  0.59830  0.93210  Biso   1.000  H
  C67      1.0000 0.84880  0.27300  0.15550  Biso   1.000  C
  C68      1.0000 0.15120  0.72700  0.84450  Biso   1.000  C
  H49      1.0000 0.78850  0.28290  0.12510  Biso   1.000  H
  H50      1.0000 0.21150  0.71710  0.87490  Biso   1.000  H
  H51      1.0000 0.84800  0.32130  0.19140  Biso   1.000  H
  H52      1.0000 0.15200  0.67870  0.80860  Biso   1.000  H
  H53      1.0000 0.83510  0.21800  0.19330  Biso   1.000  H
  H54      1.0000 0.16490  0.78200  0.80670  Biso   1.000  H
  C69      1.0000 0.98470  0.18343  0.03910  Biso   1.000  C
  C70      1.0000 0.01530  0.81657  0.96090  Biso   1.000  C
  C71      1.0000 0.07410  0.19360  0.95040  Biso   1.000  C
  C72      1.0000 0.92590  0.80640  0.04960  Biso   1.000  C
  H55      1.0000 0.04270  0.23120  0.90870  Biso   1.000  H
  H56      1.0000 0.95730  0.76880  0.09130  Biso   1.000  H
  H57      1.0000 0.09380  0.13610  0.92850  Biso   1.000  H
  H58      1.0000 0.90620  0.86390  0.07150  Biso   1.000  H
  H59      1.0000 0.14320  0.22000  0.95690  Biso   1.000  H
  H60      1.0000 0.85680  0.78000  0.04310  Biso   1.000  H
  C73      1.0000 0.87710  0.14280  0.03060  Biso   1.000  C
  C74      1.0000 0.12290  0.85720  0.96940  Biso   1.000  C
  H61      1.0000 0.84090  0.18290  0.99390  Biso   1.000  H
  H62      1.0000 0.15910  0.81710  0.00610  Biso   1.000  H
  H63      1.0000 0.82360  0.13140  0.08890  Biso   1.000  H
  H64      1.0000 0.17640  0.86860  0.91110  Biso   1.000  H
  H65      1.0000 0.89720  0.08780  0.00360  Biso   1.000  H
  H66      1.0000 0.10280  0.91220  0.99640  Biso   1.000  H
  N11      1.0000 0.03870  0.12400  0.09774  Biso   1.000  N
  N12      1.0000 0.96130  0.87600  0.90226  Biso   1.000  N
  O23      1.0000 0.05240  0.04260  0.09053  Biso   1.000  O
  O24      1.0000 0.94760  0.95740  0.90947  Biso   1.000  O
  C75      1.0000 0.08300  0.16889  0.14924  Biso   1.000  C
  C76      1.0000 0.91700  0.83111  0.85076  Biso   1.000  C
  C77      1.0000 0.15160  0.13290  0.20486  Biso   1.000  C
  C78      1.0000 0.84840  0.86710  0.79514  Biso   1.000  C
  C79      1.0000 0.20050  0.04867  0.20968  Biso   1.000  C
  C80      1.0000 0.79950  0.95133  0.79032  Biso   1.000  C
  H67      1.0000 0.19300  0.00430  0.17430  Biso   1.000  H
  H68      1.0000 0.80700  0.99570  0.82570  Biso   1.000  H
  N13      1.0000 0.25846  0.03905  0.26990  Biso   1.000  N
  N14      1.0000 0.74154  0.96095  0.73010  Biso   1.000  N
  N15      1.0000 0.24623  0.11743  0.30478  Biso   1.000  N
  N16      1.0000 0.75377  0.88257  0.69522  Biso   1.000  N
  C81      1.0000 0.30160  0.13296  0.37234  Biso   1.000  C
  C82      1.0000 0.69840  0.86704  0.62766  Biso   1.000  C
  H69      1.0000 0.33960  0.07910  0.38900  Biso   1.000  H
  H70      1.0000 0.66040  0.92090  0.61100  Biso   1.000  H
  H71      1.0000 0.24370  0.15150  0.42380  Biso   1.000  H
  H72      1.0000 0.75630  0.84850  0.57620  Biso   1.000  H
  H73      1.0000 0.35870  0.17880  0.34970  Biso   1.000  H
  H74      1.0000 0.64130  0.82120  0.65030  Biso   1.000  H
  C83      1.0000 0.18390  0.17440  0.26773  Biso   1.000  C
  C84      1.0000 0.81610  0.82560  0.73227  Biso   1.000  C
  H75      1.0000 0.16500  0.23270  0.28170  Biso   1.000  H
  H76      1.0000 0.83500  0.76730  0.71830  Biso   1.000  H
  F49      1.0000 0.81560  0.59530  0.32390  Biso   1.000  F
  F50      1.0000 0.18440  0.40470  0.67610  Biso   1.000  F
  F51      1.0000 0.80550  0.51260  0.23380  Biso   1.000  F
  F52      1.0000 0.19450  0.48740  0.76620  Biso   1.000  F
  F53      1.0000 0.90240  0.62130  0.19250  Biso   1.000  F
  F54      1.0000 0.09760  0.37870  0.80750  Biso   1.000  F
  F55      1.0000 0.02990  0.27670  0.46080  Biso   1.000  F
  F56      1.0000 0.97010  0.72330  0.53920  Biso   1.000  F
  F57      1.0000 0.92930  0.37790  0.52160  Biso   1.000  F
  F58      1.0000 0.07070  0.62210  0.47840  Biso   1.000  F
  F59      1.0000 0.29300  0.52650  0.91560  Biso   1.000  F
  F60      1.0000 0.70700  0.47350  0.08440  Biso   1.000  F
  F61      1.0000 0.30120  0.39040  0.89060  Biso   1.000  F
  F62      1.0000 0.69880  0.60960  0.10940  Biso   1.000  F
  F63      1.0000 0.45800  0.47080  0.88450  Biso   1.000  F
  F64      1.0000 0.54200  0.52920  0.11550  Biso   1.000  F
