data_image0
_cell_length_a       12.465
_cell_length_b       5.999
_cell_length_c       14.733
_cell_angle_alpha    90
_cell_angle_beta     111.91
_cell_angle_gamma    90

_symmetry_space_group_name_H-M    "P 1"
_symmetry_int_tables_number       1

loop_
  _symmetry_equiv_pos_as_xyz
  'x, y, z'

loop_
  _atom_site_label
  _atom_site_occupancy
  _atom_site_fract_x
  _atom_site_fract_y
  _atom_site_fract_z
  _atom_site_thermal_displace_type
  _atom_site_B_iso_or_equiv
  _atom_site_type_symbol
  Cu1      1.0000 0.59098  0.21860  0.80519  Biso   1.000  Cu
  Cu2      1.0000 0.90902  0.71860  0.69481  Biso   1.000  Cu
  Cu3      1.0000 0.40902  0.78140  0.19481  Biso   1.000  Cu
  Cu4      1.0000 0.09098  0.28140  0.30519  Biso   1.000  Cu
  O1       1.0000 0.67360  0.00260  0.75670  Biso   1.000  O
  O2       1.0000 0.82640  0.50260  0.74330  Biso   1.000  O
  O3       1.0000 0.32640  0.99740  0.24330  Biso   1.000  O
  O4       1.0000 0.17360  0.49740  0.25670  Biso   1.000  O
  O5       1.0000 0.75830  0.46300  0.86230  Biso   1.000  O
  O6       1.0000 0.74170  0.96300  0.63770  Biso   1.000  O
  O7       1.0000 0.24170  0.53700  0.13770  Biso   1.000  O
  O8       1.0000 0.25830  0.03700  0.36230  Biso   1.000  O
  O9       1.0000 0.49260  0.45750  0.82340  Biso   1.000  O
  O10      1.0000 0.00740  0.95750  0.67660  Biso   1.000  O
  O11      1.0000 0.50740  0.54250  0.17660  Biso   1.000  O
  O12      1.0000 0.99260  0.04250  0.32340  Biso   1.000  O
  O13      1.0000 0.41550  0.78200  0.75600  Biso   1.000  O
  O14      1.0000 0.08450  0.28200  0.74400  Biso   1.000  O
  O15      1.0000 0.58450  0.21800  0.24400  Biso   1.000  O
  O16      1.0000 0.91550  0.71800  0.25600  Biso   1.000  O
  N1       1.0000 0.52010  0.31300  0.66440  Biso   1.000  N
  N2       1.0000 0.97990  0.81300  0.83560  Biso   1.000  N
  N3       1.0000 0.47990  0.68700  0.33560  Biso   1.000  N
  N4       1.0000 0.02010  0.18700  0.16440  Biso   1.000  N
  N5       1.0000 0.62880  0.09850  0.93600  Biso   1.000  N
  N6       1.0000 0.87120  0.59850  0.56400  Biso   1.000  N
  N7       1.0000 0.37120  0.90150  0.06400  Biso   1.000  N
  N8       1.0000 0.12880  0.40150  0.43600  Biso   1.000  N
  N9       1.0000 0.63490  0.08340  0.08610  Biso   1.000  N
  N10      1.0000 0.86510  0.58340  0.41390  Biso   1.000  N
  N11      1.0000 0.36510  0.91660  0.91390  Biso   1.000  N
  N12      1.0000 0.13490  0.41660  0.58610  Biso   1.000  N
  C1       1.0000 0.67820  0.05500  0.67430  Biso   1.000  C
  C2       1.0000 0.82180  0.55500  0.82570  Biso   1.000  C
  C3       1.0000 0.32180  0.94500  0.32570  Biso   1.000  C
  C4       1.0000 0.17820  0.44500  0.17430  Biso   1.000  C
  C5       1.0000 0.60360  0.24730  0.61930  Biso   1.000  C
  C6       1.0000 0.89640  0.74730  0.88070  Biso   1.000  C
  C7       1.0000 0.39640  0.75270  0.38070  Biso   1.000  C
  C8       1.0000 0.10360  0.25270  0.11930  Biso   1.000  C
  C9       1.0000 0.50090  0.55490  0.66920  Biso   1.000  C
  C10      1.0000 0.99910  0.05490  0.83080  Biso   1.000  C
  C11      1.0000 0.49910  0.44510  0.33080  Biso   1.000  C
  C12      1.0000 0.00090  0.94510  0.16920  Biso   1.000  C
  C13      1.0000 0.46550  0.60330  0.75610  Biso   1.000  C
  C14      1.0000 0.03450  0.10330  0.74390  Biso   1.000  C
  C15      1.0000 0.53450  0.39670  0.24390  Biso   1.000  C
  C16      1.0000 0.96550  0.89670  0.25610  Biso   1.000  C
  C17      1.0000 0.40830  0.19600  0.61580  Biso   1.000  C
  C18      1.0000 0.09170  0.69600  0.88420  Biso   1.000  C
  C19      1.0000 0.59170  0.80400  0.38420  Biso   1.000  C
  C20      1.0000 0.90830  0.30400  0.11580  Biso   1.000  C
  C21      1.0000 0.60960  0.20710  0.00670  Biso   1.000  C
  C22      1.0000 0.89040  0.70710  0.49330  Biso   1.000  C
  C23      1.0000 0.39040  0.79290  0.99330  Biso   1.000  C
  C24      1.0000 0.10960  0.29290  0.50670  Biso   1.000  C
  C25      1.0000 0.67230  0.87940  0.06710  Biso   1.000  C
  C26      1.0000 0.82770  0.37940  0.43290  Biso   1.000  C
  C27      1.0000 0.32770  0.12060  0.93290  Biso   1.000  C
  C28      1.0000 0.17230  0.62060  0.56710  Biso   1.000  C
  C29      1.0000 0.66860  0.89080  0.97430  Biso   1.000  C
  C30      1.0000 0.83140  0.39080  0.52570  Biso   1.000  C
  C31      1.0000 0.33140  0.10920  0.02570  Biso   1.000  C
  C32      1.0000 0.16860  0.60920  0.47430  Biso   1.000  C
