data_image0
_cell_length_a       12.4232
_cell_length_b       5.9707
_cell_length_c       15.252
_cell_angle_alpha    90
_cell_angle_beta     116.601
_cell_angle_gamma    90

_symmetry_space_group_name_H-M    "P 1"
_symmetry_int_tables_number       1

loop_
  _symmetry_equiv_pos_as_xyz
  'x, y, z'

loop_
  _atom_site_label
  _atom_site_occupancy
  _atom_site_fract_x
  _atom_site_fract_y
  _atom_site_fract_z
  _atom_site_thermal_displace_type
  _atom_site_B_iso_or_equiv
  _atom_site_type_symbol
  Cu1      1.0000 0.78580  0.78320  0.19520  Biso   1.000  Cu
  Cu2      1.0000 0.21420  0.28320  0.30480  Biso   1.000  Cu
  Cu3      1.0000 0.21420  0.21680  0.80480  Biso   1.000  Cu
  Cu4      1.0000 0.78580  0.71680  0.69520  Biso   1.000  Cu
  O1       1.0000 0.91730  0.00080  0.24380  Biso   1.000  O
  O2       1.0000 0.08270  0.50080  0.25620  Biso   1.000  O
  O3       1.0000 0.08270  0.99920  0.75620  Biso   1.000  O
  O4       1.0000 0.91730  0.49920  0.74380  Biso   1.000  O
  O5       1.0000 0.10520  0.03870  0.36260  Biso   1.000  O
  O6       1.0000 0.89480  0.53870  0.13740  Biso   1.000  O
  O7       1.0000 0.89480  0.96130  0.63740  Biso   1.000  O
  O8       1.0000 0.10520  0.46130  0.86260  Biso   1.000  O
  O9       1.0000 0.66840  0.54190  0.17680  Biso   1.000  O
  O10      1.0000 0.33160  0.04190  0.32320  Biso   1.000  O
  O11      1.0000 0.33160  0.45810  0.82320  Biso   1.000  O
  O12      1.0000 0.66840  0.95810  0.67680  Biso   1.000  O
  O13      1.0000 0.66040  0.21390  0.24420  Biso   1.000  O
  O14      1.0000 0.33960  0.71390  0.25580  Biso   1.000  O
  O15      1.0000 0.33960  0.78610  0.75580  Biso   1.000  O
  O16      1.0000 0.66040  0.28610  0.74420  Biso   1.000  O
  N1       1.0000 0.69250  0.90510  0.06400  Biso   1.000  N
  N2       1.0000 0.30750  0.40510  0.43600  Biso   1.000  N
  N3       1.0000 0.30750  0.09490  0.93600  Biso   1.000  N
  N4       1.0000 0.69250  0.59490  0.56400  Biso   1.000  N
  N5       1.0000 0.54750  0.92140  0.91350  Biso   1.000  N
  N6       1.0000 0.45250  0.42140  0.58650  Biso   1.000  N
  N7       1.0000 0.45250  0.07860  0.08650  Biso   1.000  N
  N8       1.0000 0.54750  0.57860  0.41350  Biso   1.000  N
  N9       1.0000 0.85580  0.68780  0.33640  Biso   1.000  N
  N10      1.0000 0.14420  0.18780  0.16360  Biso   1.000  N
  N11      1.0000 0.14420  0.31220  0.66360  Biso   1.000  N
  N12      1.0000 0.85580  0.81220  0.83640  Biso   1.000  N
  C1       1.0000 0.60260  0.79510  0.99390  Biso   1.000  C
  C2       1.0000 0.39740  0.29510  0.50610  Biso   1.000  C
  C3       1.0000 0.39740  0.20490  0.00610  Biso   1.000  C
  C4       1.0000 0.60260  0.70490  0.49390  Biso   1.000  C
  C5       1.0000 0.60500  0.12520  0.93220  Biso   1.000  C
  C6       1.0000 0.39500  0.62520  0.56780  Biso   1.000  C
  C7       1.0000 0.39500  0.87480  0.06780  Biso   1.000  C
  C8       1.0000 0.60500  0.37480  0.43220  Biso   1.000  C
  C9       1.0000 0.69440  0.11460  0.02530  Biso   1.000  C
  C10      1.0000 0.30560  0.61460  0.47470  Biso   1.000  C
  C11      1.0000 0.30560  0.88540  0.97470  Biso   1.000  C
  C12      1.0000 0.69440  0.38540  0.52530  Biso   1.000  C
  C13      1.0000 0.98420  0.75240  0.38210  Biso   1.000  C
  C14      1.0000 0.01580  0.25240  0.11790  Biso   1.000  C
  C15      1.0000 0.01580  0.24760  0.61790  Biso   1.000  C
  C16      1.0000 0.98420  0.74760  0.88210  Biso   1.000  C
  C17      1.0000 0.00490  0.94760  0.32570  Biso   1.000  C
  C18      1.0000 0.99510  0.44760  0.17430  Biso   1.000  C
  C19      1.0000 0.99510  0.05240  0.67430  Biso   1.000  C
  C20      1.0000 0.00490  0.55240  0.82570  Biso   1.000  C
  C21      1.0000 0.83270  0.44380  0.33120  Biso   1.000  C
  C22      1.0000 0.16730  0.94380  0.16880  Biso   1.000  C
  C23      1.0000 0.16730  0.55620  0.66880  Biso   1.000  C
  C24      1.0000 0.83270  0.05620  0.83120  Biso   1.000  C
  C25      1.0000 0.70990  0.39400  0.24430  Biso   1.000  C
  C26      1.0000 0.29010  0.89400  0.25570  Biso   1.000  C
  C27      1.0000 0.29010  0.60600  0.75570  Biso   1.000  C
  C28      1.0000 0.70990  0.10600  0.74430  Biso   1.000  C
  C29      1.0000 0.79150  0.80320  0.38540  Biso   1.000  C
  C30      1.0000 0.20850  0.30320  0.11460  Biso   1.000  C
  C31      1.0000 0.20850  0.19680  0.61460  Biso   1.000  C
  C32      1.0000 0.79150  0.69680  0.88540  Biso   1.000  C
