data_image0
_cell_length_a       5.826
_cell_length_b       10.189
_cell_length_c       10.914
_cell_angle_alpha    89.499
_cell_angle_beta     85.254
_cell_angle_gamma    78.892

_symmetry_space_group_name_H-M    "P 1"
_symmetry_int_tables_number       1

loop_
  _symmetry_equiv_pos_as_xyz
  'x, y, z'

loop_
  _atom_site_label
  _atom_site_occupancy
  _atom_site_fract_x
  _atom_site_fract_y
  _atom_site_fract_z
  _atom_site_thermal_displace_type
  _atom_site_B_iso_or_equiv
  _atom_site_type_symbol
  Cu1      1.0000 0.02771  0.24002  0.92067  Biso   1.000  Cu
  Cu2      1.0000 0.97229  0.75998  0.07933  Biso   1.000  Cu
  V1       1.0000 0.26614  0.40393  0.11921  Biso   1.000  V
  V2       1.0000 0.73386  0.59607  0.88079  Biso   1.000  V
  V3       1.0000 0.81459  0.27177  0.20427  Biso   1.000  V
  V4       1.0000 0.18541  0.72823  0.79573  Biso   1.000  V
  O1       1.0000 0.27670  0.29990  0.00000  Biso   1.000  O
  O2       1.0000 0.72330  0.70010  0.00000  Biso   1.000  O
  O3       1.0000 0.89740  0.17920  0.07570  Biso   1.000  O
  O4       1.0000 0.10260  0.82080  0.92430  Biso   1.000  O
  O5       1.0000 0.02610  0.37420  0.22320  Biso   1.000  O
  O6       1.0000 0.97390  0.62580  0.77680  Biso   1.000  O
  N1       1.0000 0.84860  0.13730  0.82340  Biso   1.000  N
  N2       1.0000 0.15140  0.86270  0.17660  Biso   1.000  N
  O7       1.0000 0.52670  0.37170  0.19800  Biso   1.000  O
  O8       1.0000 0.47330  0.62830  0.80200  Biso   1.000  O
  N3       1.0000 0.16050  0.27750  0.75340  Biso   1.000  N
  N4       1.0000 0.83950  0.72250  0.24660  Biso   1.000  N
  O9       1.0000 0.78390  0.44060  0.92480  Biso   1.000  O
  O10      1.0000 0.21610  0.55940  0.07520  Biso   1.000  O
  O11      1.0000 0.80690  0.17160  0.31970  Biso   1.000  O
  O12      1.0000 0.19310  0.82840  0.68030  Biso   1.000  O
  C1       1.0000 0.05570  0.23220  0.65990  Biso   1.000  C
  C2       1.0000 0.94430  0.76780  0.34010  Biso   1.000  C
  C3       1.0000 0.32280  0.35210  0.72830  Biso   1.000  C
  C4       1.0000 0.67720  0.64790  0.27170  Biso   1.000  C
  C5       1.0000 0.60750  0.00920  0.67110  Biso   1.000  C
  C6       1.0000 0.39250  0.99080  0.32890  Biso   1.000  C
  H1       1.0000 0.52410  0.96660  0.62010  Biso   1.000  H
  H2       1.0000 0.47590  0.03340  0.37990  Biso   1.000  H
  C7       1.0000 0.11440  0.26140  0.53970  Biso   1.000  C
  C8       1.0000 0.88560  0.73860  0.46030  Biso   1.000  C
  H3       1.0000 0.03980  0.23110  0.47660  Biso   1.000  H
  H4       1.0000 0.96020  0.76890  0.52340  Biso   1.000  H
  C9       1.0000 0.57470  0.99720  0.79680  Biso   1.000  C
  C10      1.0000 0.42530  0.00280  0.20320  Biso   1.000  C
  H5       1.0000 0.47160  0.94510  0.83110  Biso   1.000  H
  H6       1.0000 0.52840  0.05490  0.16890  Biso   1.000  H
  C11      1.0000 0.88310  0.14830  0.70050  Biso   1.000  C
  C12      1.0000 0.11690  0.85170  0.29950  Biso   1.000  C
  C13      1.0000 0.69560  0.06290  0.87100  Biso   1.000  C
  C14      1.0000 0.30440  0.93710  0.12900  Biso   1.000  C
  H7       1.0000 0.67140  0.05590  0.95590  Biso   1.000  H
  H8       1.0000 0.32860  0.94410  0.04410  Biso   1.000  H
  C15      1.0000 0.76540  0.08510  0.62060  Biso   1.000  C
  C16      1.0000 0.23460  0.91490  0.37940  Biso   1.000  C
  H9       1.0000 0.79140  0.09320  0.53590  Biso   1.000  H
  H10      1.0000 0.20860  0.90680  0.46410  Biso   1.000  H
  C17      1.0000 0.28800  0.33740  0.51380  Biso   1.000  C
  C18      1.0000 0.71200  0.66260  0.48620  Biso   1.000  C
  H11      1.0000 0.33200  0.35720  0.43290  Biso   1.000  H
  H12      1.0000 0.66800  0.64280  0.56710  Biso   1.000  H
  C19      1.0000 0.39230  0.38230  0.60860  Biso   1.000  C
  C20      1.0000 0.60770  0.61770  0.39140  Biso   1.000  C
  H13      1.0000 0.50870  0.43270  0.59290  Biso   1.000  H
  H14      1.0000 0.49130  0.56730  0.40710  Biso   1.000  H
  H15      1.0000 0.39300  0.38000  0.79500  Biso   1.000  H
  H16      1.0000 0.60700  0.62000  0.20500  Biso   1.000  H
