data_image0
_cell_length_a       7.432
_cell_length_b       17.357
_cell_length_c       7.618
_cell_angle_alpha    90
_cell_angle_beta     116.592
_cell_angle_gamma    90

_symmetry_space_group_name_H-M    "P 1"
_symmetry_int_tables_number       1

loop_
  _symmetry_equiv_pos_as_xyz
  'x, y, z'

loop_
  _atom_site_label
  _atom_site_occupancy
  _atom_site_fract_x
  _atom_site_fract_y
  _atom_site_fract_z
  _atom_site_thermal_displace_type
  _atom_site_B_iso_or_equiv
  _atom_site_type_symbol
  Cu1      1.0000 0.00000  0.00000  0.00000  Biso   1.000  Cu
  Cu2      1.0000 0.50000  0.50000  0.50000  Biso   1.000  Cu
  S1       1.0000 0.34053  0.39767  0.05441  Biso   1.000  S
  S2       1.0000 0.15947  0.89767  0.44559  Biso   1.000  S
  S3       1.0000 0.65947  0.60233  0.94559  Biso   1.000  S
  S4       1.0000 0.84053  0.10233  0.55441  Biso   1.000  S
  O1       1.0000 0.15770  0.44196  0.00830  Biso   1.000  O
  O2       1.0000 0.34230  0.94196  0.49170  Biso   1.000  O
  O3       1.0000 0.84230  0.55804  0.99170  Biso   1.000  O
  O4       1.0000 0.65770  0.05804  0.50830  Biso   1.000  O
  O5       1.0000 0.50690  0.42295  0.23930  Biso   1.000  O
  O6       1.0000 0.99310  0.92295  0.26070  Biso   1.000  O
  O7       1.0000 0.49310  0.57705  0.76070  Biso   1.000  O
  O8       1.0000 0.00690  0.07705  0.73930  Biso   1.000  O
  O9       1.0000 0.39800  0.39713  0.89450  Biso   1.000  O
  O10      1.0000 0.10200  0.89713  0.60550  Biso   1.000  O
  O11      1.0000 0.60200  0.60287  0.10550  Biso   1.000  O
  O12      1.0000 0.89800  0.10287  0.39450  Biso   1.000  O
  O13      1.0000 0.23010  0.94388  0.99120  Biso   1.000  O
  O14      1.0000 0.26990  0.44388  0.50880  Biso   1.000  O
  O15      1.0000 0.76990  0.05612  0.00880  Biso   1.000  O
  O16      1.0000 0.73010  0.55612  0.49120  Biso   1.000  O
  H1       1.0000 0.35090  0.94180  0.07830  Biso   1.000  H
  H2       1.0000 0.14910  0.44180  0.42170  Biso   1.000  H
  H3       1.0000 0.64910  0.05820  0.92170  Biso   1.000  H
  H4       1.0000 0.85090  0.55820  0.57830  Biso   1.000  H
  H5       1.0000 0.21900  0.93120  0.87480  Biso   1.000  H
  H6       1.0000 0.28100  0.43120  0.62520  Biso   1.000  H
  H7       1.0000 0.78100  0.06880  0.12520  Biso   1.000  H
  H8       1.0000 0.71900  0.56880  0.37480  Biso   1.000  H
  O17      1.0000 0.89080  0.43281  0.24090  Biso   1.000  O
  O18      1.0000 0.60920  0.93281  0.25910  Biso   1.000  O
  O19      1.0000 0.10920  0.56719  0.75910  Biso   1.000  O
  O20      1.0000 0.39080  0.06719  0.74090  Biso   1.000  O
  H9       1.0000 0.88220  0.46850  0.15390  Biso   1.000  H
  H10      1.0000 0.61780  0.96850  0.34610  Biso   1.000  H
  H11      1.0000 0.11780  0.53150  0.84610  Biso   1.000  H
  H12      1.0000 0.38220  0.03150  0.65390  Biso   1.000  H
  H13      1.0000 0.77730  0.42550  0.24670  Biso   1.000  H
  H14      1.0000 0.72270  0.92550  0.25330  Biso   1.000  H
  H15      1.0000 0.22270  0.57450  0.75330  Biso   1.000  H
  H16      1.0000 0.27730  0.07450  0.74670  Biso   1.000  H
  N1       1.0000 0.81410  0.92606  0.78560  Biso   1.000  N
  N2       1.0000 0.68590  0.42606  0.71440  Biso   1.000  N
  N3       1.0000 0.18590  0.07394  0.21440  Biso   1.000  N
  N4       1.0000 0.31410  0.57394  0.28560  Biso   1.000  N
  H17      1.0000 0.86300  0.92390  0.69650  Biso   1.000  H
  H18      1.0000 0.63700  0.42390  0.80350  Biso   1.000  H
  H19      1.0000 0.13700  0.07610  0.30350  Biso   1.000  H
  H20      1.0000 0.36300  0.57610  0.19650  Biso   1.000  H
  H21      1.0000 0.69010  0.95030  0.72610  Biso   1.000  H
  H22      1.0000 0.80990  0.45030  0.77390  Biso   1.000  H
  H23      1.0000 0.30990  0.04970  0.27390  Biso   1.000  H
  H24      1.0000 0.19010  0.54970  0.22610  Biso   1.000  H
  C1       1.0000 0.28780  0.30119  0.08870  Biso   1.000  C
  C2       1.0000 0.21220  0.80119  0.41130  Biso   1.000  C
  C3       1.0000 0.71220  0.69881  0.91130  Biso   1.000  C
  C4       1.0000 0.78780  0.19881  0.58870  Biso   1.000  C
  C5       1.0000 0.41010  0.24232  0.08200  Biso   1.000  C
  C6       1.0000 0.08990  0.74232  0.41800  Biso   1.000  C
  C7       1.0000 0.58990  0.75768  0.91800  Biso   1.000  C
  C8       1.0000 0.91010  0.25768  0.58200  Biso   1.000  C
  H25      1.0000 0.51590  0.25310  0.05220  Biso   1.000  H
  H26      1.0000 0.98410  0.75310  0.44780  Biso   1.000  H
  H27      1.0000 0.48410  0.74690  0.94780  Biso   1.000  H
  H28      1.0000 0.01590  0.24690  0.55220  Biso   1.000  H
  C9       1.0000 0.37410  0.16685  0.12020  Biso   1.000  C
  C10      1.0000 0.12590  0.66685  0.37980  Biso   1.000  C
  C11      1.0000 0.62590  0.83315  0.87980  Biso   1.000  C
  C12      1.0000 0.87410  0.33315  0.62020  Biso   1.000  C
  H29      1.0000 0.45540  0.12700  0.11550  Biso   1.000  H
  H30      1.0000 0.04460  0.62700  0.38450  Biso   1.000  H
  H31      1.0000 0.54460  0.87300  0.88450  Biso   1.000  H
  H32      1.0000 0.95540  0.37300  0.61550  Biso   1.000  H
  C13      1.0000 0.78340  0.84844  0.83500  Biso   1.000  C
  C14      1.0000 0.71660  0.34844  0.66500  Biso   1.000  C
  C15      1.0000 0.21660  0.15156  0.16500  Biso   1.000  C
  C16      1.0000 0.28340  0.65156  0.33500  Biso   1.000  C
  C17      1.0000 0.90920  0.78985  0.83250  Biso   1.000  C
  C18      1.0000 0.59080  0.28985  0.66750  Biso   1.000  C
  C19      1.0000 0.09080  0.21015  0.16750  Biso   1.000  C
  C20      1.0000 0.40920  0.71015  0.33250  Biso   1.000  C
  H33      1.0000 0.01640  0.80090  0.80510  Biso   1.000  H
  H34      1.0000 0.48360  0.30090  0.69490  Biso   1.000  H
  H35      1.0000 0.98360  0.19910  0.19490  Biso   1.000  H
  H36      1.0000 0.51640  0.69910  0.30510  Biso   1.000  H
  C21      1.0000 0.12570  0.28584  0.12860  Biso   1.000  C
  C22      1.0000 0.37430  0.78584  0.37140  Biso   1.000  C
  C23      1.0000 0.87430  0.71416  0.87140  Biso   1.000  C
  C24      1.0000 0.62570  0.21416  0.62860  Biso   1.000  C
  H37      1.0000 0.04190  0.32550  0.12940  Biso   1.000  H
  H38      1.0000 0.45810  0.82550  0.37060  Biso   1.000  H
  H39      1.0000 0.95810  0.67450  0.87060  Biso   1.000  H
  H40      1.0000 0.54190  0.17450  0.62940  Biso   1.000  H
