data_image0
_cell_length_a       9.83359
_cell_length_b       16.122
_cell_length_c       5.35783
_cell_angle_alpha    90
_cell_angle_beta     90
_cell_angle_gamma    90

_symmetry_space_group_name_H-M    "P 1"
_symmetry_int_tables_number       1

loop_
  _symmetry_equiv_pos_as_xyz
  'x, y, z'

loop_
  _atom_site_label
  _atom_site_occupancy
  _atom_site_fract_x
  _atom_site_fract_y
  _atom_site_fract_z
  _atom_site_thermal_displace_type
  _atom_site_B_iso_or_equiv
  _atom_site_type_symbol
  Cu1      1.0000 0.24160  0.07587  0.28760  Biso   1.000  Cu
  Cu2      1.0000 0.74160  0.42413  0.71240  Biso   1.000  Cu
  Cu3      1.0000 0.75840  0.57587  0.21240  Biso   1.000  Cu
  Cu4      1.0000 0.25840  0.92413  0.78760  Biso   1.000  Cu
  O1       1.0000 0.35070  0.99172  0.06510  Biso   1.000  O
  O2       1.0000 0.85070  0.50828  0.93490  Biso   1.000  O
  O3       1.0000 0.64930  0.49172  0.43490  Biso   1.000  O
  O4       1.0000 0.14930  0.00828  0.56510  Biso   1.000  O
  O5       1.0000 0.43460  0.07057  0.45490  Biso   1.000  O
  O6       1.0000 0.93460  0.42943  0.54510  Biso   1.000  O
  O7       1.0000 0.56540  0.57057  0.04510  Biso   1.000  O
  O8       1.0000 0.06540  0.92943  0.95490  Biso   1.000  O
  C1       1.0000 0.25060  0.17580  0.04480  Biso   1.000  C
  C2       1.0000 0.75060  0.32420  0.95520  Biso   1.000  C
  C3       1.0000 0.74940  0.67580  0.45520  Biso   1.000  C
  C4       1.0000 0.24940  0.82420  0.54480  Biso   1.000  C
  C5       1.0000 0.12650  0.17100  0.18860  Biso   1.000  C
  C6       1.0000 0.62650  0.32900  0.81140  Biso   1.000  C
  C7       1.0000 0.87350  0.67100  0.31140  Biso   1.000  C
  C8       1.0000 0.37350  0.82900  0.68860  Biso   1.000  C
  C9       1.0000 0.47250  0.97575  0.12100  Biso   1.000  C
  C10      1.0000 0.97250  0.52425  0.87900  Biso   1.000  C
  C11      1.0000 0.52750  0.47575  0.37900  Biso   1.000  C
  C12      1.0000 0.02750  0.02425  0.62100  Biso   1.000  C
  C13      1.0000 0.52370  0.02418  0.36020  Biso   1.000  C
  C14      1.0000 0.02370  0.47582  0.63980  Biso   1.000  C
  C15      1.0000 0.47630  0.52418  0.13980  Biso   1.000  C
  C16      1.0000 0.97630  0.97582  0.86020  Biso   1.000  C
  O9       1.0000 0.56160  0.92934  0.02600  Biso   1.000  O
  O10      1.0000 0.06160  0.57066  0.97400  Biso   1.000  O
  O11      1.0000 0.43840  0.42934  0.47400  Biso   1.000  O
  O12      1.0000 0.93840  0.07066  0.52600  Biso   1.000  O
  O13      1.0000 0.64530  0.00855  0.41710  Biso   1.000  O
  O14      1.0000 0.14530  0.49145  0.58290  Biso   1.000  O
  O15      1.0000 0.35470  0.50855  0.08290  Biso   1.000  O
  O16      1.0000 0.85470  0.99145  0.91710  Biso   1.000  O
  Cu5      1.0000 0.75430  0.92446  0.19440  Biso   1.000  Cu
  Cu6      1.0000 0.25430  0.57554  0.80560  Biso   1.000  Cu
  Cu7      1.0000 0.24570  0.42446  0.30560  Biso   1.000  Cu
  Cu8      1.0000 0.74570  0.07554  0.69440  Biso   1.000  Cu
  C17      1.0000 0.77250  0.82580  0.45150  Biso   1.000  C
  C18      1.0000 0.27250  0.67420  0.54850  Biso   1.000  C
  C19      1.0000 0.22750  0.32580  0.04850  Biso   1.000  C
  C20      1.0000 0.72750  0.17420  0.95150  Biso   1.000  C
  C21      1.0000 0.89600  0.81480  0.30970  Biso   1.000  C
  C22      1.0000 0.39600  0.68520  0.69030  Biso   1.000  C
  C23      1.0000 0.10400  0.31480  0.19030  Biso   1.000  C
  C24      1.0000 0.60400  0.18520  0.80970  Biso   1.000  C
  C25      1.0000 0.67580  0.75540  0.36500  Biso   1.000  C
  C26      1.0000 0.17580  0.74460  0.63500  Biso   1.000  C
  C27      1.0000 0.32420  0.25540  0.13500  Biso   1.000  C
  C28      1.0000 0.82420  0.24460  0.86500  Biso   1.000  C
  H1       1.0000 0.75850  0.85910  0.62370  Biso   1.000  H
  H2       1.0000 0.25850  0.64090  0.37630  Biso   1.000  H
  H3       1.0000 0.24150  0.35910  0.87630  Biso   1.000  H
  H4       1.0000 0.74150  0.14090  0.12370  Biso   1.000  H
  C29      1.0000 0.86870  0.74370  0.12230  Biso   1.000  C
  C30      1.0000 0.36870  0.75630  0.87770  Biso   1.000  C
  C31      1.0000 0.13130  0.24370  0.37770  Biso   1.000  C
  C32      1.0000 0.63130  0.25630  0.62230  Biso   1.000  C
  H5       1.0000 0.99570  0.83990  0.34340  Biso   1.000  H
  H6       1.0000 0.49570  0.66010  0.65660  Biso   1.000  H
  H7       1.0000 0.00430  0.33990  0.15660  Biso   1.000  H
  H8       1.0000 0.50430  0.16010  0.84340  Biso   1.000  H
  H9       1.0000 0.56900  0.76180  0.41250  Biso   1.000  H
  H10      1.0000 0.06900  0.73820  0.58750  Biso   1.000  H
  H11      1.0000 0.43100  0.26180  0.08750  Biso   1.000  H
  H12      1.0000 0.93100  0.23820  0.91250  Biso   1.000  H
  C33      1.0000 0.71210  0.75260  0.07900  Biso   1.000  C
  C34      1.0000 0.21210  0.74740  0.92100  Biso   1.000  C
  C35      1.0000 0.28790  0.25260  0.42100  Biso   1.000  C
  C36      1.0000 0.78790  0.24740  0.57900  Biso   1.000  C
  H13      1.0000 0.93380  0.73960  0.95950  Biso   1.000  H
  H14      1.0000 0.43380  0.76040  0.04050  Biso   1.000  H
  H15      1.0000 0.06620  0.23960  0.54050  Biso   1.000  H
  H16      1.0000 0.56620  0.26040  0.45950  Biso   1.000  H
  H17      1.0000 0.72350  0.64350  0.62430  Biso   1.000  H
  H18      1.0000 0.22350  0.85650  0.37570  Biso   1.000  H
  H19      1.0000 0.27650  0.14350  0.87570  Biso   1.000  H
  H20      1.0000 0.77650  0.35650  0.12430  Biso   1.000  H
  H21      1.0000 0.68380  0.80950  0.98360  Biso   1.000  H
  H22      1.0000 0.18380  0.69050  0.01640  Biso   1.000  H
  H23      1.0000 0.31620  0.30950  0.51640  Biso   1.000  H
  H24      1.0000 0.81620  0.19050  0.48360  Biso   1.000  H
  H25      1.0000 0.66680  0.69930  0.98670  Biso   1.000  H
  H26      1.0000 0.16680  0.80070  0.01330  Biso   1.000  H
  H27      1.0000 0.33320  0.19930  0.51330  Biso   1.000  H
  H28      1.0000 0.83320  0.30070  0.48670  Biso   1.000  H
  H29      1.0000 0.96750  0.64100  0.36150  Biso   1.000  H
  H30      1.0000 0.46750  0.85900  0.63850  Biso   1.000  H
  H31      1.0000 0.03250  0.14100  0.13850  Biso   1.000  H
  H32      1.0000 0.53250  0.35900  0.86150  Biso   1.000  H
