data_image0
_cell_length_a       11.196
_cell_length_b       15.5253
_cell_length_c       11.311
_cell_angle_alpha    90
_cell_angle_beta     108.132
_cell_angle_gamma    90

_symmetry_space_group_name_H-M    "P 1"
_symmetry_int_tables_number       1

loop_
  _symmetry_equiv_pos_as_xyz
  'x, y, z'

loop_
  _atom_site_label
  _atom_site_occupancy
  _atom_site_fract_x
  _atom_site_fract_y
  _atom_site_fract_z
  _atom_site_thermal_displace_type
  _atom_site_B_iso_or_equiv
  _atom_site_type_symbol
  I1       1.0000 0.47562  0.83603  0.35654  Biso   1.000  I
  I2       1.0000 0.47562  0.66397  0.85654  Biso   1.000  I
  I3       1.0000 0.52438  0.16397  0.64346  Biso   1.000  I
  I4       1.0000 0.52438  0.33603  0.14346  Biso   1.000  I
  I5       1.0000 0.25417  0.87248  0.97562  Biso   1.000  I
  I6       1.0000 0.25417  0.62752  0.47562  Biso   1.000  I
  I7       1.0000 0.74583  0.12752  0.02438  Biso   1.000  I
  I8       1.0000 0.74583  0.37248  0.52438  Biso   1.000  I
  I9       1.0000 0.06198  0.83553  0.23656  Biso   1.000  I
  I10      1.0000 0.06198  0.66447  0.73656  Biso   1.000  I
  I11      1.0000 0.93802  0.16447  0.76344  Biso   1.000  I
  I12      1.0000 0.93802  0.33553  0.26344  Biso   1.000  I
  I13      1.0000 0.27820  0.61371  0.12019  Biso   1.000  I
  I14      1.0000 0.27820  0.88629  0.62019  Biso   1.000  I
  I15      1.0000 0.72180  0.38629  0.87981  Biso   1.000  I
  I16      1.0000 0.72180  0.11371  0.37981  Biso   1.000  I
  Cu1      1.0000 0.25778  0.78826  0.17456  Biso   1.000  Cu
  Cu2      1.0000 0.25778  0.71174  0.67456  Biso   1.000  Cu
  Cu3      1.0000 0.74222  0.21174  0.82544  Biso   1.000  Cu
  Cu4      1.0000 0.74222  0.28826  0.32544  Biso   1.000  Cu
  Cu5      1.0000 0.26214  0.79453  0.42039  Biso   1.000  Cu
  Cu6      1.0000 0.26214  0.70547  0.92039  Biso   1.000  Cu
  Cu7      1.0000 0.73786  0.20547  0.57961  Biso   1.000  Cu
  Cu8      1.0000 0.73786  0.29453  0.07961  Biso   1.000  Cu
  Cu9      1.0000 0.39886  0.67731  0.34085  Biso   1.000  Cu
  Cu10     1.0000 0.39886  0.82269  0.84085  Biso   1.000  Cu
  Cu11     1.0000 0.60114  0.32269  0.65915  Biso   1.000  Cu
  Cu12     1.0000 0.60114  0.17731  0.15915  Biso   1.000  Cu
  S1       1.0000 0.57062  0.58587  0.43258  Biso   1.000  S
  S2       1.0000 0.57062  0.91413  0.93258  Biso   1.000  S
  S3       1.0000 0.42938  0.41413  0.56742  Biso   1.000  S
  S4       1.0000 0.42938  0.08587  0.06742  Biso   1.000  S
  N1       1.0000 0.84720  0.58730  0.21700  Biso   1.000  N
  N2       1.0000 0.84720  0.91270  0.71700  Biso   1.000  N
  N3       1.0000 0.15280  0.41270  0.78300  Biso   1.000  N
  N4       1.0000 0.15280  0.08730  0.28300  Biso   1.000  N
  C1       1.0000 0.68230  0.59140  0.35390  Biso   1.000  C
  C2       1.0000 0.68230  0.90860  0.85390  Biso   1.000  C
  C3       1.0000 0.31770  0.40860  0.64610  Biso   1.000  C
  C4       1.0000 0.31770  0.09140  0.14610  Biso   1.000  C
  C5       1.0000 0.64490  0.56280  0.23240  Biso   1.000  C
  C6       1.0000 0.64490  0.93720  0.73240  Biso   1.000  C
  C7       1.0000 0.35510  0.43720  0.76760  Biso   1.000  C
  C8       1.0000 0.35510  0.06280  0.26760  Biso   1.000  C
  H1       1.0000 0.56180  0.54630  0.19490  Biso   1.000  H
  H2       1.0000 0.56180  0.95370  0.69490  Biso   1.000  H
  H3       1.0000 0.43820  0.45370  0.80510  Biso   1.000  H
  H4       1.0000 0.43820  0.04630  0.30510  Biso   1.000  H
  C9       1.0000 0.80590  0.61950  0.40220  Biso   1.000  C
  C10      1.0000 0.80590  0.88050  0.90220  Biso   1.000  C
  C11      1.0000 0.19410  0.38050  0.59780  Biso   1.000  C
  C12      1.0000 0.19410  0.11950  0.09780  Biso   1.000  C
  H5       1.0000 0.83480  0.64080  0.48300  Biso   1.000  H
  H6       1.0000 0.83480  0.85920  0.98300  Biso   1.000  H
  H7       1.0000 0.16520  0.35920  0.51700  Biso   1.000  H
  H8       1.0000 0.16520  0.14080  0.01700  Biso   1.000  H
  C13      1.0000 0.93640  0.58130  0.14450  Biso   1.000  C
  C14      1.0000 0.93640  0.91870  0.64450  Biso   1.000  C
  C15      1.0000 0.06360  0.41870  0.85550  Biso   1.000  C
  C16      1.0000 0.06360  0.08130  0.35550  Biso   1.000  C
  H9       1.0000 0.01600  0.60620  0.19310  Biso   1.000  H
  H10      1.0000 0.01600  0.89380  0.69310  Biso   1.000  H
  H11      1.0000 0.98400  0.39380  0.80690  Biso   1.000  H
  H12      1.0000 0.98400  0.10620  0.30690  Biso   1.000  H
  H13      1.0000 0.95090  0.52100  0.13120  Biso   1.000  H
  H14      1.0000 0.95090  0.97900  0.63120  Biso   1.000  H
  H15      1.0000 0.04910  0.47900  0.86880  Biso   1.000  H
  H16      1.0000 0.04910  0.02100  0.36880  Biso   1.000  H
  C17      1.0000 0.72780  0.55840  0.16700  Biso   1.000  C
  C18      1.0000 0.72780  0.94160  0.66700  Biso   1.000  C
  C19      1.0000 0.27220  0.44160  0.83300  Biso   1.000  C
  C20      1.0000 0.27220  0.05840  0.33300  Biso   1.000  C
  H17      1.0000 0.70240  0.53530  0.08720  Biso   1.000  H
  H18      1.0000 0.70240  0.96470  0.58720  Biso   1.000  H
  H19      1.0000 0.29760  0.46470  0.91280  Biso   1.000  H
  H20      1.0000 0.29760  0.03530  0.41280  Biso   1.000  H
  C21      1.0000 0.89390  0.62480  0.02310  Biso   1.000  C
  C22      1.0000 0.89390  0.87520  0.52310  Biso   1.000  C
  C23      1.0000 0.10610  0.37520  0.97690  Biso   1.000  C
  C24      1.0000 0.10610  0.12480  0.47690  Biso   1.000  C
  H21      1.0000 0.95660  0.61860  0.98200  Biso   1.000  H
  H22      1.0000 0.95660  0.88140  0.48200  Biso   1.000  H
  H23      1.0000 0.04340  0.38140  0.01800  Biso   1.000  H
  H24      1.0000 0.04340  0.11860  0.51800  Biso   1.000  H
  H25      1.0000 0.88070  0.68480  0.03510  Biso   1.000  H
  H26      1.0000 0.88070  0.81520  0.53510  Biso   1.000  H
  H27      1.0000 0.11930  0.31520  0.96490  Biso   1.000  H
  H28      1.0000 0.11930  0.18480  0.46490  Biso   1.000  H
  H29      1.0000 0.81660  0.59930  0.97300  Biso   1.000  H
  H30      1.0000 0.81660  0.90070  0.47300  Biso   1.000  H
  H31      1.0000 0.18340  0.40070  0.02700  Biso   1.000  H
  H32      1.0000 0.18340  0.09930  0.52700  Biso   1.000  H
  C25      1.0000 0.67700  0.60160  0.62000  Biso   1.000  C
  C26      1.0000 0.67700  0.89840  0.12000  Biso   1.000  C
  C27      1.0000 0.32300  0.39840  0.38000  Biso   1.000  C
  C28      1.0000 0.32300  0.10160  0.88000  Biso   1.000  C
  H33      1.0000 0.63880  0.57510  0.67680  Biso   1.000  H
  H34      1.0000 0.63880  0.92490  0.17680  Biso   1.000  H
  H35      1.0000 0.36120  0.42490  0.32320  Biso   1.000  H
  H36      1.0000 0.36120  0.07510  0.82320  Biso   1.000  H
  H37      1.0000 0.76350  0.58320  0.63780  Biso   1.000  H
  H38      1.0000 0.76350  0.91680  0.13780  Biso   1.000  H
  H39      1.0000 0.23650  0.41680  0.36220  Biso   1.000  H
  H40      1.0000 0.23650  0.08320  0.86220  Biso   1.000  H
  C29      1.0000 0.88340  0.61620  0.33300  Biso   1.000  C
  C30      1.0000 0.88340  0.88380  0.83300  Biso   1.000  C
  C31      1.0000 0.11660  0.38380  0.66700  Biso   1.000  C
  C32      1.0000 0.11660  0.11620  0.16700  Biso   1.000  C
  H41      1.0000 0.96580  0.63490  0.36760  Biso   1.000  H
  H42      1.0000 0.96580  0.86510  0.86760  Biso   1.000  H
  H43      1.0000 0.03420  0.36510  0.63240  Biso   1.000  H
  H44      1.0000 0.03420  0.13490  0.13240  Biso   1.000  H
  C33      1.0000 0.66420  0.67850  0.61300  Biso   1.000  C
  C34      1.0000 0.66420  0.82150  0.11300  Biso   1.000  C
  C35      1.0000 0.33580  0.32150  0.38700  Biso   1.000  C
  C36      1.0000 0.33580  0.17850  0.88700  Biso   1.000  C
  H45      1.0000 0.70560  0.70370  0.69280  Biso   1.000  H
  H46      1.0000 0.70560  0.79630  0.19280  Biso   1.000  H
  H47      1.0000 0.29440  0.29630  0.30720  Biso   1.000  H
  H48      1.0000 0.29440  0.20370  0.80720  Biso   1.000  H
  H49      1.0000 0.57630  0.69250  0.58830  Biso   1.000  H
  H50      1.0000 0.57630  0.80750  0.08830  Biso   1.000  H
  H51      1.0000 0.42370  0.30750  0.41170  Biso   1.000  H
  H52      1.0000 0.42370  0.19250  0.91170  Biso   1.000  H
  H53      1.0000 0.70050  0.70070  0.55270  Biso   1.000  H
  H54      1.0000 0.70050  0.79930  0.05270  Biso   1.000  H
  H55      1.0000 0.29950  0.29930  0.44730  Biso   1.000  H
  H56      1.0000 0.29950  0.20070  0.94730  Biso   1.000  H
