data_image0
_cell_length_a       13.555
_cell_length_b       13.3555
_cell_length_c       10.76
_cell_angle_alpha    90
_cell_angle_beta     90
_cell_angle_gamma    90

_symmetry_space_group_name_H-M    "P 1"
_symmetry_int_tables_number       1

loop_
  _symmetry_equiv_pos_as_xyz
  'x, y, z'

loop_
  _atom_site_label
  _atom_site_occupancy
  _atom_site_fract_x
  _atom_site_fract_y
  _atom_site_fract_z
  _atom_site_thermal_displace_type
  _atom_site_B_iso_or_equiv
  _atom_site_type_symbol
  Cu1      1.0000 0.13662  0.59689  0.26418  Biso   1.000  Cu
  Cu2      1.0000 0.86338  0.40311  0.26418  Biso   1.000  Cu
  Cu3      1.0000 0.63662  0.90311  0.73582  Biso   1.000  Cu
  Cu4      1.0000 0.36338  0.09689  0.73582  Biso   1.000  Cu
  C1       1.0000 0.21970  0.61750  0.39680  Biso   1.000  C
  C2       1.0000 0.78030  0.38250  0.39680  Biso   1.000  C
  C3       1.0000 0.71970  0.88250  0.60320  Biso   1.000  C
  C4       1.0000 0.28030  0.11750  0.60320  Biso   1.000  C
  C5       1.0000 0.10920  0.58220  0.09770  Biso   1.000  C
  C6       1.0000 0.89080  0.41780  0.09770  Biso   1.000  C
  C7       1.0000 0.60920  0.91780  0.90230  Biso   1.000  C
  C8       1.0000 0.39080  0.08220  0.90230  Biso   1.000  C
  N1       1.0000 0.96080  0.63720  0.36810  Biso   1.000  N
  N2       1.0000 0.03920  0.36280  0.36810  Biso   1.000  N
  N3       1.0000 0.46080  0.86280  0.63190  Biso   1.000  N
  N4       1.0000 0.53920  0.13720  0.63190  Biso   1.000  N
  N5       1.0000 0.27980  0.63520  0.46930  Biso   1.000  N
  N6       1.0000 0.72020  0.36480  0.46930  Biso   1.000  N
  N7       1.0000 0.77980  0.86480  0.53070  Biso   1.000  N
  N8       1.0000 0.22020  0.13520  0.53070  Biso   1.000  N
  N9       1.0000 0.08600  0.56360  0.99800  Biso   1.000  N
  N10      1.0000 0.91400  0.43640  0.99800  Biso   1.000  N
  N11      1.0000 0.58600  0.93640  0.00200  Biso   1.000  N
  N12      1.0000 0.41400  0.06360  0.00200  Biso   1.000  N
  Cu5      1.0000 0.39867  0.65503  0.56861  Biso   1.000  Cu
  Cu6      1.0000 0.60133  0.34497  0.56861  Biso   1.000  Cu
  Cu7      1.0000 0.89867  0.84497  0.43139  Biso   1.000  Cu
  Cu8      1.0000 0.10133  0.15503  0.43139  Biso   1.000  Cu
  Cu9      1.0000 0.00000  0.50000  0.87609  Biso   1.000  Cu
  Cu10     1.0000 0.50000  0.00000  0.12391  Biso   1.000  Cu
  C9       1.0000 0.43290  0.78310  0.62790  Biso   1.000  C
  C10      1.0000 0.56710  0.21690  0.62790  Biso   1.000  C
  C11      1.0000 0.93290  0.71690  0.37210  Biso   1.000  C
  C12      1.0000 0.06710  0.28310  0.37210  Biso   1.000  C
  N13      1.0000 0.47790  0.53830  0.57920  Biso   1.000  N
  N14      1.0000 0.52210  0.46170  0.57920  Biso   1.000  N
  N15      1.0000 0.97790  0.96170  0.42080  Biso   1.000  N
  N16      1.0000 0.02210  0.03830  0.42080  Biso   1.000  N
  C13      1.0000 0.00000  0.50000  0.70260  Biso   1.000  C
  C14      1.0000 0.50000  0.00000  0.29740  Biso   1.000  C
  N17      1.0000 0.00000  0.50000  0.59770  Biso   1.000  N
  N18      1.0000 0.50000  0.00000  0.40230  Biso   1.000  N
  Cu11     1.0000 0.50000  0.00000  0.58704  Biso   1.000  Cu
  Cu12     1.0000 0.00000  0.50000  0.41296  Biso   1.000  Cu
  N19      1.0000 0.93940  0.09010  0.83940  Biso   1.000  N
  N20      1.0000 0.06060  0.90990  0.83940  Biso   1.000  N
  N21      1.0000 0.43940  0.40990  0.16060  Biso   1.000  N
  N22      1.0000 0.56060  0.59010  0.16060  Biso   1.000  N
  N23      1.0000 0.08770  0.11950  0.98460  Biso   1.000  N
  N24      1.0000 0.91230  0.88050  0.98460  Biso   1.000  N
  N25      1.0000 0.58770  0.38050  0.01540  Biso   1.000  N
  N26      1.0000 0.41230  0.61950  0.01540  Biso   1.000  N
  N27      1.0000 0.10310  0.96100  0.12070  Biso   1.000  N
  N28      1.0000 0.89690  0.03900  0.12070  Biso   1.000  N
  N29      1.0000 0.60310  0.53900  0.87930  Biso   1.000  N
  N30      1.0000 0.39690  0.46100  0.87930  Biso   1.000  N
  Ni1      1.0000 0.00000  0.00000  0.98119  Biso   1.000  Ni
  Ni2      1.0000 0.50000  0.50000  0.01881  Biso   1.000  Ni
  C15      1.0000 0.86480  0.06750  0.76200  Biso   1.000  C
  C16      1.0000 0.13520  0.93250  0.76200  Biso   1.000  C
  C17      1.0000 0.36480  0.43250  0.23800  Biso   1.000  C
  C18      1.0000 0.63520  0.56750  0.23800  Biso   1.000  C
  H1       1.0000 0.82800  0.01000  0.77730  Biso   1.000  H
  H2       1.0000 0.17200  0.99000  0.77730  Biso   1.000  H
  H3       1.0000 0.32800  0.49000  0.22270  Biso   1.000  H
  H4       1.0000 0.67200  0.51000  0.22270  Biso   1.000  H
  C19      1.0000 0.84040  0.12620  0.66040  Biso   1.000  C
  C20      1.0000 0.15960  0.87380  0.66040  Biso   1.000  C
  C21      1.0000 0.34040  0.37380  0.33960  Biso   1.000  C
  C22      1.0000 0.65960  0.62620  0.33960  Biso   1.000  C
  H5       1.0000 0.78850  0.10830  0.60840  Biso   1.000  H
  H6       1.0000 0.21150  0.89170  0.60840  Biso   1.000  H
  H7       1.0000 0.28850  0.39170  0.39160  Biso   1.000  H
  H8       1.0000 0.71150  0.60830  0.39160  Biso   1.000  H
  C23      1.0000 0.89300  0.20910  0.63850  Biso   1.000  C
  C24      1.0000 0.10700  0.79090  0.63850  Biso   1.000  C
  C25      1.0000 0.39300  0.29090  0.36150  Biso   1.000  C
  C26      1.0000 0.60700  0.70910  0.36150  Biso   1.000  C
  H9       1.0000 0.87740  0.24910  0.57060  Biso   1.000  H
  H10      1.0000 0.12260  0.75090  0.57060  Biso   1.000  H
  H11      1.0000 0.37740  0.25090  0.42940  Biso   1.000  H
  H12      1.0000 0.62260  0.74910  0.42940  Biso   1.000  H
  C27      1.0000 0.96960  0.23580  0.71510  Biso   1.000  C
  C28      1.0000 0.03040  0.76420  0.71510  Biso   1.000  C
  C29      1.0000 0.46960  0.26420  0.28490  Biso   1.000  C
  C30      1.0000 0.53040  0.73580  0.28490  Biso   1.000  C
  H13      1.0000 0.00680  0.29300  0.69960  Biso   1.000  H
  H14      1.0000 0.99320  0.70700  0.69960  Biso   1.000  H
  H15      1.0000 0.50680  0.20700  0.30040  Biso   1.000  H
  H16      1.0000 0.49320  0.79300  0.30040  Biso   1.000  H
  C31      1.0000 0.98990  0.17490  0.81650  Biso   1.000  C
  C32      1.0000 0.01010  0.82510  0.81650  Biso   1.000  C
  C33      1.0000 0.48990  0.32510  0.18350  Biso   1.000  C
  C34      1.0000 0.51010  0.67490  0.18350  Biso   1.000  C
  C35      1.0000 0.06940  0.19540  0.90730  Biso   1.000  C
  C36      1.0000 0.93060  0.80460  0.90730  Biso   1.000  C
  C37      1.0000 0.56940  0.30460  0.09270  Biso   1.000  C
  C38      1.0000 0.43060  0.69540  0.09270  Biso   1.000  C
  C39      1.0000 0.12190  0.28360  0.91630  Biso   1.000  C
  C40      1.0000 0.87810  0.71640  0.91630  Biso   1.000  C
  C41      1.0000 0.62190  0.21640  0.08370  Biso   1.000  C
  C42      1.0000 0.37810  0.78360  0.08370  Biso   1.000  C
  H17      1.0000 0.11000  0.33620  0.86160  Biso   1.000  H
  H18      1.0000 0.89000  0.66380  0.86160  Biso   1.000  H
  H19      1.0000 0.61000  0.16380  0.13840  Biso   1.000  H
  H20      1.0000 0.39000  0.83620  0.13840  Biso   1.000  H
  C43      1.0000 0.19240  0.29230  0.00800  Biso   1.000  C
  C44      1.0000 0.80760  0.70770  0.00800  Biso   1.000  C
  C45      1.0000 0.69240  0.20770  0.99200  Biso   1.000  C
  C46      1.0000 0.30760  0.79230  0.99200  Biso   1.000  C
  H21      1.0000 0.22820  0.35130  0.01640  Biso   1.000  H
  H22      1.0000 0.77180  0.64870  0.01640  Biso   1.000  H
  H23      1.0000 0.72820  0.14870  0.98360  Biso   1.000  H
  H24      1.0000 0.27180  0.85130  0.98360  Biso   1.000  H
  C47      1.0000 0.20930  0.21320  0.08680  Biso   1.000  C
  C48      1.0000 0.79070  0.78680  0.08680  Biso   1.000  C
  C49      1.0000 0.70930  0.28680  0.91320  Biso   1.000  C
  C50      1.0000 0.29070  0.71320  0.91320  Biso   1.000  C
  H25      1.0000 0.25610  0.21880  0.14960  Biso   1.000  H
  H26      1.0000 0.74390  0.78120  0.14960  Biso   1.000  H
  H27      1.0000 0.75610  0.28120  0.85040  Biso   1.000  H
  H28      1.0000 0.24390  0.71880  0.85040  Biso   1.000  H
  C51      1.0000 0.15680  0.12590  0.07260  Biso   1.000  C
  C52      1.0000 0.84320  0.87410  0.07260  Biso   1.000  C
  C53      1.0000 0.65680  0.37410  0.92740  Biso   1.000  C
  C54      1.0000 0.34320  0.62590  0.92740  Biso   1.000  C
  C55      1.0000 0.16730  0.03380  0.14740  Biso   1.000  C
  C56      1.0000 0.83270  0.96620  0.14740  Biso   1.000  C
  C57      1.0000 0.66730  0.46620  0.85260  Biso   1.000  C
  C58      1.0000 0.33270  0.53380  0.85260  Biso   1.000  C
  C59      1.0000 0.23750  0.02220  0.23930  Biso   1.000  C
  C60      1.0000 0.76250  0.97780  0.23930  Biso   1.000  C
  C61      1.0000 0.73750  0.47780  0.76070  Biso   1.000  C
  C62      1.0000 0.26250  0.52220  0.76070  Biso   1.000  C
  H29      1.0000 0.28170  0.07360  0.25670  Biso   1.000  H
  H30      1.0000 0.71830  0.92640  0.25670  Biso   1.000  H
  H31      1.0000 0.78170  0.42640  0.74330  Biso   1.000  H
  H32      1.0000 0.21830  0.57360  0.74330  Biso   1.000  H
  C63      1.0000 0.24140  0.93470  0.30420  Biso   1.000  C
  C64      1.0000 0.75860  0.06530  0.30420  Biso   1.000  C
  C65      1.0000 0.74140  0.56530  0.69580  Biso   1.000  C
  C66      1.0000 0.25860  0.43470  0.69580  Biso   1.000  C
  H33      1.0000 0.28910  0.92560  0.36530  Biso   1.000  H
  H34      1.0000 0.71090  0.07440  0.36530  Biso   1.000  H
  H35      1.0000 0.78910  0.57440  0.63470  Biso   1.000  H
  H36      1.0000 0.21090  0.42560  0.63470  Biso   1.000  H
  C67      1.0000 0.17580  0.86120  0.27970  Biso   1.000  C
  C68      1.0000 0.82420  0.13880  0.27970  Biso   1.000  C
  C69      1.0000 0.67580  0.63880  0.72030  Biso   1.000  C
  C70      1.0000 0.32420  0.36120  0.72030  Biso   1.000  C
  H37      1.0000 0.17650  0.80180  0.32470  Biso   1.000  H
  H38      1.0000 0.82350  0.19820  0.32470  Biso   1.000  H
  H39      1.0000 0.67650  0.69820  0.67530  Biso   1.000  H
  H40      1.0000 0.32350  0.30180  0.67530  Biso   1.000  H
  C71      1.0000 0.10680  0.87680  0.18490  Biso   1.000  C
  C72      1.0000 0.89320  0.12320  0.18490  Biso   1.000  C
  C73      1.0000 0.60680  0.62320  0.81510  Biso   1.000  C
  C74      1.0000 0.39320  0.37680  0.81510  Biso   1.000  C
  H41      1.0000 0.06200  0.82610  0.16650  Biso   1.000  H
  H42      1.0000 0.93800  0.17390  0.16650  Biso   1.000  H
  H43      1.0000 0.56200  0.67390  0.83350  Biso   1.000  H
  H44      1.0000 0.43800  0.32610  0.83350  Biso   1.000  H
