data_image0
_cell_length_a       13.5915
_cell_length_b       13.8687
_cell_length_c       21.2892
_cell_angle_alpha    90
_cell_angle_beta     90
_cell_angle_gamma    90

_symmetry_space_group_name_H-M    "P 1"
_symmetry_int_tables_number       1

loop_
  _symmetry_equiv_pos_as_xyz
  'x, y, z'

loop_
  _atom_site_label
  _atom_site_occupancy
  _atom_site_fract_x
  _atom_site_fract_y
  _atom_site_fract_z
  _atom_site_thermal_displace_type
  _atom_site_B_iso_or_equiv
  _atom_site_type_symbol
  C1       1.0000 0.37200  0.73360  0.28640  Biso   1.000  C
  C2       1.0000 0.12800  0.26640  0.78640  Biso   1.000  C
  C3       1.0000 0.62800  0.23360  0.21360  Biso   1.000  C
  C4       1.0000 0.87200  0.76640  0.71360  Biso   1.000  C
  C5       1.0000 0.57040  0.57220  0.17400  Biso   1.000  C
  C6       1.0000 0.92960  0.42780  0.67400  Biso   1.000  C
  C7       1.0000 0.42960  0.07220  0.32600  Biso   1.000  C
  C8       1.0000 0.07040  0.92780  0.82600  Biso   1.000  C
  C9       1.0000 0.71710  0.02900  0.27140  Biso   1.000  C
  C10      1.0000 0.78290  0.97100  0.77140  Biso   1.000  C
  C11      1.0000 0.28290  0.52900  0.22860  Biso   1.000  C
  C12      1.0000 0.21710  0.47100  0.72860  Biso   1.000  C
  C13      1.0000 0.88040  0.71700  0.18410  Biso   1.000  C
  C14      1.0000 0.61960  0.28300  0.68410  Biso   1.000  C
  C15      1.0000 0.11960  0.21700  0.31590  Biso   1.000  C
  C16      1.0000 0.38040  0.78300  0.81590  Biso   1.000  C
  C17      1.0000 0.85830  0.60610  0.03280  Biso   1.000  C
  C18      1.0000 0.64170  0.39390  0.53280  Biso   1.000  C
  C19      1.0000 0.14170  0.10610  0.46720  Biso   1.000  C
  C20      1.0000 0.35830  0.89390  0.96720  Biso   1.000  C
  C21      1.0000 0.73950  0.50100  0.27510  Biso   1.000  C
  C22      1.0000 0.76050  0.49900  0.77510  Biso   1.000  C
  C23      1.0000 0.26050  0.00100  0.22490  Biso   1.000  C
  C24      1.0000 0.23950  0.99900  0.72490  Biso   1.000  C
  C25      1.0000 0.71500  0.40960  0.96860  Biso   1.000  C
  C26      1.0000 0.78500  0.59040  0.46860  Biso   1.000  C
  C27      1.0000 0.28500  0.90960  0.53140  Biso   1.000  C
  C28      1.0000 0.21500  0.09040  0.03140  Biso   1.000  C
  C29      1.0000 0.90830  0.45540  0.17480  Biso   1.000  C
  C30      1.0000 0.59170  0.54460  0.67480  Biso   1.000  C
  C31      1.0000 0.09170  0.95540  0.32520  Biso   1.000  C
  C32      1.0000 0.40830  0.04460  0.82520  Biso   1.000  C
  Cu1      1.0000 0.38201  0.61956  0.23999  Biso   1.000  Cu
  Cu2      1.0000 0.11799  0.38044  0.73999  Biso   1.000  Cu
  Cu3      1.0000 0.61799  0.11956  0.26001  Biso   1.000  Cu
  Cu4      1.0000 0.88201  0.88044  0.76001  Biso   1.000  Cu
  Cu5      1.0000 0.89271  0.88982  0.27451  Biso   1.000  Cu
  Cu6      1.0000 0.60729  0.11018  0.77451  Biso   1.000  Cu
  Cu7      1.0000 0.10729  0.38982  0.22549  Biso   1.000  Cu
  Cu8      1.0000 0.39271  0.61018  0.72549  Biso   1.000  Cu
  Cu9      1.0000 0.86869  0.63780  0.11647  Biso   1.000  Cu
  Cu10     1.0000 0.63131  0.36220  0.61647  Biso   1.000  Cu
  Cu11     1.0000 0.13131  0.13780  0.38353  Biso   1.000  Cu
  Cu12     1.0000 0.36869  0.86220  0.88353  Biso   1.000  Cu
  Cu13     1.0000 0.78208  0.50211  0.91833  Biso   1.000  Cu
  Cu14     1.0000 0.71792  0.49789  0.41833  Biso   1.000  Cu
  Cu15     1.0000 0.21792  0.00211  0.58167  Biso   1.000  Cu
  Cu16     1.0000 0.28208  0.99789  0.08167  Biso   1.000  Cu
  Cu17     1.0000 0.77513  0.49969  0.19158  Biso   1.000  Cu
  Cu18     1.0000 0.72487  0.50031  0.69158  Biso   1.000  Cu
  Cu19     1.0000 0.22487  0.99969  0.30842  Biso   1.000  Cu
  Cu20     1.0000 0.27513  0.00031  0.80842  Biso   1.000  Cu
  Cu21     1.0000 0.66751  0.37074  0.10681  Biso   1.000  Cu
  Cu22     1.0000 0.83249  0.62926  0.60681  Biso   1.000  Cu
  Cu23     1.0000 0.33249  0.87074  0.39319  Biso   1.000  Cu
  Cu24     1.0000 0.16751  0.12926  0.89319  Biso   1.000  Cu
  N1       1.0000 0.35800  0.79110  0.32320  Biso   1.000  N
  N2       1.0000 0.14200  0.20890  0.82320  Biso   1.000  N
  N3       1.0000 0.64200  0.29110  0.17680  Biso   1.000  N
  N4       1.0000 0.85800  0.70890  0.67680  Biso   1.000  N
  N5       1.0000 0.50410  0.59370  0.20150  Biso   1.000  N
  N6       1.0000 0.99590  0.40630  0.70150  Biso   1.000  N
  N7       1.0000 0.49590  0.09370  0.29850  Biso   1.000  N
  N8       1.0000 0.00410  0.90630  0.79850  Biso   1.000  N
  N9       1.0000 0.78050  0.97900  0.27520  Biso   1.000  N
  N10      1.0000 0.71950  0.02100  0.77520  Biso   1.000  N
  N11      1.0000 0.21950  0.47900  0.22480  Biso   1.000  N
  N12      1.0000 0.28050  0.52100  0.72480  Biso   1.000  N
  N13      1.0000 0.88760  0.78000  0.22250  Biso   1.000  N
  N14      1.0000 0.61240  0.22000  0.72250  Biso   1.000  N
  N15      1.0000 0.11240  0.28000  0.27750  Biso   1.000  N
  N16      1.0000 0.38760  0.72000  0.77750  Biso   1.000  N
  N17      1.0000 0.84390  0.57760  0.98190  Biso   1.000  N
  N18      1.0000 0.65610  0.42240  0.48190  Biso   1.000  N
  N19      1.0000 0.15610  0.07760  0.51810  Biso   1.000  N
  N20      1.0000 0.34390  0.92240  0.01810  Biso   1.000  N
  N21      1.0000 0.73020  0.49900  0.32840  Biso   1.000  N
  N22      1.0000 0.76980  0.50100  0.82840  Biso   1.000  N
  N23      1.0000 0.26980  0.99900  0.17160  Biso   1.000  N
  N24      1.0000 0.23020  0.00100  0.67160  Biso   1.000  N
  N25      1.0000 0.69620  0.38800  0.01880  Biso   1.000  N
  N26      1.0000 0.80380  0.61200  0.51880  Biso   1.000  N
  N27      1.0000 0.30380  0.88800  0.48120  Biso   1.000  N
  N28      1.0000 0.19620  0.11200  0.98120  Biso   1.000  N
  N29      1.0000 0.98530  0.42450  0.18060  Biso   1.000  N
  N30      1.0000 0.51470  0.57550  0.68060  Biso   1.000  N
  N31      1.0000 0.01470  0.92450  0.31940  Biso   1.000  N
  N32      1.0000 0.48530  0.07550  0.81940  Biso   1.000  N
  S1       1.0000 0.66420  0.55370  0.12410  Biso   1.000  S
  S2       1.0000 0.83580  0.44630  0.62410  Biso   1.000  S
  S3       1.0000 0.33580  0.05370  0.37590  Biso   1.000  S
  S4       1.0000 0.16420  0.94630  0.87590  Biso   1.000  S
  C33      1.0000 0.69590  0.86310  0.11360  Biso   1.000  C
  C34      1.0000 0.80410  0.13690  0.61360  Biso   1.000  C
  C35      1.0000 0.30410  0.36310  0.38640  Biso   1.000  C
  C36      1.0000 0.19590  0.63690  0.88640  Biso   1.000  C
  H1       1.0000 0.75190  0.82710  0.10480  Biso   1.000  H
  H2       1.0000 0.74810  0.17290  0.60480  Biso   1.000  H
  H3       1.0000 0.24810  0.32710  0.39520  Biso   1.000  H
  H4       1.0000 0.25190  0.67290  0.89520  Biso   1.000  H
  C37      1.0000 0.63430  0.83630  0.16450  Biso   1.000  C
  C38      1.0000 0.86570  0.16370  0.66450  Biso   1.000  C
  C39      1.0000 0.36570  0.33630  0.33550  Biso   1.000  C
  C40      1.0000 0.13430  0.66370  0.83550  Biso   1.000  C
  H5       1.0000 0.65250  0.78480  0.19000  Biso   1.000  H
  H6       1.0000 0.84750  0.21520  0.69000  Biso   1.000  H
  H7       1.0000 0.34750  0.28480  0.31000  Biso   1.000  H
  H8       1.0000 0.15250  0.71520  0.81000  Biso   1.000  H
  C41      1.0000 0.55290  0.88250  0.17630  Biso   1.000  C
  C42      1.0000 0.94710  0.11750  0.67630  Biso   1.000  C
  C43      1.0000 0.44710  0.38250  0.32370  Biso   1.000  C
  C44      1.0000 0.05290  0.61750  0.82370  Biso   1.000  C
  H9       1.0000 0.51040  0.86120  0.20760  Biso   1.000  H
  H10      1.0000 0.98960  0.13880  0.70760  Biso   1.000  H
  H11      1.0000 0.48960  0.36120  0.29240  Biso   1.000  H
  H12      1.0000 0.01040  0.63880  0.79240  Biso   1.000  H
  C45      1.0000 0.53070  0.96410  0.14140  Biso   1.000  C
  C46      1.0000 0.96930  0.03590  0.64140  Biso   1.000  C
  C47      1.0000 0.46930  0.46410  0.35860  Biso   1.000  C
  C48      1.0000 0.03070  0.53590  0.85860  Biso   1.000  C
  H13      1.0000 0.47610  0.00180  0.15080  Biso   1.000  H
  H14      1.0000 0.02390  0.99820  0.65080  Biso   1.000  H
  H15      1.0000 0.52390  0.50180  0.34920  Biso   1.000  H
  H16      1.0000 0.97610  0.49820  0.84920  Biso   1.000  H
  C49      1.0000 0.59250  0.98760  0.09220  Biso   1.000  C
  C50      1.0000 0.90750  0.01240  0.59220  Biso   1.000  C
  C51      1.0000 0.40750  0.48760  0.40780  Biso   1.000  C
  C52      1.0000 0.09250  0.51240  0.90780  Biso   1.000  C
  C53      1.0000 0.57350  0.07080  0.04900  Biso   1.000  C
  C54      1.0000 0.92650  0.92920  0.54900  Biso   1.000  C
  C55      1.0000 0.42650  0.57080  0.45100  Biso   1.000  C
  C56      1.0000 0.07350  0.42920  0.95100  Biso   1.000  C
  C57      1.0000 0.48780  0.12430  0.04750  Biso   1.000  C
  C58      1.0000 0.01220  0.87570  0.54750  Biso   1.000  C
  C59      1.0000 0.51220  0.62430  0.45250  Biso   1.000  C
  C60      1.0000 0.98780  0.37570  0.95250  Biso   1.000  C
  H17      1.0000 0.43690  0.11280  0.07570  Biso   1.000  H
  H18      1.0000 0.06310  0.88720  0.57570  Biso   1.000  H
  H19      1.0000 0.56310  0.61280  0.42430  Biso   1.000  H
  H20      1.0000 0.93690  0.38720  0.92430  Biso   1.000  H
  C61      1.0000 0.48080  0.19550  0.00220  Biso   1.000  C
  C62      1.0000 0.01920  0.80450  0.50220  Biso   1.000  C
  C63      1.0000 0.51920  0.69550  0.49780  Biso   1.000  C
  C64      1.0000 0.98080  0.30450  0.99780  Biso   1.000  C
  H21      1.0000 0.42500  0.23430  0.00090  Biso   1.000  H
  H22      1.0000 0.07500  0.76570  0.50090  Biso   1.000  H
  H23      1.0000 0.57500  0.73430  0.49910  Biso   1.000  H
  H24      1.0000 0.92500  0.26570  0.99910  Biso   1.000  H
  C65      1.0000 0.55410  0.21010  0.95950  Biso   1.000  C
  C66      1.0000 0.94590  0.78990  0.45950  Biso   1.000  C
  C67      1.0000 0.44590  0.71010  0.54050  Biso   1.000  C
  C68      1.0000 0.05410  0.28990  0.04050  Biso   1.000  C
  H25      1.0000 0.54780  0.25740  0.92880  Biso   1.000  H
  H26      1.0000 0.95220  0.74260  0.42880  Biso   1.000  H
  H27      1.0000 0.45220  0.75740  0.57120  Biso   1.000  H
  H28      1.0000 0.04780  0.24260  0.07120  Biso   1.000  H
  C69      1.0000 0.63810  0.15360  0.96250  Biso   1.000  C
  C70      1.0000 0.86190  0.84640  0.46250  Biso   1.000  C
  C71      1.0000 0.36190  0.65360  0.53750  Biso   1.000  C
  C72      1.0000 0.13810  0.34640  0.03750  Biso   1.000  C
  C73      1.0000 0.72690  0.16280  0.92250  Biso   1.000  C
  C74      1.0000 0.77310  0.83720  0.42250  Biso   1.000  C
  C75      1.0000 0.27310  0.66280  0.57750  Biso   1.000  C
  C76      1.0000 0.22690  0.33720  0.07750  Biso   1.000  C
  C77      1.0000 0.73590  0.22980  0.87590  Biso   1.000  C
  C78      1.0000 0.76410  0.77020  0.37590  Biso   1.000  C
  C79      1.0000 0.26410  0.72980  0.62410  Biso   1.000  C
  C80      1.0000 0.23590  0.27020  0.12410  Biso   1.000  C
  H29      1.0000 0.68540  0.27360  0.86860  Biso   1.000  H
  H30      1.0000 0.81460  0.72640  0.36860  Biso   1.000  H
  H31      1.0000 0.31460  0.77360  0.63140  Biso   1.000  H
  H32      1.0000 0.18540  0.22640  0.13140  Biso   1.000  H
  C81      1.0000 0.81760  0.23260  0.84030  Biso   1.000  C
  C82      1.0000 0.68240  0.76740  0.34030  Biso   1.000  C
  C83      1.0000 0.18240  0.73260  0.65970  Biso   1.000  C
  C84      1.0000 0.31760  0.26740  0.15970  Biso   1.000  C
  H33      1.0000 0.82360  0.27720  0.80790  Biso   1.000  H
  H34      1.0000 0.67640  0.72280  0.30790  Biso   1.000  H
  H35      1.0000 0.17640  0.77720  0.69210  Biso   1.000  H
  H36      1.0000 0.32360  0.22280  0.19210  Biso   1.000  H
  C85      1.0000 0.89180  0.16870  0.85260  Biso   1.000  C
  C86      1.0000 0.60820  0.83130  0.35260  Biso   1.000  C
  C87      1.0000 0.10820  0.66870  0.64740  Biso   1.000  C
  C88      1.0000 0.39180  0.33130  0.14740  Biso   1.000  C
  H37      1.0000 0.94960  0.16950  0.82930  Biso   1.000  H
  H38      1.0000 0.55040  0.83050  0.32930  Biso   1.000  H
  H39      1.0000 0.05040  0.66950  0.67070  Biso   1.000  H
  H40      1.0000 0.44960  0.33050  0.17070  Biso   1.000  H
  C89      1.0000 0.87850  0.10200  0.90130  Biso   1.000  C
  C90      1.0000 0.62150  0.89800  0.40130  Biso   1.000  C
  C91      1.0000 0.12150  0.60200  0.59870  Biso   1.000  C
  C92      1.0000 0.37850  0.39800  0.09870  Biso   1.000  C
  H41      1.0000 0.92860  0.05810  0.90930  Biso   1.000  H
  H42      1.0000 0.57140  0.94190  0.40930  Biso   1.000  H
  H43      1.0000 0.07140  0.55810  0.59070  Biso   1.000  H
  H44      1.0000 0.42860  0.44190  0.09070  Biso   1.000  H
  C93      1.0000 0.64510  0.89210  0.90460  Biso   1.000  C
  C94      1.0000 0.85490  0.10790  0.40460  Biso   1.000  C
  C95      1.0000 0.35490  0.39210  0.59540  Biso   1.000  C
  C96      1.0000 0.14510  0.60790  0.09540  Biso   1.000  C
  H45      1.0000 0.59570  0.93690  0.91250  Biso   1.000  H
  H46      1.0000 0.90430  0.06310  0.41250  Biso   1.000  H
  H47      1.0000 0.40430  0.43690  0.58750  Biso   1.000  H
  H48      1.0000 0.09570  0.56310  0.08750  Biso   1.000  H
  C97      1.0000 0.63070  0.82310  0.85660  Biso   1.000  C
  C98      1.0000 0.86930  0.17690  0.35660  Biso   1.000  C
  C99      1.0000 0.36930  0.32310  0.64340  Biso   1.000  C
  C100     1.0000 0.13070  0.67690  0.14340  Biso   1.000  C
  H49      1.0000 0.57230  0.82150  0.83390  Biso   1.000  H
  H50      1.0000 0.92770  0.17850  0.33390  Biso   1.000  H
  H51      1.0000 0.42770  0.32150  0.66610  Biso   1.000  H
  H52      1.0000 0.07230  0.67850  0.16610  Biso   1.000  H
  C101     1.0000 0.70400  0.75920  0.84450  Biso   1.000  C
  C102     1.0000 0.79600  0.24080  0.34450  Biso   1.000  C
  C103     1.0000 0.29600  0.25920  0.65550  Biso   1.000  C
  C104     1.0000 0.20400  0.74080  0.15550  Biso   1.000  C
  H53      1.0000 0.69710  0.71400  0.81250  Biso   1.000  H
  H54      1.0000 0.80290  0.28600  0.31250  Biso   1.000  H
  H55      1.0000 0.30290  0.21400  0.68750  Biso   1.000  H
  H56      1.0000 0.19710  0.78600  0.18750  Biso   1.000  H
  C105     1.0000 0.78930  0.76200  0.88030  Biso   1.000  C
  C106     1.0000 0.71070  0.23800  0.38030  Biso   1.000  C
  C107     1.0000 0.21070  0.26200  0.61970  Biso   1.000  C
  C108     1.0000 0.28930  0.73800  0.11970  Biso   1.000  C
  H57      1.0000 0.83930  0.71740  0.87390  Biso   1.000  H
  H58      1.0000 0.66070  0.28260  0.37390  Biso   1.000  H
  H59      1.0000 0.16070  0.21740  0.62610  Biso   1.000  H
  H60      1.0000 0.33930  0.78260  0.12610  Biso   1.000  H
  C109     1.0000 0.79810  0.83210  0.92560  Biso   1.000  C
  C110     1.0000 0.70190  0.16790  0.42560  Biso   1.000  C
  C111     1.0000 0.20190  0.33210  0.57440  Biso   1.000  C
  C112     1.0000 0.29810  0.66790  0.07440  Biso   1.000  C
  C113     1.0000 0.88810  0.84470  0.96530  Biso   1.000  C
  C114     1.0000 0.61190  0.15530  0.46530  Biso   1.000  C
  C115     1.0000 0.11190  0.34470  0.53470  Biso   1.000  C
  C116     1.0000 0.38810  0.65530  0.03470  Biso   1.000  C
  C117     1.0000 0.97300  0.78860  0.95910  Biso   1.000  C
  C118     1.0000 0.52700  0.21140  0.45910  Biso   1.000  C
  C119     1.0000 0.02700  0.28860  0.54090  Biso   1.000  C
  C120     1.0000 0.47300  0.71140  0.04090  Biso   1.000  C
  H61      1.0000 0.97690  0.73960  0.92940  Biso   1.000  H
  H62      1.0000 0.52310  0.26040  0.42940  Biso   1.000  H
  H63      1.0000 0.02310  0.23960  0.57060  Biso   1.000  H
  H64      1.0000 0.47690  0.76040  0.07060  Biso   1.000  H
  C121     1.0000 0.05090  0.80860  0.99870  Biso   1.000  C
  C122     1.0000 0.44910  0.19140  0.49870  Biso   1.000  C
  C123     1.0000 0.94910  0.30860  0.50130  Biso   1.000  C
  C124     1.0000 0.55090  0.69140  0.00130  Biso   1.000  C
  H65      1.0000 0.10900  0.77350  0.99560  Biso   1.000  H
  H66      1.0000 0.39100  0.22650  0.49560  Biso   1.000  H
  H67      1.0000 0.89100  0.27350  0.50440  Biso   1.000  H
  H68      1.0000 0.60900  0.72650  0.00440  Biso   1.000  H
  C125     1.0000 0.04200  0.88120  0.04310  Biso   1.000  C
  C126     1.0000 0.45800  0.11880  0.54310  Biso   1.000  C
  C127     1.0000 0.95800  0.38120  0.45690  Biso   1.000  C
  C128     1.0000 0.54200  0.61880  0.95690  Biso   1.000  C
  H69      1.0000 0.09390  0.89460  0.07020  Biso   1.000  H
  H70      1.0000 0.40610  0.10540  0.57020  Biso   1.000  H
  H71      1.0000 0.90610  0.39460  0.42980  Biso   1.000  H
  H72      1.0000 0.59390  0.60540  0.92980  Biso   1.000  H
  C129     1.0000 0.95440  0.93430  0.04700  Biso   1.000  C
  C130     1.0000 0.54560  0.06570  0.54700  Biso   1.000  C
  C131     1.0000 0.04560  0.43430  0.45300  Biso   1.000  C
  C132     1.0000 0.45440  0.56570  0.95300  Biso   1.000  C
  C133     1.0000 0.93470  0.01420  0.09030  Biso   1.000  C
  C134     1.0000 0.56530  0.98580  0.59030  Biso   1.000  C
  C135     1.0000 0.06530  0.51420  0.40970  Biso   1.000  C
  C136     1.0000 0.43470  0.48580  0.90970  Biso   1.000  C
  C137     1.0000 0.99690  0.03720  0.14050  Biso   1.000  C
  C138     1.0000 0.50310  0.96280  0.64050  Biso   1.000  C
  C139     1.0000 0.00310  0.53720  0.35950  Biso   1.000  C
  C140     1.0000 0.49690  0.46280  0.85950  Biso   1.000  C
  H73      1.0000 0.05300  0.00150  0.14970  Biso   1.000  H
  H74      1.0000 0.44700  0.99850  0.64970  Biso   1.000  H
  H75      1.0000 0.94700  0.50150  0.35030  Biso   1.000  H
  H76      1.0000 0.55300  0.49850  0.85030  Biso   1.000  H
  C141     1.0000 0.96910  0.11680  0.17560  Biso   1.000  C
  C142     1.0000 0.53090  0.88320  0.67560  Biso   1.000  C
  C143     1.0000 0.03090  0.61680  0.32440  Biso   1.000  C
  C144     1.0000 0.46910  0.38320  0.82440  Biso   1.000  C
  H77      1.0000 0.01000  0.13740  0.20790  Biso   1.000  H
  H78      1.0000 0.49000  0.86260  0.70790  Biso   1.000  H
  H79      1.0000 0.99000  0.63740  0.29210  Biso   1.000  H
  H80      1.0000 0.51000  0.36260  0.79210  Biso   1.000  H
  C145     1.0000 0.88630  0.16500  0.16480  Biso   1.000  C
  C146     1.0000 0.61370  0.83500  0.66480  Biso   1.000  C
  C147     1.0000 0.11370  0.66500  0.33520  Biso   1.000  C
  C148     1.0000 0.38630  0.33500  0.83520  Biso   1.000  C
  H81      1.0000 0.86780  0.21590  0.19070  Biso   1.000  H
  H82      1.0000 0.63220  0.78410  0.69070  Biso   1.000  H
  H83      1.0000 0.13220  0.71590  0.30930  Biso   1.000  H
  H84      1.0000 0.36780  0.28410  0.80930  Biso   1.000  H
  C149     1.0000 0.82630  0.13780  0.11310  Biso   1.000  C
  C150     1.0000 0.67370  0.86220  0.61310  Biso   1.000  C
  C151     1.0000 0.17370  0.63780  0.38690  Biso   1.000  C
  C152     1.0000 0.32630  0.36220  0.88690  Biso   1.000  C
  H85      1.0000 0.76960  0.17240  0.10360  Biso   1.000  H
  H86      1.0000 0.73040  0.82760  0.60360  Biso   1.000  H
  H87      1.0000 0.23040  0.67240  0.39640  Biso   1.000  H
  H88      1.0000 0.26960  0.32760  0.89640  Biso   1.000  H
  N33      1.0000 0.67450  0.93730  0.07930  Biso   1.000  N
  N34      1.0000 0.82550  0.06270  0.57930  Biso   1.000  N
  N35      1.0000 0.32550  0.43730  0.42070  Biso   1.000  N
  N36      1.0000 0.17450  0.56270  0.92070  Biso   1.000  N
  N37      1.0000 0.64560  0.08520  0.00660  Biso   1.000  N
  N38      1.0000 0.85440  0.91480  0.50660  Biso   1.000  N
  N39      1.0000 0.35440  0.58520  0.49340  Biso   1.000  N
  N40      1.0000 0.14560  0.41480  0.99340  Biso   1.000  N
  N41      1.0000 0.79900  0.09820  0.93630  Biso   1.000  N
  N42      1.0000 0.70100  0.90180  0.43630  Biso   1.000  N
  N43      1.0000 0.20100  0.59820  0.56370  Biso   1.000  N
  N44      1.0000 0.29900  0.40180  0.06370  Biso   1.000  N
  N45      1.0000 0.72580  0.89530  0.93830  Biso   1.000  N
  N46      1.0000 0.77420  0.10470  0.43830  Biso   1.000  N
  N47      1.0000 0.27420  0.39530  0.56170  Biso   1.000  N
  N48      1.0000 0.22580  0.60470  0.06170  Biso   1.000  N
  N49      1.0000 0.88080  0.91470  0.00730  Biso   1.000  N
  N50      1.0000 0.61920  0.08530  0.50730  Biso   1.000  N
  N51      1.0000 0.11920  0.41470  0.49270  Biso   1.000  N
  N52      1.0000 0.38080  0.58530  0.99270  Biso   1.000  N
  N53      1.0000 0.85180  0.06350  0.07930  Biso   1.000  N
  N54      1.0000 0.64820  0.93650  0.57930  Biso   1.000  N
  N55      1.0000 0.14820  0.56350  0.42070  Biso   1.000  N
  N56      1.0000 0.35180  0.43650  0.92070  Biso   1.000  N
  Ni1      1.0000 0.76260  0.99935  0.00755  Biso   1.000  Ni
  Ni2      1.0000 0.73740  0.00065  0.50755  Biso   1.000  Ni
  Ni3      1.0000 0.23740  0.49935  0.49245  Biso   1.000  Ni
  Ni4      1.0000 0.26260  0.50065  0.99245  Biso   1.000  Ni
