data_image0
_cell_length_a       7.078
_cell_length_b       7.167
_cell_length_c       12.175
_cell_angle_alpha    90
_cell_angle_beta     90
_cell_angle_gamma    90

_symmetry_space_group_name_H-M    "P 1"
_symmetry_int_tables_number       1

loop_
  _symmetry_equiv_pos_as_xyz
  'x, y, z'

loop_
  _atom_site_label
  _atom_site_occupancy
  _atom_site_fract_x
  _atom_site_fract_y
  _atom_site_fract_z
  _atom_site_thermal_displace_type
  _atom_site_B_iso_or_equiv
  _atom_site_type_symbol
  Cu1      1.0000 0.22500  0.19200  0.00000  Biso   1.000  Cu
  Cu2      1.0000 0.27500  0.19200  0.50000  Biso   1.000  Cu
  Cu3      1.0000 0.72500  0.80800  0.00000  Biso   1.000  Cu
  Cu4      1.0000 0.77500  0.80800  0.50000  Biso   1.000  Cu
  Cu5      1.0000 0.55500  0.15700  0.24200  Biso   1.000  Cu
  Cu6      1.0000 0.94500  0.15700  0.74200  Biso   1.000  Cu
  Cu7      1.0000 0.05500  0.84300  0.24200  Biso   1.000  Cu
  Cu8      1.0000 0.44500  0.84300  0.74200  Biso   1.000  Cu
  Cl1      1.0000 0.24400  0.13300  0.17900  Biso   1.000  Cl
  Cl2      1.0000 0.25600  0.13300  0.67900  Biso   1.000  Cl
  Cl3      1.0000 0.74400  0.86700  0.17900  Biso   1.000  Cl
  Cl4      1.0000 0.75600  0.86700  0.67900  Biso   1.000  Cl
  Cl5      1.0000 0.98400  0.04900  0.92100  Biso   1.000  Cl
  Cl6      1.0000 0.51600  0.04900  0.42100  Biso   1.000  Cl
  Cl7      1.0000 0.48400  0.95100  0.92100  Biso   1.000  Cl
  Cl8      1.0000 0.01600  0.95100  0.42100  Biso   1.000  Cl
  N1       1.0000 0.28300  0.42800  0.90600  Biso   1.000  N
  N2       1.0000 0.21700  0.42800  0.40600  Biso   1.000  N
  N3       1.0000 0.78300  0.57200  0.90600  Biso   1.000  N
  N4       1.0000 0.71700  0.57200  0.40600  Biso   1.000  N
  C1       1.0000 0.25500  0.53100  0.83000  Biso   1.000  C
  C2       1.0000 0.24500  0.53100  0.33000  Biso   1.000  C
  C3       1.0000 0.75500  0.46900  0.83000  Biso   1.000  C
  C4       1.0000 0.74500  0.46900  0.33000  Biso   1.000  C
  C5       1.0000 0.21100  0.65800  0.75600  Biso   1.000  C
  C6       1.0000 0.28900  0.65800  0.25600  Biso   1.000  C
  C7       1.0000 0.71100  0.34200  0.75600  Biso   1.000  C
  C8       1.0000 0.78900  0.34200  0.25600  Biso   1.000  C
  C9       1.0000 0.29300  0.65300  0.65200  Biso   1.000  C
  C10      1.0000 0.20700  0.65300  0.15200  Biso   1.000  C
  C11      1.0000 0.79300  0.34700  0.65200  Biso   1.000  C
  C12      1.0000 0.70700  0.34700  0.15200  Biso   1.000  C
