data_image0
_cell_length_a       7.075
_cell_length_b       7.163
_cell_length_c       12.171
_cell_angle_alpha    90
_cell_angle_beta     90
_cell_angle_gamma    90

_symmetry_space_group_name_H-M    "P 1"
_symmetry_int_tables_number       1

loop_
  _symmetry_equiv_pos_as_xyz
  'x, y, z'

loop_
  _atom_site_label
  _atom_site_occupancy
  _atom_site_fract_x
  _atom_site_fract_y
  _atom_site_fract_z
  _atom_site_thermal_displace_type
  _atom_site_B_iso_or_equiv
  _atom_site_type_symbol
  Cu1      1.0000 0.94310  0.15700  0.26280  Biso   1.000  Cu
  Cu2      1.0000 0.55690  0.15700  0.76280  Biso   1.000  Cu
  Cu3      1.0000 0.44310  0.84300  0.26280  Biso   1.000  Cu
  Cu4      1.0000 0.05690  0.84300  0.76280  Biso   1.000  Cu
  Cu5      1.0000 0.27120  0.19100  0.50000  Biso   1.000  Cu
  Cu6      1.0000 0.22880  0.19100  0.00000  Biso   1.000  Cu
  Cu7      1.0000 0.77120  0.80900  0.50000  Biso   1.000  Cu
  Cu8      1.0000 0.72880  0.80900  0.00000  Biso   1.000  Cu
  Cl1      1.0000 0.97870  0.04790  0.43660  Biso   1.000  Cl
  Cl2      1.0000 0.52130  0.04790  0.93660  Biso   1.000  Cl
  Cl3      1.0000 0.47870  0.95210  0.43660  Biso   1.000  Cl
  Cl4      1.0000 0.02130  0.95210  0.93660  Biso   1.000  Cl
  Cl5      1.0000 0.26330  0.13580  0.68620  Biso   1.000  Cl
  Cl6      1.0000 0.23670  0.13580  0.18620  Biso   1.000  Cl
  Cl7      1.0000 0.76330  0.86420  0.68620  Biso   1.000  Cl
  Cl8      1.0000 0.73670  0.86420  0.18620  Biso   1.000  Cl
  N1       1.0000 0.27560  0.42000  0.42120  Biso   1.000  N
  N2       1.0000 0.22440  0.42000  0.92120  Biso   1.000  N
  N3       1.0000 0.77560  0.58000  0.42120  Biso   1.000  N
  N4       1.0000 0.72440  0.58000  0.92120  Biso   1.000  N
  C1       1.0000 0.29230  0.65380  0.16830  Biso   1.000  C
  C2       1.0000 0.20770  0.65380  0.66830  Biso   1.000  C
  C3       1.0000 0.79230  0.34620  0.16830  Biso   1.000  C
  C4       1.0000 0.70770  0.34620  0.66830  Biso   1.000  C
  C5       1.0000 0.21310  0.67120  0.27180  Biso   1.000  C
  C6       1.0000 0.28690  0.67120  0.77180  Biso   1.000  C
  C7       1.0000 0.71310  0.32880  0.27180  Biso   1.000  C
  C8       1.0000 0.78690  0.32880  0.77180  Biso   1.000  C
  C9       1.0000 0.25210  0.53340  0.35520  Biso   1.000  C
  C10      1.0000 0.24790  0.53340  0.85520  Biso   1.000  C
  C11      1.0000 0.75210  0.46660  0.35520  Biso   1.000  C
  C12      1.0000 0.74790  0.46660  0.85520  Biso   1.000  C
  H1       1.0000 0.26880  0.74220  0.11180  Biso   1.000  H
  H2       1.0000 0.23120  0.74220  0.61180  Biso   1.000  H
  H3       1.0000 0.76880  0.25780  0.11180  Biso   1.000  H
  H4       1.0000 0.73120  0.25780  0.61180  Biso   1.000  H
  H5       1.0000 0.37630  0.55200  0.15160  Biso   1.000  H
  H6       1.0000 0.12370  0.55200  0.65160  Biso   1.000  H
  H7       1.0000 0.87630  0.44800  0.15160  Biso   1.000  H
  H8       1.0000 0.62370  0.44800  0.65160  Biso   1.000  H
  H9       1.0000 0.13110  0.77220  0.28440  Biso   1.000  H
  H10      1.0000 0.36890  0.77220  0.78440  Biso   1.000  H
  H11      1.0000 0.63110  0.22780  0.28440  Biso   1.000  H
  H12      1.0000 0.86890  0.22780  0.78440  Biso   1.000  H
