data_image0
_cell_length_a       31.6114
_cell_length_b       5.54791
_cell_length_c       10.8229
_cell_angle_alpha    90
_cell_angle_beta     96.9743
_cell_angle_gamma    90

_symmetry_space_group_name_H-M    "P 1"
_symmetry_int_tables_number       1

loop_
  _symmetry_equiv_pos_as_xyz
  'x, y, z'

loop_
  _atom_site_label
  _atom_site_occupancy
  _atom_site_fract_x
  _atom_site_fract_y
  _atom_site_fract_z
  _atom_site_thermal_displace_type
  _atom_site_B_iso_or_equiv
  _atom_site_type_symbol
  S1       1.0000 0.67067  0.79275  0.97453  Biso   1.000  S
  S2       1.0000 0.32933  0.79275  0.52547  Biso   1.000  S
  S3       1.0000 0.82933  0.29275  0.52547  Biso   1.000  S
  S4       1.0000 0.17067  0.29275  0.97453  Biso   1.000  S
  S5       1.0000 0.32933  0.20725  0.02547  Biso   1.000  S
  S6       1.0000 0.67067  0.20725  0.47453  Biso   1.000  S
  S7       1.0000 0.17067  0.70725  0.47453  Biso   1.000  S
  S8       1.0000 0.82933  0.70725  0.02547  Biso   1.000  S
  O1       1.0000 0.68025  0.86109  0.10423  Biso   1.000  O
  O2       1.0000 0.31975  0.86109  0.39577  Biso   1.000  O
  O3       1.0000 0.81975  0.36109  0.39577  Biso   1.000  O
  O4       1.0000 0.18025  0.36109  0.10423  Biso   1.000  O
  O5       1.0000 0.31975  0.13891  0.89577  Biso   1.000  O
  O6       1.0000 0.68025  0.13891  0.60423  Biso   1.000  O
  O7       1.0000 0.18025  0.63891  0.60423  Biso   1.000  O
  O8       1.0000 0.81975  0.63891  0.89577  Biso   1.000  O
  O9       1.0000 0.68693  0.55527  0.95015  Biso   1.000  O
  O10      1.0000 0.31307  0.55527  0.54985  Biso   1.000  O
  O11      1.0000 0.81307  0.05527  0.54985  Biso   1.000  O
  O12      1.0000 0.18693  0.05527  0.95015  Biso   1.000  O
  O13      1.0000 0.31307  0.44473  0.04985  Biso   1.000  O
  O14      1.0000 0.68693  0.44473  0.45015  Biso   1.000  O
  O15      1.0000 0.18693  0.94473  0.45015  Biso   1.000  O
  O16      1.0000 0.81307  0.94473  0.04985  Biso   1.000  O
  O17      1.0000 0.68310  0.97043  0.88753  Biso   1.000  O
  O18      1.0000 0.31690  0.97043  0.61247  Biso   1.000  O
  O19      1.0000 0.81690  0.47043  0.61247  Biso   1.000  O
  O20      1.0000 0.18310  0.47043  0.88753  Biso   1.000  O
  O21      1.0000 0.31690  0.02957  0.11247  Biso   1.000  O
  O22      1.0000 0.68310  0.02957  0.38753  Biso   1.000  O
  O23      1.0000 0.18310  0.52957  0.38753  Biso   1.000  O
  O24      1.0000 0.81690  0.52957  0.11247  Biso   1.000  O
  N1       1.0000 0.55031  0.64475  0.94973  Biso   1.000  N
  N2       1.0000 0.44969  0.64475  0.55027  Biso   1.000  N
  N3       1.0000 0.94969  0.14475  0.55027  Biso   1.000  N
  N4       1.0000 0.05031  0.14475  0.94973  Biso   1.000  N
  N5       1.0000 0.44969  0.35525  0.05027  Biso   1.000  N
  N6       1.0000 0.55031  0.35525  0.44973  Biso   1.000  N
  N7       1.0000 0.05031  0.85525  0.44973  Biso   1.000  N
  N8       1.0000 0.94969  0.85525  0.05027  Biso   1.000  N
  N9       1.0000 0.54707  0.82689  0.86740  Biso   1.000  N
  N10      1.0000 0.45293  0.82689  0.63260  Biso   1.000  N
  N11      1.0000 0.95293  0.32689  0.63260  Biso   1.000  N
  N12      1.0000 0.04707  0.32689  0.86740  Biso   1.000  N
  N13      1.0000 0.45293  0.17311  0.13260  Biso   1.000  N
  N14      1.0000 0.54707  0.17311  0.36740  Biso   1.000  N
  N15      1.0000 0.04707  0.67311  0.36740  Biso   1.000  N
  N16      1.0000 0.95293  0.67311  0.13260  Biso   1.000  N
  C1       1.0000 0.61536  0.76601  0.94716  Biso   1.000  C
  C2       1.0000 0.38464  0.76601  0.55284  Biso   1.000  C
  C3       1.0000 0.88464  0.26601  0.55284  Biso   1.000  C
  C4       1.0000 0.11536  0.26601  0.94716  Biso   1.000  C
  C5       1.0000 0.38464  0.23399  0.05284  Biso   1.000  C
  C6       1.0000 0.61536  0.23399  0.44716  Biso   1.000  C
  C7       1.0000 0.11536  0.73399  0.44716  Biso   1.000  C
  C8       1.0000 0.88464  0.73399  0.05284  Biso   1.000  C
  C9       1.0000 0.59042  0.60337  0.99976  Biso   1.000  C
  C10      1.0000 0.40958  0.60337  0.50024  Biso   1.000  C
  C11      1.0000 0.90958  0.10337  0.50024  Biso   1.000  C
  C12      1.0000 0.09042  0.10337  0.99976  Biso   1.000  C
  C13      1.0000 0.40958  0.39663  0.00024  Biso   1.000  C
  C14      1.0000 0.59042  0.39663  0.49976  Biso   1.000  C
  C15      1.0000 0.09042  0.89663  0.49976  Biso   1.000  C
  C16      1.0000 0.90958  0.89663  0.00024  Biso   1.000  C
  C17      1.0000 0.58678  0.90071  0.86618  Biso   1.000  C
  C18      1.0000 0.41322  0.90071  0.63382  Biso   1.000  C
  C19      1.0000 0.91322  0.40071  0.63382  Biso   1.000  C
  C20      1.0000 0.08678  0.40071  0.86618  Biso   1.000  C
  C21      1.0000 0.41322  0.09929  0.13382  Biso   1.000  C
  C22      1.0000 0.58678  0.09929  0.36618  Biso   1.000  C
  C23      1.0000 0.08678  0.59929  0.36618  Biso   1.000  C
  C24      1.0000 0.91322  0.59929  0.13382  Biso   1.000  C
  C25      1.0000 0.59991  0.11039  0.78509  Biso   1.000  C
  C26      1.0000 0.40009  0.11039  0.71491  Biso   1.000  C
  C27      1.0000 0.90009  0.61039  0.71491  Biso   1.000  C
  C28      1.0000 0.09991  0.61039  0.78509  Biso   1.000  C
  C29      1.0000 0.40009  0.88961  0.21491  Biso   1.000  C
  C30      1.0000 0.59991  0.88961  0.28509  Biso   1.000  C
  C31      1.0000 0.09991  0.38961  0.28509  Biso   1.000  C
  C32      1.0000 0.90009  0.38961  0.21491  Biso   1.000  C
  C33      1.0000 0.60563  0.40975  0.09766  Biso   1.000  C
  C34      1.0000 0.39437  0.40975  0.40234  Biso   1.000  C
  C35      1.0000 0.89437  0.90975  0.40234  Biso   1.000  C
  C36      1.0000 0.10563  0.90975  0.09766  Biso   1.000  C
  C37      1.0000 0.39437  0.59025  0.90234  Biso   1.000  C
  C38      1.0000 0.60563  0.59025  0.59766  Biso   1.000  C
  C39      1.0000 0.10563  0.09025  0.59766  Biso   1.000  C
  C40      1.0000 0.89437  0.09025  0.90234  Biso   1.000  C
  H1       1.0000 0.62133  0.49581  0.18007  Biso   1.000  H
  H2       1.0000 0.37867  0.49581  0.31993  Biso   1.000  H
  H3       1.0000 0.87867  0.99581  0.31993  Biso   1.000  H
  H4       1.0000 0.12133  0.99581  0.18007  Biso   1.000  H
  H5       1.0000 0.37867  0.50419  0.81993  Biso   1.000  H
  H6       1.0000 0.62133  0.50419  0.68007  Biso   1.000  H
  H7       1.0000 0.12133  0.00419  0.68007  Biso   1.000  H
  H8       1.0000 0.87867  0.00419  0.81993  Biso   1.000  H
  H9       1.0000 0.57857  0.30887  0.12118  Biso   1.000  H
  H10      1.0000 0.42143  0.30887  0.37882  Biso   1.000  H
  H11      1.0000 0.92143  0.80887  0.37882  Biso   1.000  H
  H12      1.0000 0.07857  0.80887  0.12118  Biso   1.000  H
  H13      1.0000 0.42143  0.69113  0.87882  Biso   1.000  H
  H14      1.0000 0.57857  0.69113  0.62118  Biso   1.000  H
  H15      1.0000 0.07857  0.19113  0.62118  Biso   1.000  H
  H16      1.0000 0.92143  0.19113  0.87882  Biso   1.000  H
  H17      1.0000 0.62760  0.28937  0.06010  Biso   1.000  H
  H18      1.0000 0.37240  0.28937  0.43990  Biso   1.000  H
  H19      1.0000 0.87240  0.78937  0.43990  Biso   1.000  H
  H20      1.0000 0.12760  0.78937  0.06010  Biso   1.000  H
  H21      1.0000 0.37240  0.71063  0.93990  Biso   1.000  H
  H22      1.0000 0.62760  0.71063  0.56010  Biso   1.000  H
  H23      1.0000 0.12760  0.21063  0.56010  Biso   1.000  H
  H24      1.0000 0.87240  0.21063  0.93990  Biso   1.000  H
  H25      1.0000 0.62159  0.04471  0.72322  Biso   1.000  H
  H26      1.0000 0.37841  0.04471  0.77678  Biso   1.000  H
  H27      1.0000 0.87841  0.54471  0.77678  Biso   1.000  H
  H28      1.0000 0.12159  0.54471  0.72322  Biso   1.000  H
  H29      1.0000 0.37841  0.95529  0.27678  Biso   1.000  H
  H30      1.0000 0.62159  0.95529  0.22322  Biso   1.000  H
  H31      1.0000 0.12159  0.45529  0.22322  Biso   1.000  H
  H32      1.0000 0.87841  0.45529  0.27678  Biso   1.000  H
  H33      1.0000 0.57195  0.18396  0.73123  Biso   1.000  H
  H34      1.0000 0.42805  0.18396  0.76877  Biso   1.000  H
  H35      1.0000 0.92805  0.68396  0.76877  Biso   1.000  H
  H36      1.0000 0.07195  0.68396  0.73123  Biso   1.000  H
  H37      1.0000 0.42805  0.81604  0.26877  Biso   1.000  H
  H38      1.0000 0.57195  0.81604  0.23123  Biso   1.000  H
  H39      1.0000 0.07195  0.31604  0.23123  Biso   1.000  H
  H40      1.0000 0.92805  0.31604  0.26877  Biso   1.000  H
  H41      1.0000 0.61535  0.24890  0.84420  Biso   1.000  H
  H42      1.0000 0.38465  0.24890  0.65580  Biso   1.000  H
  H43      1.0000 0.88465  0.74890  0.65580  Biso   1.000  H
  H44      1.0000 0.11535  0.74890  0.84420  Biso   1.000  H
  H45      1.0000 0.38465  0.75110  0.15580  Biso   1.000  H
  H46      1.0000 0.61535  0.75110  0.34420  Biso   1.000  H
  H47      1.0000 0.11535  0.25110  0.34420  Biso   1.000  H
  H48      1.0000 0.88465  0.25110  0.15580  Biso   1.000  H
  Na1      1.0000 0.71059  0.68970  0.29147  Biso   1.000  Na
  Na2      1.0000 0.28941  0.68970  0.20853  Biso   1.000  Na
  Na3      1.0000 0.78941  0.18970  0.20853  Biso   1.000  Na
  Na4      1.0000 0.21059  0.18970  0.29147  Biso   1.000  Na
  Na5      1.0000 0.28941  0.31030  0.70853  Biso   1.000  Na
  Na6      1.0000 0.71059  0.31030  0.79147  Biso   1.000  Na
  Na7      1.0000 0.21059  0.81030  0.79147  Biso   1.000  Na
  Na8      1.0000 0.78941  0.81030  0.70853  Biso   1.000  Na
  Cu1      1.0000 0.50000  0.50000  0.00000  Biso   1.000  Cu
  Cu2      1.0000 0.50000  0.50000  0.50000  Biso   1.000  Cu
  Cu3      1.0000 0.00000  0.00000  0.50000  Biso   1.000  Cu
  Cu4      1.0000 0.00000  0.00000  0.00000  Biso   1.000  Cu
  Cu5      1.0000 0.50000  0.84411  0.75000  Biso   1.000  Cu
  Cu6      1.0000 0.00000  0.34411  0.75000  Biso   1.000  Cu
  Cu7      1.0000 0.50000  0.15589  0.25000  Biso   1.000  Cu
  Cu8      1.0000 0.00000  0.65589  0.25000  Biso   1.000  Cu
  O25      1.0000 0.78007  0.83565  0.32957  Biso   1.000  O
  O26      1.0000 0.21993  0.83565  0.17043  Biso   1.000  O
  O27      1.0000 0.71993  0.33565  0.17043  Biso   1.000  O
  O28      1.0000 0.28007  0.33565  0.32957  Biso   1.000  O
  O29      1.0000 0.21993  0.16435  0.67043  Biso   1.000  O
  O30      1.0000 0.78007  0.16435  0.82957  Biso   1.000  O
  O31      1.0000 0.28007  0.66435  0.82957  Biso   1.000  O
  O32      1.0000 0.71993  0.66435  0.67043  Biso   1.000  O
