data_image0
_cell_length_a       9.3153
_cell_length_b       21.323
_cell_length_c       30.484
_cell_angle_alpha    90
_cell_angle_beta     90
_cell_angle_gamma    90

_symmetry_space_group_name_H-M    "P 1"
_symmetry_int_tables_number       1

loop_
  _symmetry_equiv_pos_as_xyz
  'x, y, z'

loop_
  _atom_site_label
  _atom_site_occupancy
  _atom_site_fract_x
  _atom_site_fract_y
  _atom_site_fract_z
  _atom_site_thermal_displace_type
  _atom_site_B_iso_or_equiv
  _atom_site_type_symbol
  Pr1      1.0000 0.97459  0.89765  0.99516  Biso   1.000  Pr
  Pr2      1.0000 0.52541  0.10235  0.49516  Biso   1.000  Pr
  Pr3      1.0000 0.02541  0.39765  0.50484  Biso   1.000  Pr
  Pr4      1.0000 0.47459  0.60235  0.00484  Biso   1.000  Pr
  Pr5      1.0000 0.50065  0.91276  0.99242  Biso   1.000  Pr
  Pr6      1.0000 0.99935  0.08724  0.49242  Biso   1.000  Pr
  Pr7      1.0000 0.49935  0.41276  0.50758  Biso   1.000  Pr
  Pr8      1.0000 0.00065  0.58724  0.00758  Biso   1.000  Pr
  Cu1      1.0000 0.70914  0.29615  0.24480  Biso   1.000  Cu
  Cu2      1.0000 0.79086  0.70385  0.74480  Biso   1.000  Cu
  Cu3      1.0000 0.29086  0.79615  0.25520  Biso   1.000  Cu
  Cu4      1.0000 0.20914  0.20385  0.75520  Biso   1.000  Cu
  Cu5      1.0000 0.46562  0.37248  0.23607  Biso   1.000  Cu
  Cu6      1.0000 0.03438  0.62752  0.73607  Biso   1.000  Cu
  Cu7      1.0000 0.53438  0.87248  0.26393  Biso   1.000  Cu
  Cu8      1.0000 0.96562  0.12752  0.76393  Biso   1.000  Cu
  Cu9      1.0000 0.73498  0.25167  0.16071  Biso   1.000  Cu
  Cu10     1.0000 0.76502  0.74833  0.66071  Biso   1.000  Cu
  Cu11     1.0000 0.26502  0.75167  0.33929  Biso   1.000  Cu
  Cu12     1.0000 0.23498  0.24833  0.83929  Biso   1.000  Cu
  Cu13     1.0000 0.74640  0.17447  0.22166  Biso   1.000  Cu
  Cu14     1.0000 0.75360  0.82553  0.72166  Biso   1.000  Cu
  Cu15     1.0000 0.25360  0.67447  0.27834  Biso   1.000  Cu
  Cu16     1.0000 0.24640  0.32553  0.77834  Biso   1.000  Cu
  Cu17     1.0000 0.98590  0.08487  0.23221  Biso   1.000  Cu
  Cu18     1.0000 0.51410  0.91513  0.73221  Biso   1.000  Cu
  Cu19     1.0000 0.01410  0.58487  0.26779  Biso   1.000  Cu
  Cu20     1.0000 0.48590  0.41513  0.76779  Biso   1.000  Cu
  I1       1.0000 0.74399  0.41535  0.24301  Biso   1.000  I
  I2       1.0000 0.75601  0.58465  0.74301  Biso   1.000  I
  I3       1.0000 0.25601  0.91535  0.25699  Biso   1.000  I
  I4       1.0000 0.24399  0.08465  0.75699  Biso   1.000  I
  I5       1.0000 0.48306  0.24433  0.20544  Biso   1.000  I
  I6       1.0000 0.01694  0.75567  0.70544  Biso   1.000  I
  I7       1.0000 0.51694  0.74433  0.29456  Biso   1.000  I
  I8       1.0000 0.98306  0.25567  0.79456  Biso   1.000  I
  I9       1.0000 0.97231  0.24264  0.21198  Biso   1.000  I
  I10      1.0000 0.52769  0.75736  0.71198  Biso   1.000  I
  I11      1.0000 0.02769  0.74264  0.28802  Biso   1.000  I
  I12      1.0000 0.47231  0.25736  0.78802  Biso   1.000  I
  I13      1.0000 0.70535  0.06467  0.24046  Biso   1.000  I
  I14      1.0000 0.79465  0.93533  0.74046  Biso   1.000  I
  I15      1.0000 0.29465  0.56467  0.25954  Biso   1.000  I
  I16      1.0000 0.20535  0.43533  0.75954  Biso   1.000  I
  O1       1.0000 0.65340  0.18880  0.46070  Biso   1.000  O
  O2       1.0000 0.84660  0.81120  0.96070  Biso   1.000  O
  O3       1.0000 0.34660  0.68880  0.03930  Biso   1.000  O
  O4       1.0000 0.15340  0.31120  0.53930  Biso   1.000  O
  O5       1.0000 0.89420  0.17990  0.45100  Biso   1.000  O
  O6       1.0000 0.60580  0.82010  0.95100  Biso   1.000  O
  O7       1.0000 0.10580  0.67990  0.04900  Biso   1.000  O
  O8       1.0000 0.39420  0.32010  0.54900  Biso   1.000  O
  O9       1.0000 0.18840  0.13640  0.44720  Biso   1.000  O
  O10      1.0000 0.31160  0.86360  0.94720  Biso   1.000  O
  O11      1.0000 0.81160  0.63640  0.05280  Biso   1.000  O
  O12      1.0000 0.68840  0.36360  0.55280  Biso   1.000  O
  O13      1.0000 0.40560  0.11290  0.42170  Biso   1.000  O
  O14      1.0000 0.09440  0.88710  0.92170  Biso   1.000  O
  O15      1.0000 0.59440  0.61290  0.07830  Biso   1.000  O
  O16      1.0000 0.90560  0.38710  0.57830  Biso   1.000  O
  O17      1.0000 0.38060  0.94950  0.06240  Biso   1.000  O
  O18      1.0000 0.11940  0.05050  0.56240  Biso   1.000  O
  O19      1.0000 0.61940  0.44950  0.43760  Biso   1.000  O
  O20      1.0000 0.88060  0.55050  0.93760  Biso   1.000  O
  O21      1.0000 0.16840  0.90620  0.04970  Biso   1.000  O
  O22      1.0000 0.33160  0.09380  0.54970  Biso   1.000  O
  O23      1.0000 0.83160  0.40620  0.45030  Biso   1.000  O
  O24      1.0000 0.66840  0.59380  0.95030  Biso   1.000  O
  O25      1.0000 0.89570  0.83750  0.06470  Biso   1.000  O
  O26      1.0000 0.60430  0.16250  0.56470  Biso   1.000  O
  O27      1.0000 0.10430  0.33750  0.43530  Biso   1.000  O
  O28      1.0000 0.39570  0.66250  0.93530  Biso   1.000  O
  O29      1.0000 0.68960  0.87300  0.03980  Biso   1.000  O
  O30      1.0000 0.81040  0.12700  0.53980  Biso   1.000  O
  O31      1.0000 0.31040  0.37300  0.46020  Biso   1.000  O
  O32      1.0000 0.18960  0.62700  0.96020  Biso   1.000  O
  O33      1.0000 0.86750  0.98220  0.03750  Biso   1.000  O
  O34      1.0000 0.63250  0.01780  0.53750  Biso   1.000  O
  O35      1.0000 0.13250  0.48220  0.46250  Biso   1.000  O
  O36      1.0000 0.36750  0.51780  0.96250  Biso   1.000  O
  O37      1.0000 0.64020  0.00110  0.01710  Biso   1.000  O
  O38      1.0000 0.85980  0.99890  0.51710  Biso   1.000  O
  O39      1.0000 0.35980  0.50110  0.48290  Biso   1.000  O
  O40      1.0000 0.14020  0.49890  0.98290  Biso   1.000  O
  O41      1.0000 0.83040  0.50810  0.02480  Biso   1.000  O
  O42      1.0000 0.66960  0.49190  0.52480  Biso   1.000  O
  O43      1.0000 0.16960  0.00810  0.47520  Biso   1.000  O
  O44      1.0000 0.33040  0.99190  0.97520  Biso   1.000  O
  O45      1.0000 0.59320  0.50220  0.02290  Biso   1.000  O
  O46      1.0000 0.90680  0.49780  0.52290  Biso   1.000  O
  O47      1.0000 0.40680  0.00220  0.47710  Biso   1.000  O
  O48      1.0000 0.09320  0.99780  0.97710  Biso   1.000  O
  O49      1.0000 0.29720  0.56030  0.05660  Biso   1.000  O
  O50      1.0000 0.20280  0.43970  0.55660  Biso   1.000  O
  O51      1.0000 0.70280  0.06030  0.44340  Biso   1.000  O
  O52      1.0000 0.79720  0.93970  0.94340  Biso   1.000  O
  O53      1.0000 0.07460  0.53980  0.07810  Biso   1.000  O
  O54      1.0000 0.42540  0.46020  0.57810  Biso   1.000  O
  O55      1.0000 0.92540  0.03980  0.42190  Biso   1.000  O
  O56      1.0000 0.57460  0.96020  0.92190  Biso   1.000  O
  O57      1.0000 0.11500  0.79270  0.99600  Biso   1.000  O
  O58      1.0000 0.38500  0.20730  0.49600  Biso   1.000  O
  O59      1.0000 0.88500  0.29270  0.50400  Biso   1.000  O
  O60      1.0000 0.61500  0.70730  0.00400  Biso   1.000  O
  H1       1.0000 0.08070  0.77190  0.97600  Biso   1.000  H
  H2       1.0000 0.41930  0.22810  0.47600  Biso   1.000  H
  H3       1.0000 0.91930  0.27190  0.52400  Biso   1.000  H
  H4       1.0000 0.58070  0.72810  0.02400  Biso   1.000  H
  H5       1.0000 0.17410  0.80110  0.01510  Biso   1.000  H
  H6       1.0000 0.32590  0.19890  0.51510  Biso   1.000  H
  H7       1.0000 0.82590  0.30110  0.48490  Biso   1.000  H
  H8       1.0000 0.67410  0.69890  0.98490  Biso   1.000  H
  O61      1.0000 0.40720  0.81870  0.03610  Biso   1.000  O
  O62      1.0000 0.09280  0.18130  0.53610  Biso   1.000  O
  O63      1.0000 0.59280  0.31870  0.46390  Biso   1.000  O
  O64      1.0000 0.90720  0.68130  0.96390  Biso   1.000  O
  H9       1.0000 0.32300  0.81800  0.02820  Biso   1.000  H
  H10      1.0000 0.17700  0.18200  0.52820  Biso   1.000  H
  H11      1.0000 0.67700  0.31800  0.47180  Biso   1.000  H
  H12      1.0000 0.82300  0.68200  0.97180  Biso   1.000  H
  H13      1.0000 0.45500  0.78650  0.03840  Biso   1.000  H
  H14      1.0000 0.04500  0.21350  0.53840  Biso   1.000  H
  H15      1.0000 0.54500  0.28650  0.46160  Biso   1.000  H
  H16      1.0000 0.95500  0.71350  0.96160  Biso   1.000  H
  N1       1.0000 0.71780  0.26540  0.30860  Biso   1.000  N
  N2       1.0000 0.78220  0.73460  0.80860  Biso   1.000  N
  N3       1.0000 0.28220  0.76540  0.19140  Biso   1.000  N
  N4       1.0000 0.21780  0.23460  0.69140  Biso   1.000  N
  N5       1.0000 0.09130  0.10660  0.28750  Biso   1.000  N
  N6       1.0000 0.40870  0.89340  0.78750  Biso   1.000  N
  N7       1.0000 0.90870  0.60660  0.21250  Biso   1.000  N
  N8       1.0000 0.59130  0.39340  0.71250  Biso   1.000  N
  N9       1.0000 0.06990  0.04160  0.18050  Biso   1.000  N
  N10      1.0000 0.43010  0.95840  0.68050  Biso   1.000  N
  N11      1.0000 0.93010  0.54160  0.31950  Biso   1.000  N
  N12      1.0000 0.56990  0.45840  0.81950  Biso   1.000  N
  N13      1.0000 0.61680  0.86140  0.20340  Biso   1.000  N
  N14      1.0000 0.88320  0.13860  0.70340  Biso   1.000  N
  N15      1.0000 0.38320  0.36140  0.29660  Biso   1.000  N
  N16      1.0000 0.11680  0.63860  0.79660  Biso   1.000  N
  N17      1.0000 0.74320  0.17250  0.12300  Biso   1.000  N
  N18      1.0000 0.75680  0.82750  0.62300  Biso   1.000  N
  N19      1.0000 0.25680  0.67250  0.37700  Biso   1.000  N
  N20      1.0000 0.24320  0.32750  0.87700  Biso   1.000  N
  N21      1.0000 0.72670  0.32570  0.12180  Biso   1.000  N
  N22      1.0000 0.77330  0.67430  0.62180  Biso   1.000  N
  N23      1.0000 0.27330  0.82570  0.37820  Biso   1.000  N
  N24      1.0000 0.22670  0.17430  0.87820  Biso   1.000  N
  N25      1.0000 0.37850  0.42210  0.18740  Biso   1.000  N
  N26      1.0000 0.12150  0.57790  0.68740  Biso   1.000  N
  N27      1.0000 0.62150  0.92210  0.31260  Biso   1.000  N
  N28      1.0000 0.87850  0.07790  0.81260  Biso   1.000  N
  C1       1.0000 0.76820  0.19340  0.43830  Biso   1.000  C
  C2       1.0000 0.73180  0.80660  0.93830  Biso   1.000  C
  C3       1.0000 0.23180  0.69340  0.06170  Biso   1.000  C
  C4       1.0000 0.26820  0.30660  0.56170  Biso   1.000  C
  C5       1.0000 0.75430  0.21970  0.39320  Biso   1.000  C
  C6       1.0000 0.74570  0.78030  0.89320  Biso   1.000  C
  C7       1.0000 0.24570  0.71970  0.10680  Biso   1.000  C
  C8       1.0000 0.25430  0.28030  0.60680  Biso   1.000  C
  C9       1.0000 0.84040  0.26470  0.37700  Biso   1.000  C
  C10      1.0000 0.65960  0.73530  0.87700  Biso   1.000  C
  C11      1.0000 0.15960  0.76470  0.12300  Biso   1.000  C
  C12      1.0000 0.34040  0.23530  0.62300  Biso   1.000  C
  H17      1.0000 0.91400  0.28070  0.39430  Biso   1.000  H
  H18      1.0000 0.58600  0.71930  0.89430  Biso   1.000  H
  H19      1.0000 0.08600  0.78070  0.10570  Biso   1.000  H
  H20      1.0000 0.41400  0.21930  0.60570  Biso   1.000  H
  C13      1.0000 0.82080  0.28790  0.33420  Biso   1.000  C
  C14      1.0000 0.67920  0.71210  0.83420  Biso   1.000  C
  C15      1.0000 0.17920  0.78790  0.16580  Biso   1.000  C
  C16      1.0000 0.32080  0.21210  0.66580  Biso   1.000  C
  H21      1.0000 0.88070  0.31950  0.32380  Biso   1.000  H
  H22      1.0000 0.61930  0.68050  0.82380  Biso   1.000  H
  H23      1.0000 0.11930  0.81950  0.17620  Biso   1.000  H
  H24      1.0000 0.38070  0.18050  0.67620  Biso   1.000  H
  C17      1.0000 0.62820  0.22230  0.32410  Biso   1.000  C
  C18      1.0000 0.87180  0.77770  0.82410  Biso   1.000  C
  C19      1.0000 0.37180  0.72230  0.17590  Biso   1.000  C
  C20      1.0000 0.12820  0.27770  0.67590  Biso   1.000  C
  H25      1.0000 0.55480  0.20690  0.30650  Biso   1.000  H
  H26      1.0000 0.94520  0.79310  0.80650  Biso   1.000  H
  H27      1.0000 0.44520  0.70690  0.19350  Biso   1.000  H
  H28      1.0000 0.05480  0.29310  0.69350  Biso   1.000  H
  C21      1.0000 0.64400  0.20010  0.36660  Biso   1.000  C
  C22      1.0000 0.85600  0.79990  0.86660  Biso   1.000  C
  C23      1.0000 0.35600  0.70010  0.13340  Biso   1.000  C
  C24      1.0000 0.14400  0.29990  0.63340  Biso   1.000  C
  H29      1.0000 0.57820  0.17110  0.37740  Biso   1.000  H
  H30      1.0000 0.92180  0.82890  0.87740  Biso   1.000  H
  H31      1.0000 0.42180  0.67110  0.12260  Biso   1.000  H
  H32      1.0000 0.07820  0.32890  0.62260  Biso   1.000  H
  C25      1.0000 0.27530  0.12310  0.41640  Biso   1.000  C
  C26      1.0000 0.22470  0.87690  0.91640  Biso   1.000  C
  C27      1.0000 0.72470  0.62310  0.08360  Biso   1.000  C
  C28      1.0000 0.77530  0.37690  0.58360  Biso   1.000  C
  C29      1.0000 0.21520  0.11960  0.37010  Biso   1.000  C
  C30      1.0000 0.28480  0.88040  0.87010  Biso   1.000  C
  C31      1.0000 0.78480  0.61960  0.12990  Biso   1.000  C
  C32      1.0000 0.71520  0.38040  0.62990  Biso   1.000  C
  C33      1.0000 0.29340  0.09630  0.33580  Biso   1.000  C
  C34      1.0000 0.20660  0.90370  0.83580  Biso   1.000  C
  C35      1.0000 0.70660  0.59630  0.16420  Biso   1.000  C
  C36      1.0000 0.79340  0.40370  0.66420  Biso   1.000  C
  H33      1.0000 0.38920  0.08520  0.33930  Biso   1.000  H
  H34      1.0000 0.11080  0.91480  0.83930  Biso   1.000  H
  H35      1.0000 0.61080  0.58520  0.16070  Biso   1.000  H
  H36      1.0000 0.88920  0.41480  0.66070  Biso   1.000  H
  C37      1.0000 0.22430  0.08970  0.29510  Biso   1.000  C
  C38      1.0000 0.27570  0.91030  0.79510  Biso   1.000  C
  C39      1.0000 0.77570  0.58970  0.20490  Biso   1.000  C
  C40      1.0000 0.72430  0.41030  0.70490  Biso   1.000  C
  H37      1.0000 0.27620  0.07230  0.27210  Biso   1.000  H
  H38      1.0000 0.22380  0.92770  0.77210  Biso   1.000  H
  H39      1.0000 0.72380  0.57230  0.22790  Biso   1.000  H
  H40      1.0000 0.77620  0.42770  0.72790  Biso   1.000  H
  C41      1.0000 0.01800  0.13080  0.32160  Biso   1.000  C
  C42      1.0000 0.48200  0.86920  0.82160  Biso   1.000  C
  C43      1.0000 0.98200  0.63080  0.17840  Biso   1.000  C
  C44      1.0000 0.51800  0.36920  0.67840  Biso   1.000  C
  H41      1.0000 0.92350  0.14330  0.31700  Biso   1.000  H
  H42      1.0000 0.57650  0.85670  0.81700  Biso   1.000  H
  H43      1.0000 0.07650  0.64330  0.18300  Biso   1.000  H
  H44      1.0000 0.42350  0.35670  0.68300  Biso   1.000  H
  C45      1.0000 0.07450  0.13800  0.36260  Biso   1.000  C
  C46      1.0000 0.42550  0.86200  0.86260  Biso   1.000  C
  C47      1.0000 0.92550  0.63800  0.13740  Biso   1.000  C
  C48      1.0000 0.57450  0.36200  0.63740  Biso   1.000  C
  H45      1.0000 0.01960  0.15490  0.38520  Biso   1.000  H
  H46      1.0000 0.48040  0.84510  0.88520  Biso   1.000  H
  H47      1.0000 0.98040  0.65490  0.11480  Biso   1.000  H
  H48      1.0000 0.51960  0.34510  0.61480  Biso   1.000  H
  C49      1.0000 0.25490  0.94250  0.07100  Biso   1.000  C
  C50      1.0000 0.24510  0.05750  0.57100  Biso   1.000  C
  C51      1.0000 0.74510  0.44250  0.42900  Biso   1.000  C
  C52      1.0000 0.75490  0.55750  0.92900  Biso   1.000  C
  C53      1.0000 0.18730  0.97520  0.11060  Biso   1.000  C
  C54      1.0000 0.31270  0.02480  0.61060  Biso   1.000  C
  C55      1.0000 0.81270  0.47520  0.38940  Biso   1.000  C
  C56      1.0000 0.68730  0.52480  0.88940  Biso   1.000  C
  C57      1.0000 0.05830  0.95900  0.12760  Biso   1.000  C
  C58      1.0000 0.44170  0.04100  0.62760  Biso   1.000  C
  C59      1.0000 0.94170  0.45900  0.37240  Biso   1.000  C
  C60      1.0000 0.55830  0.54100  0.87240  Biso   1.000  C
  H49      1.0000 0.00700  0.92550  0.11580  Biso   1.000  H
  H50      1.0000 0.49300  0.07450  0.61580  Biso   1.000  H
  H51      1.0000 0.99300  0.42550  0.38420  Biso   1.000  H
  H52      1.0000 0.50700  0.57450  0.88420  Biso   1.000  H
  C61      1.0000 0.00400  0.99260  0.16240  Biso   1.000  C
  C62      1.0000 0.49600  0.00740  0.66240  Biso   1.000  C
  C63      1.0000 0.99600  0.49260  0.33760  Biso   1.000  C
  C64      1.0000 0.50400  0.50740  0.83760  Biso   1.000  C
  H53      1.0000 0.91600  0.98030  0.17400  Biso   1.000  H
  H54      1.0000 0.58400  0.01970  0.67400  Biso   1.000  H
  H55      1.0000 0.08400  0.48030  0.32600  Biso   1.000  H
  H56      1.0000 0.41600  0.51970  0.82600  Biso   1.000  H
  C65      1.0000 0.19630  0.05610  0.16440  Biso   1.000  C
  C66      1.0000 0.30370  0.94390  0.66440  Biso   1.000  C
  C67      1.0000 0.80370  0.55610  0.33560  Biso   1.000  C
  C68      1.0000 0.69630  0.44390  0.83560  Biso   1.000  C
  H57      1.0000 0.24640  0.08960  0.17670  Biso   1.000  H
  H58      1.0000 0.25360  0.91040  0.67670  Biso   1.000  H
  H59      1.0000 0.75360  0.58960  0.32330  Biso   1.000  H
  H60      1.0000 0.74640  0.41040  0.82330  Biso   1.000  H
  C69      1.0000 0.25770  0.02390  0.13010  Biso   1.000  C
  C70      1.0000 0.24230  0.97610  0.63010  Biso   1.000  C
  C71      1.0000 0.74230  0.52390  0.36990  Biso   1.000  C
  C72      1.0000 0.75770  0.47610  0.86990  Biso   1.000  C
  H61      1.0000 0.34820  0.03540  0.12010  Biso   1.000  H
  H62      1.0000 0.15180  0.96460  0.62010  Biso   1.000  H
  H63      1.0000 0.65180  0.53540  0.37990  Biso   1.000  H
  H64      1.0000 0.84820  0.46460  0.87990  Biso   1.000  H
  C73      1.0000 0.76850  0.85410  0.07010  Biso   1.000  C
  C74      1.0000 0.73150  0.14590  0.57010  Biso   1.000  C
  C75      1.0000 0.23150  0.35410  0.42990  Biso   1.000  C
  C76      1.0000 0.26850  0.64590  0.92990  Biso   1.000  C
  C77      1.0000 0.71310  0.85360  0.11680  Biso   1.000  C
  C78      1.0000 0.78690  0.14640  0.61680  Biso   1.000  C
  C79      1.0000 0.28690  0.35360  0.38320  Biso   1.000  C
  C80      1.0000 0.21310  0.64640  0.88320  Biso   1.000  C
  C81      1.0000 0.61230  0.89730  0.12840  Biso   1.000  C
  C82      1.0000 0.88770  0.10270  0.62840  Biso   1.000  C
  C83      1.0000 0.38770  0.39730  0.37160  Biso   1.000  C
  C84      1.0000 0.11230  0.60270  0.87160  Biso   1.000  C
  H65      1.0000 0.57410  0.92500  0.10790  Biso   1.000  H
  H66      1.0000 0.92590  0.07500  0.60790  Biso   1.000  H
  H67      1.0000 0.42590  0.42500  0.39210  Biso   1.000  H
  H68      1.0000 0.07410  0.57500  0.89210  Biso   1.000  H
  C85      1.0000 0.56870  0.89860  0.17260  Biso   1.000  C
  C86      1.0000 0.93130  0.10140  0.67260  Biso   1.000  C
  C87      1.0000 0.43130  0.39860  0.32740  Biso   1.000  C
  C88      1.0000 0.06870  0.60140  0.82740  Biso   1.000  C
  H69      1.0000 0.50020  0.92820  0.18060  Biso   1.000  H
  H70      1.0000 0.99980  0.07180  0.68060  Biso   1.000  H
  H71      1.0000 0.49980  0.42820  0.31940  Biso   1.000  H
  H72      1.0000 0.00020  0.57180  0.81940  Biso   1.000  H
  C89      1.0000 0.71140  0.81920  0.19030  Biso   1.000  C
  C90      1.0000 0.78860  0.18080  0.69030  Biso   1.000  C
  C91      1.0000 0.28860  0.31920  0.30970  Biso   1.000  C
  C92      1.0000 0.21140  0.68080  0.80970  Biso   1.000  C
  H73      1.0000 0.74420  0.79060  0.21100  Biso   1.000  H
  H74      1.0000 0.75580  0.20940  0.71100  Biso   1.000  H
  H75      1.0000 0.25580  0.29060  0.28900  Biso   1.000  H
  H76      1.0000 0.24420  0.70940  0.78900  Biso   1.000  H
  C93      1.0000 0.76490  0.81450  0.14850  Biso   1.000  C
  C94      1.0000 0.73510  0.18550  0.64850  Biso   1.000  C
  C95      1.0000 0.23510  0.31450  0.35150  Biso   1.000  C
  C96      1.0000 0.26490  0.68550  0.85150  Biso   1.000  C
  H77      1.0000 0.83530  0.78510  0.14180  Biso   1.000  H
  H78      1.0000 0.66470  0.21490  0.64180  Biso   1.000  H
  H79      1.0000 0.16470  0.28510  0.35820  Biso   1.000  H
  H80      1.0000 0.33530  0.71490  0.85820  Biso   1.000  H
  C97      1.0000 0.75260  0.01260  0.03840  Biso   1.000  C
  C98      1.0000 0.74740  0.98740  0.53840  Biso   1.000  C
  C99      1.0000 0.24740  0.51260  0.46160  Biso   1.000  C
  C100     1.0000 0.25260  0.48740  0.96160  Biso   1.000  C
  C101     1.0000 0.75130  0.06900  0.06780  Biso   1.000  C
  C102     1.0000 0.74870  0.93100  0.56780  Biso   1.000  C
  C103     1.0000 0.24870  0.56900  0.43220  Biso   1.000  C
  C104     1.0000 0.25130  0.43100  0.93220  Biso   1.000  C
  C105     1.0000 0.62170  0.09560  0.08010  Biso   1.000  C
  C106     1.0000 0.87830  0.90440  0.58010  Biso   1.000  C
  C107     1.0000 0.37830  0.59560  0.41990  Biso   1.000  C
  C108     1.0000 0.12170  0.40440  0.91990  Biso   1.000  C
  H81      1.0000 0.53540  0.07890  0.07020  Biso   1.000  H
  H82      1.0000 0.96460  0.92110  0.57020  Biso   1.000  H
  H83      1.0000 0.46460  0.57890  0.42980  Biso   1.000  H
  H84      1.0000 0.03540  0.42110  0.92980  Biso   1.000  H
  C109     1.0000 0.62280  0.14720  0.10730  Biso   1.000  C
  C110     1.0000 0.87720  0.85280  0.60730  Biso   1.000  C
  C111     1.0000 0.37720  0.64720  0.39270  Biso   1.000  C
  C112     1.0000 0.12280  0.35280  0.89270  Biso   1.000  C
  H85      1.0000 0.53550  0.16530  0.11510  Biso   1.000  H
  H86      1.0000 0.96450  0.83470  0.61510  Biso   1.000  H
  H87      1.0000 0.46450  0.66530  0.38490  Biso   1.000  H
  H88      1.0000 0.03550  0.33470  0.88490  Biso   1.000  H
  C113     1.0000 0.86440  0.14610  0.11130  Biso   1.000  C
  C114     1.0000 0.63560  0.85390  0.61130  Biso   1.000  C
  C115     1.0000 0.13560  0.64610  0.38870  Biso   1.000  C
  C116     1.0000 0.36440  0.35390  0.88870  Biso   1.000  C
  H89      1.0000 0.94930  0.16240  0.12260  Biso   1.000  H
  H90      1.0000 0.55070  0.83760  0.62260  Biso   1.000  H
  H91      1.0000 0.05070  0.66240  0.37740  Biso   1.000  H
  H92      1.0000 0.44930  0.33760  0.87740  Biso   1.000  H
  C117     1.0000 0.87340  0.09560  0.08320  Biso   1.000  C
  C118     1.0000 0.62660  0.90440  0.58320  Biso   1.000  C
  C119     1.0000 0.12660  0.59560  0.41680  Biso   1.000  C
  C120     1.0000 0.37340  0.40440  0.91680  Biso   1.000  C
  H93      1.0000 0.96250  0.07990  0.07500  Biso   1.000  H
  H94      1.0000 0.53750  0.92010  0.57500  Biso   1.000  H
  H95      1.0000 0.03750  0.57990  0.42500  Biso   1.000  H
  H96      1.0000 0.46250  0.42010  0.92500  Biso   1.000  H
  C121     1.0000 0.71170  0.48300  0.03420  Biso   1.000  C
  C122     1.0000 0.78830  0.51700  0.53420  Biso   1.000  C
  C123     1.0000 0.28830  0.98300  0.46580  Biso   1.000  C
  C124     1.0000 0.21170  0.01700  0.96580  Biso   1.000  C
  C125     1.0000 0.71750  0.42670  0.06410  Biso   1.000  C
  C126     1.0000 0.78250  0.57330  0.56410  Biso   1.000  C
  C127     1.0000 0.28250  0.92670  0.43590  Biso   1.000  C
  C128     1.0000 0.21750  0.07330  0.93590  Biso   1.000  C
  C129     1.0000 0.61300  0.38270  0.06480  Biso   1.000  C
  C130     1.0000 0.88700  0.61730  0.56480  Biso   1.000  C
  C131     1.0000 0.38700  0.88270  0.43520  Biso   1.000  C
  C132     1.0000 0.11300  0.11730  0.93520  Biso   1.000  C
  H97      1.0000 0.53570  0.38600  0.04570  Biso   1.000  H
  H98      1.0000 0.96430  0.61400  0.54570  Biso   1.000  H
  H99      1.0000 0.46430  0.88600  0.45430  Biso   1.000  H
  H100     1.0000 0.03570  0.11400  0.95430  Biso   1.000  H
  C133     1.0000 0.83060  0.41890  0.09290  Biso   1.000  C
  C134     1.0000 0.66940  0.58110  0.59290  Biso   1.000  C
  C135     1.0000 0.16940  0.91890  0.40710  Biso   1.000  C
  C136     1.0000 0.33060  0.08110  0.90710  Biso   1.000  C
  H101     1.0000 0.90710  0.44690  0.09300  Biso   1.000  H
  H102     1.0000 0.59290  0.55310  0.59300  Biso   1.000  H
  H103     1.0000 0.09290  0.94690  0.40700  Biso   1.000  H
  H104     1.0000 0.40710  0.05310  0.90700  Biso   1.000  H
  C137     1.0000 0.82810  0.37030  0.12080  Biso   1.000  C
  C138     1.0000 0.67190  0.62970  0.62080  Biso   1.000  C
  C139     1.0000 0.17190  0.87030  0.37920  Biso   1.000  C
  C140     1.0000 0.32810  0.12970  0.87920  Biso   1.000  C
  H105     1.0000 0.90250  0.36730  0.14100  Biso   1.000  H
  H106     1.0000 0.59750  0.63270  0.64100  Biso   1.000  H
  H107     1.0000 0.09750  0.86730  0.35900  Biso   1.000  H
  H108     1.0000 0.40250  0.13270  0.85900  Biso   1.000  H
  C141     1.0000 0.61990  0.33350  0.09350  Biso   1.000  C
  C142     1.0000 0.88010  0.66650  0.59350  Biso   1.000  C
  C143     1.0000 0.38010  0.83350  0.40650  Biso   1.000  C
  C144     1.0000 0.11990  0.16650  0.90650  Biso   1.000  C
  H109     1.0000 0.54620  0.30410  0.09310  Biso   1.000  H
  H110     1.0000 0.95380  0.69590  0.59310  Biso   1.000  H
  H111     1.0000 0.45380  0.80410  0.40690  Biso   1.000  H
  H112     1.0000 0.04620  0.19590  0.90690  Biso   1.000  H
  C145     1.0000 0.20550  0.53460  0.08310  Biso   1.000  C
  C146     1.0000 0.29450  0.46540  0.58310  Biso   1.000  C
  C147     1.0000 0.79450  0.03460  0.41690  Biso   1.000  C
  C148     1.0000 0.70550  0.96540  0.91690  Biso   1.000  C
  C149     1.0000 0.26780  0.49630  0.12000  Biso   1.000  C
  C150     1.0000 0.23220  0.50370  0.62000  Biso   1.000  C
  C151     1.0000 0.73220  0.99630  0.38000  Biso   1.000  C
  C152     1.0000 0.76780  0.00370  0.88000  Biso   1.000  C
  C153     1.0000 0.41290  0.48860  0.12420  Biso   1.000  C
  C154     1.0000 0.08710  0.51140  0.62420  Biso   1.000  C
  C155     1.0000 0.58710  0.98860  0.37580  Biso   1.000  C
  C156     1.0000 0.91290  0.01140  0.87580  Biso   1.000  C
  H113     1.0000 0.47560  0.50870  0.10500  Biso   1.000  H
  H114     1.0000 0.02440  0.49130  0.60500  Biso   1.000  H
  H115     1.0000 0.52440  0.00870  0.39500  Biso   1.000  H
  H116     1.0000 0.97560  0.99130  0.89500  Biso   1.000  H
  C157     1.0000 0.46470  0.45090  0.15710  Biso   1.000  C
  C158     1.0000 0.03530  0.54910  0.65710  Biso   1.000  C
  C159     1.0000 0.53530  0.95090  0.34290  Biso   1.000  C
  C160     1.0000 0.96470  0.04910  0.84290  Biso   1.000  C
  H117     1.0000 0.56330  0.44450  0.15890  Biso   1.000  H
  H118     1.0000 0.93670  0.55550  0.65890  Biso   1.000  H
  H119     1.0000 0.43670  0.94450  0.34110  Biso   1.000  H
  H120     1.0000 0.06330  0.05550  0.84110  Biso   1.000  H
  C161     1.0000 0.17940  0.46990  0.14970  Biso   1.000  C
  C162     1.0000 0.32060  0.53010  0.64970  Biso   1.000  C
  C163     1.0000 0.82060  0.96990  0.35030  Biso   1.000  C
  C164     1.0000 0.67940  0.03010  0.85030  Biso   1.000  C
  H121     1.0000 0.08060  0.47600  0.14850  Biso   1.000  H
  H122     1.0000 0.41940  0.52400  0.64850  Biso   1.000  H
  H123     1.0000 0.91940  0.97600  0.35150  Biso   1.000  H
  H124     1.0000 0.58060  0.02400  0.85150  Biso   1.000  H
  C165     1.0000 0.24070  0.43330  0.18210  Biso   1.000  C
  C166     1.0000 0.25930  0.56670  0.68210  Biso   1.000  C
  C167     1.0000 0.75930  0.93330  0.31790  Biso   1.000  C
  C168     1.0000 0.74070  0.06670  0.81790  Biso   1.000  C
  H125     1.0000 0.17850  0.41480  0.20220  Biso   1.000  H
  H126     1.0000 0.32150  0.58520  0.70220  Biso   1.000  H
  H127     1.0000 0.82150  0.91480  0.29780  Biso   1.000  H
  H128     1.0000 0.67850  0.08520  0.79780  Biso   1.000  H
  C169     1.0000 0.25400  0.29330  0.04660  Biso   1.000  C
  C170     1.0000 0.24600  0.70670  0.54660  Biso   1.000  C
  C171     1.0000 0.74600  0.79330  0.45340  Biso   1.000  C
  C172     1.0000 0.75400  0.20670  0.95340  Biso   1.000  C
  C173     1.0000 0.21800  0.25050  0.07910  Biso   1.000  C
  C174     1.0000 0.28200  0.74950  0.57910  Biso   1.000  C
  C175     1.0000 0.78200  0.75050  0.42090  Biso   1.000  C
  C176     1.0000 0.71800  0.24950  0.92090  Biso   1.000  C
  H129     1.0000 0.17460  0.26430  0.10490  Biso   1.000  H
  H130     1.0000 0.32540  0.73570  0.60490  Biso   1.000  H
  H131     1.0000 0.82540  0.76430  0.39510  Biso   1.000  H
  H132     1.0000 0.67460  0.23570  0.89510  Biso   1.000  H
  C177     1.0000 0.24500  0.18700  0.07310  Biso   1.000  C
  C178     1.0000 0.25500  0.81300  0.57310  Biso   1.000  C
  C179     1.0000 0.75500  0.68700  0.42690  Biso   1.000  C
  C180     1.0000 0.74500  0.31300  0.92690  Biso   1.000  C
  H133     1.0000 0.22120  0.15840  0.09490  Biso   1.000  H
  H134     1.0000 0.27880  0.84160  0.59490  Biso   1.000  H
  H135     1.0000 0.77880  0.65840  0.40510  Biso   1.000  H
  H136     1.0000 0.72120  0.34160  0.90510  Biso   1.000  H
  C181     1.0000 0.31000  0.16640  0.03460  Biso   1.000  C
  C182     1.0000 0.19000  0.83360  0.53460  Biso   1.000  C
  C183     1.0000 0.69000  0.66640  0.46540  Biso   1.000  C
  C184     1.0000 0.81000  0.33360  0.96540  Biso   1.000  C
  H137     1.0000 0.32820  0.12400  0.03050  Biso   1.000  H
  H138     1.0000 0.17180  0.87600  0.53050  Biso   1.000  H
  H139     1.0000 0.67180  0.62400  0.46950  Biso   1.000  H
  H140     1.0000 0.82820  0.37600  0.96950  Biso   1.000  H
  C185     1.0000 0.34600  0.20930  0.00200  Biso   1.000  C
  C186     1.0000 0.15400  0.79070  0.50200  Biso   1.000  C
  C187     1.0000 0.65400  0.70930  0.49800  Biso   1.000  C
  C188     1.0000 0.84600  0.29070  0.99800  Biso   1.000  C
  H141     1.0000 0.38870  0.19550  0.97620  Biso   1.000  H
  H142     1.0000 0.11130  0.80450  0.47620  Biso   1.000  H
  H143     1.0000 0.61130  0.69550  0.52380  Biso   1.000  H
  H144     1.0000 0.88870  0.30450  0.02380  Biso   1.000  H
  C189     1.0000 0.31800  0.27270  0.00800  Biso   1.000  C
  C190     1.0000 0.18200  0.72730  0.50800  Biso   1.000  C
  C191     1.0000 0.68200  0.77270  0.49200  Biso   1.000  C
  C192     1.0000 0.81800  0.22730  0.99200  Biso   1.000  C
  H145     1.0000 0.34210  0.30140  0.98630  Biso   1.000  H
  H146     1.0000 0.15790  0.69860  0.48630  Biso   1.000  H
  H147     1.0000 0.65790  0.80140  0.51370  Biso   1.000  H
  H148     1.0000 0.84210  0.19860  0.01370  Biso   1.000  H
  C193     1.0000 0.19600  0.35270  0.05570  Biso   1.000  C
  C194     1.0000 0.30400  0.64730  0.55570  Biso   1.000  C
  C195     1.0000 0.80400  0.85270  0.44430  Biso   1.000  C
  C196     1.0000 0.69600  0.14730  0.94430  Biso   1.000  C
  H149     1.0000 0.17530  0.35580  0.08640  Biso   1.000  H
  H150     1.0000 0.32470  0.64420  0.58640  Biso   1.000  H
  H151     1.0000 0.82470  0.85580  0.41360  Biso   1.000  H
  H152     1.0000 0.67530  0.14420  0.91360  Biso   1.000  H
  H153     1.0000 0.10990  0.35860  0.03910  Biso   1.000  H
  H154     1.0000 0.39010  0.64140  0.53910  Biso   1.000  H
  H155     1.0000 0.89010  0.85860  0.46090  Biso   1.000  H
  H156     1.0000 0.60990  0.14140  0.96090  Biso   1.000  H
  H157     1.0000 0.26490  0.38440  0.04780  Biso   1.000  H
  H158     1.0000 0.23510  0.61560  0.54780  Biso   1.000  H
  H159     1.0000 0.73510  0.88440  0.45220  Biso   1.000  H
  H160     1.0000 0.76490  0.11560  0.95220  Biso   1.000  H
  C197     1.0000 0.29900  0.24800  0.02050  Biso   1.000  C
  C198     1.0000 0.20100  0.75200  0.52050  Biso   1.000  C
  C199     1.0000 0.70100  0.74800  0.47950  Biso   1.000  C
  C200     1.0000 0.79900  0.25200  0.97950  Biso   1.000  C
  C201     1.0000 0.28100  0.20570  0.05480  Biso   1.000  C
  C202     1.0000 0.21900  0.79430  0.55480  Biso   1.000  C
  C203     1.0000 0.71900  0.70570  0.44520  Biso   1.000  C
  C204     1.0000 0.78100  0.29430  0.94520  Biso   1.000  C
  H161     1.0000 0.30040  0.16330  0.05050  Biso   1.000  H
  H162     1.0000 0.19960  0.83670  0.55050  Biso   1.000  H
  H163     1.0000 0.69960  0.66330  0.44950  Biso   1.000  H
  H164     1.0000 0.80040  0.33670  0.94950  Biso   1.000  H
  C205     1.0000 0.23500  0.22700  0.09560  Biso   1.000  C
  C206     1.0000 0.26500  0.77300  0.59560  Biso   1.000  C
  C207     1.0000 0.76500  0.72700  0.40440  Biso   1.000  C
  C208     1.0000 0.73500  0.27300  0.90440  Biso   1.000  C
  H165     1.0000 0.22390  0.19860  0.11860  Biso   1.000  H
  H166     1.0000 0.27610  0.80140  0.61860  Biso   1.000  H
  H167     1.0000 0.77610  0.69860  0.38140  Biso   1.000  H
  H168     1.0000 0.72390  0.30140  0.88140  Biso   1.000  H
  C209     1.0000 0.20700  0.29000  0.10210  Biso   1.000  C
  C210     1.0000 0.29300  0.71000  0.60210  Biso   1.000  C
  C211     1.0000 0.79300  0.79000  0.39790  Biso   1.000  C
  C212     1.0000 0.70700  0.21000  0.89790  Biso   1.000  C
  H169     1.0000 0.17620  0.30430  0.12940  Biso   1.000  H
  H170     1.0000 0.32380  0.69570  0.62940  Biso   1.000  H
  H171     1.0000 0.82380  0.80430  0.37060  Biso   1.000  H
  H172     1.0000 0.67620  0.19570  0.87060  Biso   1.000  H
  C213     1.0000 0.22400  0.33230  0.06770  Biso   1.000  C
  C214     1.0000 0.27600  0.66770  0.56770  Biso   1.000  C
  C215     1.0000 0.77600  0.83230  0.43230  Biso   1.000  C
  C216     1.0000 0.72400  0.16770  0.93230  Biso   1.000  C
  H173     1.0000 0.20500  0.37470  0.07210  Biso   1.000  H
  H174     1.0000 0.29500  0.62530  0.57210  Biso   1.000  H
  H175     1.0000 0.79500  0.87470  0.42790  Biso   1.000  H
  H176     1.0000 0.70500  0.12530  0.92790  Biso   1.000  H
  C217     1.0000 0.27000  0.31100  0.02690  Biso   1.000  C
  C218     1.0000 0.23000  0.68900  0.52690  Biso   1.000  C
  C219     1.0000 0.73000  0.81100  0.47310  Biso   1.000  C
  C220     1.0000 0.77000  0.18900  0.97310  Biso   1.000  C
  H177     1.0000 0.28150  0.33950  0.00400  Biso   1.000  H
  H178     1.0000 0.21850  0.66050  0.50400  Biso   1.000  H
  H179     1.0000 0.71850  0.83950  0.49600  Biso   1.000  H
  H180     1.0000 0.78150  0.16050  0.99600  Biso   1.000  H
  C221     1.0000 0.39500  0.22600  0.98920  Biso   1.000  C
  C222     1.0000 0.10500  0.77400  0.48920  Biso   1.000  C
  C223     1.0000 0.60500  0.72600  0.51080  Biso   1.000  C
  C224     1.0000 0.89500  0.27400  0.01080  Biso   1.000  C
  H181     1.0000 0.40830  0.18140  0.99320  Biso   1.000  H
  H182     1.0000 0.09170  0.81860  0.49320  Biso   1.000  H
  H183     1.0000 0.59170  0.68140  0.50680  Biso   1.000  H
  H184     1.0000 0.90830  0.31860  0.00680  Biso   1.000  H
  H185     1.0000 0.48540  0.24670  0.99260  Biso   1.000  H
  H186     1.0000 0.01460  0.75330  0.49260  Biso   1.000  H
  H187     1.0000 0.51460  0.74670  0.50740  Biso   1.000  H
  H188     1.0000 0.98540  0.25330  0.00740  Biso   1.000  H
  H189     1.0000 0.35780  0.23360  0.96040  Biso   1.000  H
  H190     1.0000 0.14220  0.76640  0.46040  Biso   1.000  H
  H191     1.0000 0.64220  0.73360  0.53960  Biso   1.000  H
  H192     1.0000 0.85780  0.26640  0.03960  Biso   1.000  H
