data_image0
_cell_length_a       9.41
_cell_length_b       13.73
_cell_length_c       5.85
_cell_angle_alpha    90
_cell_angle_beta     90
_cell_angle_gamma    90

_symmetry_space_group_name_H-M    "P 1"
_symmetry_int_tables_number       1

loop_
  _symmetry_equiv_pos_as_xyz
  'x, y, z'

loop_
  _atom_site_label
  _atom_site_occupancy
  _atom_site_fract_x
  _atom_site_fract_y
  _atom_site_fract_z
  _atom_site_thermal_displace_type
  _atom_site_B_iso_or_equiv
  _atom_site_type_symbol
  Cu1      1.0000 0.00000  0.00000  0.00000  Biso   1.000  Cu
  Cu2      1.0000 0.50000  0.50000  0.50000  Biso   1.000  Cu
  N1       1.0000 0.12900  0.07600  0.20000  Biso   1.000  N
  N2       1.0000 0.87100  0.92400  0.20000  Biso   1.000  N
  N3       1.0000 0.37100  0.42400  0.30000  Biso   1.000  N
  N4       1.0000 0.62900  0.57600  0.30000  Biso   1.000  N
  N5       1.0000 0.12900  0.92400  0.80000  Biso   1.000  N
  N6       1.0000 0.87100  0.07600  0.80000  Biso   1.000  N
  N7       1.0000 0.37100  0.57600  0.70000  Biso   1.000  N
  N8       1.0000 0.62900  0.42400  0.70000  Biso   1.000  N
  C1       1.0000 0.19400  0.11000  0.34100  Biso   1.000  C
  C2       1.0000 0.80600  0.89000  0.34100  Biso   1.000  C
  C3       1.0000 0.30600  0.39000  0.15900  Biso   1.000  C
  C4       1.0000 0.69400  0.61000  0.15900  Biso   1.000  C
  C5       1.0000 0.19400  0.89000  0.65900  Biso   1.000  C
  C6       1.0000 0.80600  0.11000  0.65900  Biso   1.000  C
  C7       1.0000 0.30600  0.61000  0.84100  Biso   1.000  C
  C8       1.0000 0.69400  0.39000  0.84100  Biso   1.000  C
  C9       1.0000 0.29200  0.16400  0.50900  Biso   1.000  C
  C10      1.0000 0.70800  0.83600  0.50900  Biso   1.000  C
  C11      1.0000 0.20800  0.33600  0.99100  Biso   1.000  C
  C12      1.0000 0.79200  0.66400  0.99100  Biso   1.000  C
  C13      1.0000 0.29200  0.83600  0.49100  Biso   1.000  C
  C14      1.0000 0.70800  0.16400  0.49100  Biso   1.000  C
  C15      1.0000 0.20800  0.66400  0.00900  Biso   1.000  C
  C16      1.0000 0.79200  0.33600  0.00900  Biso   1.000  C
  C17      1.0000 0.20100  0.22300  0.66700  Biso   1.000  C
  C18      1.0000 0.79900  0.77700  0.66700  Biso   1.000  C
  C19      1.0000 0.29900  0.27700  0.83300  Biso   1.000  C
  C20      1.0000 0.70100  0.72300  0.83300  Biso   1.000  C
  C21      1.0000 0.20100  0.77700  0.33300  Biso   1.000  C
  C22      1.0000 0.79900  0.22300  0.33300  Biso   1.000  C
  C23      1.0000 0.29900  0.72300  0.16700  Biso   1.000  C
  C24      1.0000 0.70100  0.27700  0.16700  Biso   1.000  C
