data_image0
_cell_length_a       9.2472
_cell_length_b       21.2695
_cell_length_c       30.2936
_cell_angle_alpha    90
_cell_angle_beta     90
_cell_angle_gamma    90

_symmetry_space_group_name_H-M    "P 1"
_symmetry_int_tables_number       1

loop_
  _symmetry_equiv_pos_as_xyz
  'x, y, z'

loop_
  _atom_site_label
  _atom_site_occupancy
  _atom_site_fract_x
  _atom_site_fract_y
  _atom_site_fract_z
  _atom_site_thermal_displace_type
  _atom_site_B_iso_or_equiv
  _atom_site_type_symbol
  C1       1.0000 0.70700  0.22120  0.51450  Biso   1.000  C
  C2       1.0000 0.79300  0.77880  0.01450  Biso   1.000  C
  C3       1.0000 0.29300  0.72120  0.98550  Biso   1.000  C
  C4       1.0000 0.20700  0.27880  0.48550  Biso   1.000  C
  H1       1.0000 0.67460  0.19830  0.49020  Biso   1.000  H
  H2       1.0000 0.82540  0.80170  0.99020  Biso   1.000  H
  H3       1.0000 0.32540  0.69830  0.00980  Biso   1.000  H
  H4       1.0000 0.17460  0.30170  0.50980  Biso   1.000  H
  C5       1.0000 0.73300  0.28520  0.51050  Biso   1.000  C
  C6       1.0000 0.76700  0.71480  0.01050  Biso   1.000  C
  C7       1.0000 0.26700  0.78520  0.98950  Biso   1.000  C
  C8       1.0000 0.23300  0.21480  0.48950  Biso   1.000  C
  H5       1.0000 0.71930  0.30520  0.48350  Biso   1.000  H
  H6       1.0000 0.78070  0.69480  0.98350  Biso   1.000  H
  H7       1.0000 0.28070  0.80520  0.01650  Biso   1.000  H
  H8       1.0000 0.21930  0.19480  0.51650  Biso   1.000  H
  C9       1.0000 0.78100  0.31940  0.54680  Biso   1.000  C
  C10      1.0000 0.71900  0.68060  0.04680  Biso   1.000  C
  C11      1.0000 0.21900  0.81940  0.95320  Biso   1.000  C
  C12      1.0000 0.28100  0.18060  0.45320  Biso   1.000  C
  H9       1.0000 0.79900  0.36230  0.54410  Biso   1.000  H
  H10      1.0000 0.70100  0.63770  0.04410  Biso   1.000  H
  H11      1.0000 0.20100  0.86230  0.95590  Biso   1.000  H
  H12      1.0000 0.29900  0.13770  0.45590  Biso   1.000  H
  C13      1.0000 0.80200  0.28950  0.58710  Biso   1.000  C
  C14      1.0000 0.69800  0.71050  0.08710  Biso   1.000  C
  C15      1.0000 0.19800  0.78950  0.91290  Biso   1.000  C
  C16      1.0000 0.30200  0.21050  0.41290  Biso   1.000  C
  H13      1.0000 0.83420  0.31240  0.61140  Biso   1.000  H
  H14      1.0000 0.66580  0.68760  0.11140  Biso   1.000  H
  H15      1.0000 0.16580  0.81240  0.88860  Biso   1.000  H
  H16      1.0000 0.33420  0.18760  0.38860  Biso   1.000  H
  C17      1.0000 0.77500  0.22550  0.59110  Biso   1.000  C
  C18      1.0000 0.72500  0.77450  0.09110  Biso   1.000  C
  C19      1.0000 0.22500  0.72550  0.90890  Biso   1.000  C
  C20      1.0000 0.27500  0.27450  0.40890  Biso   1.000  C
  H17      1.0000 0.78950  0.20550  0.61810  Biso   1.000  H
  H18      1.0000 0.71050  0.79450  0.11810  Biso   1.000  H
  H19      1.0000 0.21050  0.70550  0.88190  Biso   1.000  H
  H20      1.0000 0.28950  0.29450  0.38190  Biso   1.000  H
  C21      1.0000 0.72800  0.19130  0.55480  Biso   1.000  C
  C22      1.0000 0.77200  0.80870  0.05480  Biso   1.000  C
  C23      1.0000 0.27200  0.69130  0.94520  Biso   1.000  C
  C24      1.0000 0.22800  0.30870  0.44520  Biso   1.000  C
  H21      1.0000 0.70980  0.14840  0.55750  Biso   1.000  H
  H22      1.0000 0.79020  0.85160  0.05750  Biso   1.000  H
  H23      1.0000 0.29020  0.64840  0.94250  Biso   1.000  H
  H24      1.0000 0.20980  0.35160  0.44250  Biso   1.000  H
  Pr1      1.0000 0.99822  0.08849  0.99191  Biso   1.000  Pr
  Pr2      1.0000 0.50178  0.91151  0.49191  Biso   1.000  Pr
  Pr3      1.0000 0.00178  0.58849  0.50809  Biso   1.000  Pr
  Pr4      1.0000 0.49822  0.41151  0.00809  Biso   1.000  Pr
  Pr5      1.0000 0.47046  0.10347  0.99573  Biso   1.000  Pr
  Pr6      1.0000 0.02954  0.89653  0.49573  Biso   1.000  Pr
  Pr7      1.0000 0.52954  0.60347  0.50427  Biso   1.000  Pr
  Pr8      1.0000 0.97046  0.39653  0.00427  Biso   1.000  Pr
  Cu1      1.0000 0.52720  0.37132  0.73496  Biso   1.000  Cu
  Cu2      1.0000 0.97280  0.62868  0.23496  Biso   1.000  Cu
  Cu3      1.0000 0.47280  0.87132  0.76504  Biso   1.000  Cu
  Cu4      1.0000 0.02720  0.12868  0.26504  Biso   1.000  Cu
  Cu5      1.0000 0.28840  0.29592  0.74279  Biso   1.000  Cu
  Cu6      1.0000 0.21160  0.70408  0.24279  Biso   1.000  Cu
  Cu7      1.0000 0.71160  0.79592  0.75721  Biso   1.000  Cu
  Cu8      1.0000 0.78840  0.20408  0.25721  Biso   1.000  Cu
  Cu9      1.0000 0.26640  0.25131  0.66066  Biso   1.000  Cu
  Cu10     1.0000 0.23360  0.74869  0.16066  Biso   1.000  Cu
  Cu11     1.0000 0.73360  0.75131  0.83934  Biso   1.000  Cu
  Cu12     1.0000 0.76640  0.24869  0.33934  Biso   1.000  Cu
  Cu13     1.0000 0.25520  0.17355  0.72140  Biso   1.000  Cu
  Cu14     1.0000 0.24480  0.82645  0.22140  Biso   1.000  Cu
  Cu15     1.0000 0.74480  0.67355  0.77860  Biso   1.000  Cu
  Cu16     1.0000 0.75520  0.32645  0.27860  Biso   1.000  Cu
  Cu17     1.0000 0.02310  0.08646  0.73209  Biso   1.000  Cu
  Cu18     1.0000 0.47690  0.91354  0.23209  Biso   1.000  Cu
  Cu19     1.0000 0.97690  0.58646  0.76791  Biso   1.000  Cu
  Cu20     1.0000 0.52310  0.41354  0.26791  Biso   1.000  Cu
  I1       1.0000 0.51778  0.24401  0.70486  Biso   1.000  I
  I2       1.0000 0.98222  0.75599  0.20486  Biso   1.000  I
  I3       1.0000 0.48222  0.74401  0.79514  Biso   1.000  I
  I4       1.0000 0.01778  0.25599  0.29514  Biso   1.000  I
  I5       1.0000 0.25049  0.41557  0.74129  Biso   1.000  I
  I6       1.0000 0.24951  0.58443  0.24129  Biso   1.000  I
  I7       1.0000 0.74951  0.91557  0.75871  Biso   1.000  I
  I8       1.0000 0.75049  0.08443  0.25871  Biso   1.000  I
  I9       1.0000 0.02687  0.24239  0.71046  Biso   1.000  I
  I10      1.0000 0.47313  0.75761  0.21046  Biso   1.000  I
  I11      1.0000 0.97313  0.74239  0.78954  Biso   1.000  I
  I12      1.0000 0.52687  0.25761  0.28954  Biso   1.000  I
  I13      1.0000 0.30219  0.06390  0.74185  Biso   1.000  I
  I14      1.0000 0.19781  0.93610  0.24185  Biso   1.000  I
  I15      1.0000 0.69781  0.56390  0.75815  Biso   1.000  I
  I16      1.0000 0.80219  0.43610  0.25815  Biso   1.000  I
  C25      1.0000 0.72670  0.12500  0.91600  Biso   1.000  C
  C26      1.0000 0.77330  0.87500  0.41600  Biso   1.000  C
  C27      1.0000 0.27330  0.62500  0.58400  Biso   1.000  C
  C28      1.0000 0.22670  0.37500  0.08400  Biso   1.000  C
  C29      1.0000 0.78590  0.12170  0.86910  Biso   1.000  C
  C30      1.0000 0.71410  0.87830  0.36910  Biso   1.000  C
  C31      1.0000 0.21410  0.62170  0.63090  Biso   1.000  C
  C32      1.0000 0.28590  0.37830  0.13090  Biso   1.000  C
  C33      1.0000 0.92570  0.14180  0.86220  Biso   1.000  C
  C34      1.0000 0.57430  0.85820  0.36220  Biso   1.000  C
  C35      1.0000 0.07430  0.64180  0.63780  Biso   1.000  C
  C36      1.0000 0.42570  0.35820  0.13780  Biso   1.000  C
  H25      1.0000 0.97880  0.16080  0.88460  Biso   1.000  H
  H26      1.0000 0.52120  0.83920  0.38460  Biso   1.000  H
  H27      1.0000 0.02120  0.66080  0.61540  Biso   1.000  H
  H28      1.0000 0.47880  0.33920  0.11540  Biso   1.000  H
  C37      1.0000 0.98400  0.13260  0.82040  Biso   1.000  C
  C38      1.0000 0.51600  0.86740  0.32040  Biso   1.000  C
  C39      1.0000 0.01600  0.63260  0.67960  Biso   1.000  C
  C40      1.0000 0.48400  0.36740  0.17960  Biso   1.000  C
  H29      1.0000 0.07820  0.14670  0.81570  Biso   1.000  H
  H30      1.0000 0.42180  0.85330  0.31570  Biso   1.000  H
  H31      1.0000 0.92180  0.64670  0.68430  Biso   1.000  H
  H32      1.0000 0.57820  0.35330  0.18430  Biso   1.000  H
  C41      1.0000 0.77500  0.09170  0.79440  Biso   1.000  C
  C42      1.0000 0.72500  0.90830  0.29440  Biso   1.000  C
  C43      1.0000 0.22500  0.59170  0.70560  Biso   1.000  C
  C44      1.0000 0.27500  0.40830  0.20560  Biso   1.000  C
  H33      1.0000 0.72120  0.07780  0.77040  Biso   1.000  H
  H34      1.0000 0.77880  0.92220  0.27040  Biso   1.000  H
  H35      1.0000 0.27880  0.57780  0.72960  Biso   1.000  H
  H36      1.0000 0.22120  0.42220  0.22960  Biso   1.000  H
  C45      1.0000 0.70600  0.09690  0.83460  Biso   1.000  C
  C46      1.0000 0.79400  0.90310  0.33460  Biso   1.000  C
  C47      1.0000 0.29400  0.59690  0.66540  Biso   1.000  C
  C48      1.0000 0.20600  0.40310  0.16540  Biso   1.000  C
  H37      1.0000 0.61100  0.08430  0.83840  Biso   1.000  H
  H38      1.0000 0.88900  0.91570  0.33840  Biso   1.000  H
  H39      1.0000 0.38900  0.58430  0.66160  Biso   1.000  H
  H40      1.0000 0.11100  0.41570  0.16160  Biso   1.000  H
  C49      1.0000 0.70650  0.98460  0.96710  Biso   1.000  C
  C50      1.0000 0.79350  0.01540  0.46710  Biso   1.000  C
  C51      1.0000 0.29350  0.48460  0.53290  Biso   1.000  C
  C52      1.0000 0.20650  0.51540  0.03290  Biso   1.000  C
  C53      1.0000 0.71500  0.92710  0.93880  Biso   1.000  C
  C54      1.0000 0.78500  0.07290  0.43880  Biso   1.000  C
  C55      1.0000 0.28500  0.42710  0.56120  Biso   1.000  C
  C56      1.0000 0.21500  0.57290  0.06120  Biso   1.000  C
  C57      1.0000 0.83250  0.91690  0.91130  Biso   1.000  C
  C58      1.0000 0.66750  0.08310  0.41130  Biso   1.000  C
  C59      1.0000 0.16750  0.41690  0.58870  Biso   1.000  C
  C60      1.0000 0.33250  0.58310  0.08870  Biso   1.000  C
  H41      1.0000 0.91100  0.94420  0.91250  Biso   1.000  H
  H42      1.0000 0.58900  0.05580  0.41250  Biso   1.000  H
  H43      1.0000 0.08900  0.44420  0.58750  Biso   1.000  H
  H44      1.0000 0.41100  0.55580  0.08750  Biso   1.000  H
  C61      1.0000 0.83500  0.86780  0.88250  Biso   1.000  C
  C62      1.0000 0.66500  0.13220  0.38250  Biso   1.000  C
  C63      1.0000 0.16500  0.36780  0.61750  Biso   1.000  C
  C64      1.0000 0.33500  0.63220  0.11750  Biso   1.000  C
  H45      1.0000 0.91410  0.86330  0.86370  Biso   1.000  H
  H46      1.0000 0.58590  0.13670  0.36370  Biso   1.000  H
  H47      1.0000 0.08590  0.36330  0.63630  Biso   1.000  H
  H48      1.0000 0.41410  0.63670  0.13630  Biso   1.000  H
  C65      1.0000 0.61320  0.83390  0.90660  Biso   1.000  C
  C66      1.0000 0.88680  0.16610  0.40660  Biso   1.000  C
  C67      1.0000 0.38680  0.33390  0.59340  Biso   1.000  C
  C68      1.0000 0.11320  0.66610  0.09340  Biso   1.000  C
  H49      1.0000 0.53790  0.80490  0.90530  Biso   1.000  H
  H50      1.0000 0.96210  0.19510  0.40530  Biso   1.000  H
  H51      1.0000 0.46210  0.30490  0.59470  Biso   1.000  H
  H52      1.0000 0.03790  0.69510  0.09470  Biso   1.000  H
  C69      1.0000 0.60170  0.88340  0.93550  Biso   1.000  C
  C70      1.0000 0.89830  0.11660  0.43550  Biso   1.000  C
  C71      1.0000 0.39830  0.38340  0.56450  Biso   1.000  C
  C72      1.0000 0.10170  0.61660  0.06450  Biso   1.000  C
  H53      1.0000 0.51940  0.88790  0.95290  Biso   1.000  H
  H54      1.0000 0.98060  0.11210  0.45290  Biso   1.000  H
  H55      1.0000 0.48060  0.38790  0.54710  Biso   1.000  H
  H56      1.0000 0.01940  0.61210  0.04710  Biso   1.000  H
  C73      1.0000 0.75170  0.05780  0.06990  Biso   1.000  C
  C74      1.0000 0.74830  0.94220  0.56990  Biso   1.000  C
  C75      1.0000 0.24830  0.55780  0.43010  Biso   1.000  C
  C76      1.0000 0.25170  0.44220  0.93010  Biso   1.000  C
  C77      1.0000 0.68720  0.02210  0.10950  Biso   1.000  C
  C78      1.0000 0.81280  0.97790  0.60950  Biso   1.000  C
  C79      1.0000 0.31280  0.52210  0.39050  Biso   1.000  C
  C80      1.0000 0.18720  0.47790  0.89050  Biso   1.000  C
  C81      1.0000 0.75800  0.97290  0.12810  Biso   1.000  C
  C82      1.0000 0.74200  0.02710  0.62810  Biso   1.000  C
  C83      1.0000 0.24200  0.47290  0.37190  Biso   1.000  C
  C84      1.0000 0.25800  0.52710  0.87190  Biso   1.000  C
  H57      1.0000 0.84930  0.96150  0.11820  Biso   1.000  H
  H58      1.0000 0.65070  0.03850  0.61820  Biso   1.000  H
  H59      1.0000 0.15070  0.46150  0.38180  Biso   1.000  H
  H60      1.0000 0.34930  0.53850  0.88180  Biso   1.000  H
  C85      1.0000 0.68800  0.93800  0.16410  Biso   1.000  C
  C86      1.0000 0.81200  0.06200  0.66410  Biso   1.000  C
  C87      1.0000 0.31200  0.43800  0.33590  Biso   1.000  C
  C88      1.0000 0.18800  0.56200  0.83590  Biso   1.000  C
  H61      1.0000 0.73280  0.90260  0.17590  Biso   1.000  H
  H62      1.0000 0.76720  0.09740  0.67590  Biso   1.000  H
  H63      1.0000 0.26720  0.40260  0.32410  Biso   1.000  H
  H64      1.0000 0.23280  0.59740  0.82410  Biso   1.000  H
  C89      1.0000 0.49700  0.00800  0.16310  Biso   1.000  C
  C90      1.0000 0.00300  0.99200  0.66310  Biso   1.000  C
  C91      1.0000 0.50300  0.50800  0.33690  Biso   1.000  C
  C92      1.0000 0.99700  0.49200  0.83690  Biso   1.000  C
  H65      1.0000 0.41020  0.02090  0.17560  Biso   1.000  H
  H66      1.0000 0.08980  0.97910  0.67560  Biso   1.000  H
  H67      1.0000 0.58980  0.52090  0.32440  Biso   1.000  H
  H68      1.0000 0.91020  0.47910  0.82440  Biso   1.000  H
  C93      1.0000 0.55430  0.04230  0.12830  Biso   1.000  C
  C94      1.0000 0.94570  0.95770  0.62830  Biso   1.000  C
  C95      1.0000 0.44570  0.54230  0.37170  Biso   1.000  C
  C96      1.0000 0.05430  0.45770  0.87170  Biso   1.000  C
  H69      1.0000 0.50670  0.07760  0.11750  Biso   1.000  H
  H70      1.0000 0.99330  0.92240  0.61750  Biso   1.000  H
  H71      1.0000 0.49330  0.57760  0.38250  Biso   1.000  H
  H72      1.0000 0.00670  0.42240  0.88250  Biso   1.000  H
  C97      1.0000 0.22890  0.19500  0.93840  Biso   1.000  C
  C98      1.0000 0.27110  0.80500  0.43840  Biso   1.000  C
  C99      1.0000 0.77110  0.69500  0.56160  Biso   1.000  C
  C100     1.0000 0.72890  0.30500  0.06160  Biso   1.000  C
  C101     1.0000 0.24700  0.22070  0.89190  Biso   1.000  C
  C102     1.0000 0.25300  0.77930  0.39190  Biso   1.000  C
  C103     1.0000 0.75300  0.72070  0.60810  Biso   1.000  C
  C104     1.0000 0.74700  0.27930  0.10810  Biso   1.000  C
  C105     1.0000 0.35960  0.19950  0.86560  Biso   1.000  C
  C106     1.0000 0.14040  0.80050  0.36560  Biso   1.000  C
  C107     1.0000 0.64040  0.69950  0.63440  Biso   1.000  C
  C108     1.0000 0.85960  0.30050  0.13440  Biso   1.000  C
  H73      1.0000 0.42700  0.17080  0.87620  Biso   1.000  H
  H74      1.0000 0.07300  0.82920  0.37620  Biso   1.000  H
  H75      1.0000 0.57300  0.67080  0.62380  Biso   1.000  H
  H76      1.0000 0.92700  0.32920  0.12380  Biso   1.000  H
  C109     1.0000 0.36830  0.22260  0.82330  Biso   1.000  C
  C110     1.0000 0.13170  0.77740  0.32330  Biso   1.000  C
  C111     1.0000 0.63170  0.72260  0.67670  Biso   1.000  C
  C112     1.0000 0.86830  0.27740  0.17670  Biso   1.000  C
  H77      1.0000 0.44000  0.20670  0.80490  Biso   1.000  H
  H78      1.0000 0.06000  0.79330  0.30490  Biso   1.000  H
  H79      1.0000 0.56000  0.70670  0.69510  Biso   1.000  H
  H80      1.0000 0.94000  0.29330  0.19510  Biso   1.000  H
  C113     1.0000 0.17610  0.28750  0.83290  Biso   1.000  C
  C114     1.0000 0.32390  0.71250  0.33290  Biso   1.000  C
  C115     1.0000 0.82390  0.78750  0.66710  Biso   1.000  C
  C116     1.0000 0.67610  0.21250  0.16710  Biso   1.000  C
  H81      1.0000 0.11480  0.31840  0.82180  Biso   1.000  H
  H82      1.0000 0.38520  0.68160  0.32180  Biso   1.000  H
  H83      1.0000 0.88520  0.81840  0.67820  Biso   1.000  H
  H84      1.0000 0.61480  0.18160  0.17820  Biso   1.000  H
  C117     1.0000 0.15200  0.26700  0.87530  Biso   1.000  C
  C118     1.0000 0.34800  0.73300  0.37530  Biso   1.000  C
  C119     1.0000 0.84800  0.76700  0.62470  Biso   1.000  C
  C120     1.0000 0.65200  0.23300  0.12470  Biso   1.000  C
  H85      1.0000 0.07660  0.28290  0.89220  Biso   1.000  H
  H86      1.0000 0.42340  0.71710  0.39220  Biso   1.000  H
  H87      1.0000 0.92340  0.78290  0.60780  Biso   1.000  H
  H88      1.0000 0.57660  0.21710  0.10780  Biso   1.000  H
  C121     1.0000 0.76870  0.35270  0.92970  Biso   1.000  C
  C122     1.0000 0.73130  0.64730  0.42970  Biso   1.000  C
  C123     1.0000 0.23130  0.85270  0.57030  Biso   1.000  C
  C124     1.0000 0.26870  0.14730  0.07030  Biso   1.000  C
  C125     1.0000 0.70820  0.35240  0.88280  Biso   1.000  C
  C126     1.0000 0.79180  0.64760  0.38280  Biso   1.000  C
  C127     1.0000 0.29180  0.85240  0.61720  Biso   1.000  C
  C128     1.0000 0.20820  0.14760  0.11720  Biso   1.000  C
  C129     1.0000 0.76070  0.31380  0.85010  Biso   1.000  C
  C130     1.0000 0.73930  0.68620  0.35010  Biso   1.000  C
  C131     1.0000 0.23930  0.81380  0.64990  Biso   1.000  C
  C132     1.0000 0.26070  0.18620  0.14990  Biso   1.000  C
  H89      1.0000 0.83470  0.28550  0.85630  Biso   1.000  H
  H90      1.0000 0.66530  0.71450  0.35630  Biso   1.000  H
  H91      1.0000 0.16530  0.78550  0.64370  Biso   1.000  H
  H92      1.0000 0.33470  0.21450  0.14370  Biso   1.000  H
  C133     1.0000 0.70430  0.31710  0.80880  Biso   1.000  C
  C134     1.0000 0.79570  0.68290  0.30880  Biso   1.000  C
  C135     1.0000 0.29570  0.81710  0.69120  Biso   1.000  C
  C136     1.0000 0.20430  0.18290  0.19120  Biso   1.000  C
  H93      1.0000 0.73450  0.28770  0.78800  Biso   1.000  H
  H94      1.0000 0.76550  0.71230  0.28800  Biso   1.000  H
  H95      1.0000 0.26550  0.78770  0.71200  Biso   1.000  H
  H96      1.0000 0.23450  0.21230  0.21200  Biso   1.000  H
  C137     1.0000 0.55800  0.39910  0.82870  Biso   1.000  C
  C138     1.0000 0.94200  0.60090  0.32870  Biso   1.000  C
  C139     1.0000 0.44200  0.89910  0.67130  Biso   1.000  C
  C140     1.0000 0.05800  0.10090  0.17130  Biso   1.000  C
  H97      1.0000 0.48890  0.42920  0.82160  Biso   1.000  H
  H98      1.0000 0.01110  0.57080  0.32160  Biso   1.000  H
  H99      1.0000 0.51110  0.92920  0.67840  Biso   1.000  H
  H100     1.0000 0.98890  0.07080  0.17840  Biso   1.000  H
  C141     1.0000 0.60300  0.39680  0.87180  Biso   1.000  C
  C142     1.0000 0.89700  0.60320  0.37180  Biso   1.000  C
  C143     1.0000 0.39700  0.89680  0.62820  Biso   1.000  C
  C144     1.0000 0.10300  0.10320  0.12820  Biso   1.000  C
  H101     1.0000 0.56430  0.42370  0.89300  Biso   1.000  H
  H102     1.0000 0.93570  0.57630  0.39300  Biso   1.000  H
  H103     1.0000 0.43570  0.92370  0.60700  Biso   1.000  H
  H104     1.0000 0.06430  0.07630  0.10700  Biso   1.000  H
  C145     1.0000 0.79560  0.53570  0.58230  Biso   1.000  C
  C146     1.0000 0.70440  0.46430  0.08230  Biso   1.000  C
  C147     1.0000 0.20440  0.03570  0.91770  Biso   1.000  C
  C148     1.0000 0.29560  0.96430  0.41770  Biso   1.000  C
  C149     1.0000 0.73320  0.49610  0.61950  Biso   1.000  C
  C150     1.0000 0.76680  0.50390  0.11950  Biso   1.000  C
  C151     1.0000 0.26680  0.99610  0.88050  Biso   1.000  C
  C152     1.0000 0.23320  0.00390  0.38050  Biso   1.000  C
  C153     1.0000 0.82300  0.46640  0.64910  Biso   1.000  C
  C154     1.0000 0.67700  0.53360  0.14910  Biso   1.000  C
  C155     1.0000 0.17700  0.96640  0.85090  Biso   1.000  C
  C156     1.0000 0.32300  0.03360  0.35090  Biso   1.000  C
  H105     1.0000 0.92320  0.47160  0.64770  Biso   1.000  H
  H106     1.0000 0.57680  0.52840  0.14770  Biso   1.000  H
  H107     1.0000 0.07680  0.97160  0.85230  Biso   1.000  H
  H108     1.0000 0.42320  0.02840  0.35230  Biso   1.000  H
  C157     1.0000 0.76210  0.42910  0.68040  Biso   1.000  C
  C158     1.0000 0.73790  0.57090  0.18040  Biso   1.000  C
  C159     1.0000 0.23790  0.92910  0.81960  Biso   1.000  C
  C160     1.0000 0.26210  0.07090  0.31960  Biso   1.000  C
  H109     1.0000 0.82360  0.40770  0.69950  Biso   1.000  H
  H110     1.0000 0.67640  0.59230  0.19950  Biso   1.000  H
  H111     1.0000 0.17640  0.90770  0.80050  Biso   1.000  H
  H112     1.0000 0.32360  0.09230  0.30050  Biso   1.000  H
  C161     1.0000 0.53420  0.45180  0.65720  Biso   1.000  C
  C162     1.0000 0.96580  0.54820  0.15720  Biso   1.000  C
  C163     1.0000 0.46580  0.95180  0.84280  Biso   1.000  C
  C164     1.0000 0.03420  0.04820  0.34280  Biso   1.000  C
  H113     1.0000 0.43440  0.44830  0.66000  Biso   1.000  H
  H114     1.0000 0.06560  0.55170  0.16000  Biso   1.000  H
  H115     1.0000 0.56560  0.94830  0.84000  Biso   1.000  H
  H116     1.0000 0.93440  0.05170  0.34000  Biso   1.000  H
  C165     1.0000 0.58880  0.48910  0.62340  Biso   1.000  C
  C166     1.0000 0.91120  0.51090  0.12340  Biso   1.000  C
  C167     1.0000 0.41120  0.98910  0.87660  Biso   1.000  C
  C168     1.0000 0.08880  0.01090  0.37660  Biso   1.000  C
  H117     1.0000 0.52660  0.50900  0.60370  Biso   1.000  H
  H118     1.0000 0.97340  0.49100  0.10370  Biso   1.000  H
  H119     1.0000 0.47340  0.00900  0.89630  Biso   1.000  H
  H120     1.0000 0.02660  0.99100  0.39630  Biso   1.000  H
  C169     1.0000 0.25090  0.01250  0.53680  Biso   1.000  C
  C170     1.0000 0.24910  0.98750  0.03680  Biso   1.000  C
  C171     1.0000 0.74910  0.51250  0.96320  Biso   1.000  C
  C172     1.0000 0.75090  0.48750  0.46320  Biso   1.000  C
  C173     1.0000 0.25010  0.07070  0.56640  Biso   1.000  C
  C174     1.0000 0.24990  0.92930  0.06640  Biso   1.000  C
  C175     1.0000 0.74990  0.57070  0.93360  Biso   1.000  C
  C176     1.0000 0.75010  0.42930  0.43360  Biso   1.000  C
  C177     1.0000 0.38450  0.09680  0.57760  Biso   1.000  C
  C178     1.0000 0.11550  0.90320  0.07760  Biso   1.000  C
  C179     1.0000 0.61550  0.59680  0.92240  Biso   1.000  C
  C180     1.0000 0.88450  0.40320  0.42240  Biso   1.000  C
  H121     1.0000 0.47090  0.08050  0.56680  Biso   1.000  H
  H122     1.0000 0.02910  0.91950  0.06680  Biso   1.000  H
  H123     1.0000 0.52910  0.58050  0.93320  Biso   1.000  H
  H124     1.0000 0.97090  0.41950  0.43320  Biso   1.000  H
  C181     1.0000 0.38120  0.14870  0.60580  Biso   1.000  C
  C182     1.0000 0.11880  0.85130  0.10580  Biso   1.000  C
  C183     1.0000 0.61880  0.64870  0.89420  Biso   1.000  C
  C184     1.0000 0.88120  0.35130  0.39420  Biso   1.000  C
  H125     1.0000 0.46910  0.16680  0.61360  Biso   1.000  H
  H126     1.0000 0.03090  0.83320  0.11360  Biso   1.000  H
  H127     1.0000 0.53090  0.66680  0.88640  Biso   1.000  H
  H128     1.0000 0.96910  0.33320  0.38640  Biso   1.000  H
  C185     1.0000 0.13450  0.14740  0.60890  Biso   1.000  C
  C186     1.0000 0.36550  0.85260  0.10890  Biso   1.000  C
  C187     1.0000 0.86550  0.64740  0.89110  Biso   1.000  C
  C188     1.0000 0.63450  0.35260  0.39110  Biso   1.000  C
  H129     1.0000 0.04820  0.16520  0.61850  Biso   1.000  H
  H130     1.0000 0.45180  0.83480  0.11850  Biso   1.000  H
  H131     1.0000 0.95180  0.66520  0.88150  Biso   1.000  H
  H132     1.0000 0.54820  0.33480  0.38150  Biso   1.000  H
  C189     1.0000 0.12880  0.09620  0.58240  Biso   1.000  C
  C190     1.0000 0.37120  0.90380  0.08240  Biso   1.000  C
  C191     1.0000 0.87120  0.59620  0.91760  Biso   1.000  C
  C192     1.0000 0.62880  0.40380  0.41760  Biso   1.000  C
  H133     1.0000 0.03980  0.07870  0.57510  Biso   1.000  H
  H134     1.0000 0.46020  0.92130  0.07510  Biso   1.000  H
  H135     1.0000 0.96020  0.57870  0.92490  Biso   1.000  H
  H136     1.0000 0.53980  0.42130  0.42490  Biso   1.000  H
  N1       1.0000 0.91880  0.10570  0.78730  Biso   1.000  N
  N2       1.0000 0.58120  0.89430  0.28730  Biso   1.000  N
  N3       1.0000 0.08120  0.60570  0.71270  Biso   1.000  N
  N4       1.0000 0.41880  0.39430  0.21270  Biso   1.000  N
  N5       1.0000 0.72650  0.82550  0.88040  Biso   1.000  N
  N6       1.0000 0.77350  0.17450  0.38040  Biso   1.000  N
  N7       1.0000 0.27350  0.32550  0.61960  Biso   1.000  N
  N8       1.0000 0.22650  0.67450  0.11960  Biso   1.000  N
  N9       1.0000 0.56310  0.95670  0.17950  Biso   1.000  N
  N10      1.0000 0.93690  0.04330  0.67950  Biso   1.000  N
  N11      1.0000 0.43690  0.45670  0.32050  Biso   1.000  N
  N12      1.0000 0.06310  0.54330  0.82050  Biso   1.000  N
  N13      1.0000 0.27860  0.26690  0.80710  Biso   1.000  N
  N14      1.0000 0.22140  0.73310  0.30710  Biso   1.000  N
  N15      1.0000 0.72140  0.76690  0.69290  Biso   1.000  N
  N16      1.0000 0.77860  0.23310  0.19290  Biso   1.000  N
  N17      1.0000 0.60490  0.36170  0.79590  Biso   1.000  N
  N18      1.0000 0.89510  0.63830  0.29590  Biso   1.000  N
  N19      1.0000 0.39510  0.86170  0.70410  Biso   1.000  N
  N20      1.0000 0.10490  0.13830  0.20410  Biso   1.000  N
  N21      1.0000 0.61710  0.42100  0.68580  Biso   1.000  N
  N22      1.0000 0.88290  0.57900  0.18580  Biso   1.000  N
  N23      1.0000 0.38290  0.92100  0.81420  Biso   1.000  N
  N24      1.0000 0.11710  0.07900  0.31420  Biso   1.000  N
  N25      1.0000 0.26240  0.17390  0.62230  Biso   1.000  N
  N26      1.0000 0.23760  0.82610  0.12230  Biso   1.000  N
  N27      1.0000 0.73760  0.67390  0.87770  Biso   1.000  N
  N28      1.0000 0.76240  0.32610  0.37770  Biso   1.000  N
  O1       1.0000 0.80820  0.14000  0.94620  Biso   1.000  O
  O2       1.0000 0.69180  0.86000  0.44620  Biso   1.000  O
  O3       1.0000 0.19180  0.64000  0.55380  Biso   1.000  O
  O4       1.0000 0.30820  0.36000  0.05380  Biso   1.000  O
  O5       1.0000 0.59080  0.11280  0.92120  Biso   1.000  O
  O6       1.0000 0.90920  0.88720  0.42120  Biso   1.000  O
  O7       1.0000 0.40920  0.61280  0.57880  Biso   1.000  O
  O8       1.0000 0.09080  0.38720  0.07880  Biso   1.000  O
  O9       1.0000 0.82300  0.01240  0.97470  Biso   1.000  O
  O10      1.0000 0.67700  0.98760  0.47470  Biso   1.000  O
  O11      1.0000 0.17700  0.51240  0.52530  Biso   1.000  O
  O12      1.0000 0.32300  0.48760  0.02530  Biso   1.000  O
  O13      1.0000 0.58420  0.00170  0.97820  Biso   1.000  O
  O14      1.0000 0.91580  0.99830  0.47820  Biso   1.000  O
  O15      1.0000 0.41580  0.50170  0.52180  Biso   1.000  O
  O16      1.0000 0.08420  0.49830  0.02180  Biso   1.000  O
  O17      1.0000 0.87640  0.04880  0.06170  Biso   1.000  O
  O18      1.0000 0.62360  0.95120  0.56170  Biso   1.000  O
  O19      1.0000 0.12360  0.54880  0.43830  Biso   1.000  O
  O20      1.0000 0.37640  0.45120  0.93830  Biso   1.000  O
  O21      1.0000 0.66560  0.09450  0.05070  Biso   1.000  O
  O22      1.0000 0.83440  0.90550  0.55070  Biso   1.000  O
  O23      1.0000 0.33440  0.59450  0.44930  Biso   1.000  O
  O24      1.0000 0.16560  0.40550  0.94930  Biso   1.000  O
  O25      1.0000 0.90180  0.17940  0.03820  Biso   1.000  O
  O26      1.0000 0.59820  0.82060  0.53820  Biso   1.000  O
  O27      1.0000 0.09820  0.67940  0.46180  Biso   1.000  O
  O28      1.0000 0.40180  0.32060  0.96180  Biso   1.000  O
  O29      1.0000 0.10630  0.18110  0.95110  Biso   1.000  O
  O30      1.0000 0.39370  0.81890  0.45110  Biso   1.000  O
  O31      1.0000 0.89370  0.68110  0.54890  Biso   1.000  O
  O32      1.0000 0.60630  0.31890  0.04890  Biso   1.000  O
  O33      1.0000 0.34140  0.19150  0.96040  Biso   1.000  O
  O34      1.0000 0.15860  0.80850  0.46040  Biso   1.000  O
  O35      1.0000 0.65860  0.69150  0.53960  Biso   1.000  O
  O36      1.0000 0.84140  0.30850  0.03960  Biso   1.000  O
  O37      1.0000 0.61370  0.20650  0.99590  Biso   1.000  O
  O38      1.0000 0.88630  0.79350  0.49590  Biso   1.000  O
  O39      1.0000 0.38630  0.70650  0.50410  Biso   1.000  O
  O40      1.0000 0.11370  0.29350  0.00410  Biso   1.000  O
  O41      1.0000 0.69140  0.37380  0.96090  Biso   1.000  O
  O42      1.0000 0.80860  0.62620  0.46090  Biso   1.000  O
  O43      1.0000 0.30860  0.87380  0.53910  Biso   1.000  O
  O44      1.0000 0.19140  0.12620  0.03910  Biso   1.000  O
  O45      1.0000 0.89720  0.33490  0.93530  Biso   1.000  O
  O46      1.0000 0.60280  0.66510  0.43530  Biso   1.000  O
  O47      1.0000 0.10280  0.83490  0.56470  Biso   1.000  O
  O48      1.0000 0.39720  0.16510  0.06470  Biso   1.000  O
  O49      1.0000 0.92800  0.54030  0.57900  Biso   1.000  O
  O50      1.0000 0.57200  0.45970  0.07900  Biso   1.000  O
  O51      1.0000 0.07200  0.04030  0.92100  Biso   1.000  O
  O52      1.0000 0.42800  0.95970  0.42100  Biso   1.000  O
  O53      1.0000 0.70770  0.56290  0.55620  Biso   1.000  O
  O54      1.0000 0.79230  0.43710  0.05620  Biso   1.000  O
  O55      1.0000 0.29230  0.06290  0.94380  Biso   1.000  O
  O56      1.0000 0.20770  0.93710  0.44380  Biso   1.000  O
  O57      1.0000 0.36330  0.00130  0.51490  Biso   1.000  O
  O58      1.0000 0.13670  0.99870  0.01490  Biso   1.000  O
  O59      1.0000 0.63670  0.50130  0.98510  Biso   1.000  O
  O60      1.0000 0.86330  0.49870  0.48510  Biso   1.000  O
  O61      1.0000 0.13920  0.98120  0.53650  Biso   1.000  O
  O62      1.0000 0.36080  0.01880  0.03650  Biso   1.000  O
  O63      1.0000 0.86080  0.48120  0.96350  Biso   1.000  O
  O64      1.0000 0.63920  0.51880  0.46350  Biso   1.000  O
  H137     1.0000 0.89010  0.22010  0.03420  Biso   1.000  H
  H138     1.0000 0.60990  0.77990  0.53420  Biso   1.000  H
  H139     1.0000 0.10990  0.72010  0.46580  Biso   1.000  H
  H140     1.0000 0.39010  0.27990  0.96580  Biso   1.000  H
  H141     1.0000 0.83280  0.16300  0.06460  Biso   1.000  H
  H142     1.0000 0.66720  0.83700  0.56460  Biso   1.000  H
  H143     1.0000 0.16720  0.66300  0.43540  Biso   1.000  H
  H144     1.0000 0.33280  0.33700  0.93540  Biso   1.000  H
  H145     1.0000 0.67740  0.18730  0.01240  Biso   1.000  H
  H146     1.0000 0.82260  0.81270  0.51240  Biso   1.000  H
  H147     1.0000 0.32260  0.68730  0.48760  Biso   1.000  H
  H148     1.0000 0.17740  0.31270  0.98760  Biso   1.000  H
  H149     1.0000 0.62470  0.24550  0.00070  Biso   1.000  H
  H150     1.0000 0.87530  0.75450  0.50070  Biso   1.000  H
  H151     1.0000 0.37530  0.74550  0.49930  Biso   1.000  H
  H152     1.0000 0.12470  0.25450  0.99930  Biso   1.000  H
