data_image0
_cell_length_a       14.239
_cell_length_b       17.396
_cell_length_c       24.691
_cell_angle_alpha    106.77
_cell_angle_beta     104.68
_cell_angle_gamma    94.2

_symmetry_space_group_name_H-M    "P 1"
_symmetry_int_tables_number       1

loop_
  _symmetry_equiv_pos_as_xyz
  'x, y, z'

loop_
  _atom_site_label
  _atom_site_occupancy
  _atom_site_fract_x
  _atom_site_fract_y
  _atom_site_fract_z
  _atom_site_thermal_displace_type
  _atom_site_B_iso_or_equiv
  _atom_site_type_symbol
  W1       1.0000 0.19677  0.94713  0.60386  Biso   1.000  W
  W2       1.0000 0.80323  0.05287  0.39614  Biso   1.000  W
  W3       1.0000 0.43319  0.87984  0.60025  Biso   1.000  W
  W4       1.0000 0.56681  0.12016  0.39975  Biso   1.000  W
  W5       1.0000 0.56003  0.99797  0.86806  Biso   1.000  W
  W6       1.0000 0.43997  0.00203  0.13194  Biso   1.000  W
  W7       1.0000 0.42014  0.09900  0.64783  Biso   1.000  W
  W8       1.0000 0.57986  0.90100  0.35217  Biso   1.000  W
  W9       1.0000 0.60940  0.90949  0.72663  Biso   1.000  W
  W10      1.0000 0.39060  0.09051  0.27337  Biso   1.000  W
  W11      1.0000 0.33601  0.67749  0.60420  Biso   1.000  W
  W12      1.0000 0.66399  0.32251  0.39580  Biso   1.000  W
  W13      1.0000 0.59298  0.12786  0.77727  Biso   1.000  W
  W14      1.0000 0.40702  0.87214  0.22273  Biso   1.000  W
  W15      1.0000 0.46184  0.79462  0.87239  Biso   1.000  W
  W16      1.0000 0.53816  0.20538  0.12761  Biso   1.000  W
  W17      1.0000 0.34540  0.06437  0.87349  Biso   1.000  W
  W18      1.0000 0.65460  0.93563  0.12651  Biso   1.000  W
  W19      1.0000 0.15404  0.02962  0.73410  Biso   1.000  W
  W20      1.0000 0.84596  0.97038  0.26590  Biso   1.000  W
  W21      1.0000 0.09888  0.74296  0.60613  Biso   1.000  W
  W22      1.0000 0.90112  0.25704  0.39387  Biso   1.000  W
  W23      1.0000 0.51333  0.70649  0.73087  Biso   1.000  W
  W24      1.0000 0.48667  0.29351  0.26913  Biso   1.000  W
  W25      1.0000 0.37256  0.18648  0.77732  Biso   1.000  W
  W26      1.0000 0.62744  0.81352  0.22268  Biso   1.000  W
  W27      1.0000 0.24696  0.85897  0.87457  Biso   1.000  W
  W28      1.0000 0.75304  0.14103  0.12543  Biso   1.000  W
  W29      1.0000 0.05603  0.82513  0.73563  Biso   1.000  W
  W30      1.0000 0.94397  0.17487  0.26437  Biso   1.000  W
  W31      1.0000 0.12341  0.64968  0.78386  Biso   1.000  W
  W32      1.0000 0.87659  0.35032  0.21614  Biso   1.000  W
  W33      1.0000 0.16102  0.56462  0.65169  Biso   1.000  W
  W34      1.0000 0.83898  0.43538  0.34831  Biso   1.000  W
  W35      1.0000 0.34029  0.58827  0.77688  Biso   1.000  W
  W36      1.0000 0.65971  0.41173  0.22312  Biso   1.000  W
  P1       1.0000 0.38668  0.97758  0.73480  Biso   1.000  P
  P2       1.0000 0.61332  0.02242  0.26520  Biso   1.000  P
  P3       1.0000 0.28287  0.76187  0.73742  Biso   1.000  P
  P4       1.0000 0.71713  0.23813  0.26258  Biso   1.000  P
  Cu1      1.0000 0.97660  0.06174  0.58038  Biso   1.000  Cu
  Cu2      1.0000 0.02340  0.93826  0.41962  Biso   1.000  Cu
  Cu3      1.0000 0.47765  0.54802  0.56351  Biso   1.000  Cu
  Cu4      1.0000 0.52235  0.45198  0.43649  Biso   1.000  Cu
  Cu5      1.0000 0.11008  0.82518  0.97887  Biso   1.000  Cu
  Cu6      1.0000 0.88992  0.17482  0.02113  Biso   1.000  Cu
  Cu7      1.0000 0.28315  0.41936  0.23406  Biso   1.000  Cu
  Cu8      1.0000 0.71685  0.58064  0.76594  Biso   1.000  Cu
  Cu9      1.0000 0.95798  0.18517  0.75607  Biso   1.000  Cu
  Cu10     1.0000 0.04202  0.81483  0.24393  Biso   1.000  Cu
  C1       1.0000 0.93645  0.80158  0.87142  Biso   1.000  C
  C2       1.0000 0.06355  0.19842  0.12858  Biso   1.000  C
  H1       1.0000 0.97110  0.76970  0.84880  Biso   1.000  H
  H2       1.0000 0.02890  0.23030  0.15120  Biso   1.000  H
  C3       1.0000 0.85209  0.81407  0.84813  Biso   1.000  C
  C4       1.0000 0.14791  0.18593  0.15187  Biso   1.000  C
  H3       1.0000 0.82860  0.79140  0.80730  Biso   1.000  H
  H4       1.0000 0.17140  0.20860  0.19270  Biso   1.000  H
  C5       1.0000 0.78640  0.85948  0.87683  Biso   1.000  C
  C6       1.0000 0.21360  0.14052  0.12317  Biso   1.000  C
  H5       1.0000 0.72370  0.86430  0.85640  Biso   1.000  H
  H6       1.0000 0.27630  0.13570  0.14360  Biso   1.000  H
  C7       1.0000 0.82678  0.89552  0.93847  Biso   1.000  C
  C8       1.0000 0.17322  0.10448  0.06153  Biso   1.000  C
  H7       1.0000 0.79070  0.92650  0.96060  Biso   1.000  H
  H8       1.0000 0.20930  0.07350  0.03940  Biso   1.000  H
  C9       1.0000 0.92199  0.88459  0.96659  Biso   1.000  C
  C10      1.0000 0.07801  0.11541  0.03341  Biso   1.000  C
  C11      1.0000 0.97292  0.91475  0.02909  Biso   1.000  C
  C12      1.0000 0.02708  0.08525  0.97091  Biso   1.000  C
  C13      1.0000 0.92800  0.95378  0.06989  Biso   1.000  C
  C14      1.0000 0.07200  0.04622  0.93011  Biso   1.000  C
  H9       1.0000 0.86240  0.95990  0.05780  Biso   1.000  H
  H10      1.0000 0.13760  0.04010  0.94220  Biso   1.000  H
  C15      1.0000 0.97982  0.98374  0.12857  Biso   1.000  C
  C16      1.0000 0.02018  0.01626  0.87143  Biso   1.000  C
  H11      1.0000 0.94940  0.01020  0.15620  Biso   1.000  H
  H12      1.0000 0.05060  0.98980  0.84380  Biso   1.000  H
  C17      1.0000 0.07657  0.97464  0.14643  Biso   1.000  C
  C18      1.0000 0.92343  0.02536  0.85357  Biso   1.000  C
  H13      1.0000 0.11170  0.99490  0.18620  Biso   1.000  H
  H14      1.0000 0.88830  0.00510  0.81380  Biso   1.000  H
  C19      1.0000 0.12147  0.93563  0.10561  Biso   1.000  C
  C20      1.0000 0.87853  0.06437  0.89439  Biso   1.000  C
  H15      1.0000 0.18710  0.92950  0.11770  Biso   1.000  H
  H16      1.0000 0.81290  0.07050  0.88230  Biso   1.000  H
  C21      1.0000 0.20533  0.68325  0.94957  Biso   1.000  C
  C22      1.0000 0.79467  0.31675  0.05043  Biso   1.000  C
  H17      1.0000 0.15000  0.65950  0.91760  Biso   1.000  H
  H18      1.0000 0.85000  0.34050  0.08240  Biso   1.000  H
  C23      1.0000 0.28896  0.64798  0.95410  Biso   1.000  C
  C24      1.0000 0.71104  0.35202  0.04590  Biso   1.000  C
  H19      1.0000 0.29020  0.60030  0.92520  Biso   1.000  H
  H20      1.0000 0.70980  0.39970  0.07480  Biso   1.000  H
  C25      1.0000 0.37072  0.68309  0.00134  Biso   1.000  C
  C26      1.0000 0.62928  0.31691  0.99866  Biso   1.000  C
  C27      1.0000 0.36886  0.75346  0.04405  Biso   1.000  C
  C28      1.0000 0.63114  0.24654  0.95595  Biso   1.000  C
  H21      1.0000 0.42420  0.77730  0.07600  Biso   1.000  H
  H22      1.0000 0.57580  0.22270  0.92400  Biso   1.000  H
  C29      1.0000 0.28524  0.78871  0.03954  Biso   1.000  C
  C30      1.0000 0.71476  0.21129  0.96046  Biso   1.000  C
  H23      1.0000 0.28400  0.83640  0.06850  Biso   1.000  H
  H24      1.0000 0.71600  0.16360  0.93150  Biso   1.000  H
  C31      1.0000 0.59927  0.60937  0.05479  Biso   1.000  C
  C32      1.0000 0.40073  0.39063  0.94521  Biso   1.000  C
  H25      1.0000 0.64090  0.61170  0.09110  Biso   1.000  H
  H26      1.0000 0.35910  0.38830  0.90890  Biso   1.000  H
  C33      1.0000 0.51892  0.65259  0.05905  Biso   1.000  C
  C34      1.0000 0.48108  0.34741  0.94095  Biso   1.000  C
  H27      1.0000 0.50920  0.68150  0.09480  Biso   1.000  H
  H28      1.0000 0.49080  0.31850  0.90520  Biso   1.000  H
  C35      1.0000 0.45337  0.64683  0.00162  Biso   1.000  C
  C36      1.0000 0.54663  0.35317  0.99838  Biso   1.000  C
  C37      1.0000 0.46980  0.60169  0.95461  Biso   1.000  C
  C38      1.0000 0.53020  0.39831  0.04539  Biso   1.000  C
  H29      1.0000 0.42170  0.59330  0.91910  Biso   1.000  H
  H30      1.0000 0.57830  0.40670  0.08090  Biso   1.000  H
  C39      1.0000 0.56081  0.56030  0.95119  Biso   1.000  C
  C40      1.0000 0.43919  0.43970  0.04881  Biso   1.000  C
  H31      1.0000 0.57300  0.53400  0.91570  Biso   1.000  H
  H32      1.0000 0.42700  0.46600  0.08430  Biso   1.000  H
  C41      1.0000 0.39898  0.58448  0.25827  Biso   1.000  C
  C42      1.0000 0.60102  0.41552  0.74173  Biso   1.000  C
  H33      1.0000 0.41670  0.56080  0.22420  Biso   1.000  H
  H34      1.0000 0.58330  0.43920  0.77580  Biso   1.000  H
  C43      1.0000 0.42754  0.66770  0.28813  Biso   1.000  C
  C44      1.0000 0.57246  0.33230  0.71187  Biso   1.000  C
  H35      1.0000 0.46430  0.69950  0.27390  Biso   1.000  H
  H36      1.0000 0.53570  0.30050  0.72610  Biso   1.000  H
  C45      1.0000 0.40090  0.70324  0.33933  Biso   1.000  C
  C46      1.0000 0.59910  0.29676  0.66067  Biso   1.000  C
  H37      1.0000 0.41990  0.75870  0.35920  Biso   1.000  H
  H38      1.0000 0.58010  0.24130  0.64080  Biso   1.000  H
  C47      1.0000 0.34565  0.65554  0.36067  Biso   1.000  C
  C48      1.0000 0.65435  0.34446  0.63933  Biso   1.000  C
  H39      1.0000 0.32790  0.67920  0.39480  Biso   1.000  H
  H40      1.0000 0.67210  0.32080  0.60520  Biso   1.000  H
  C49      1.0000 0.31709  0.57232  0.33081  Biso   1.000  C
  C50      1.0000 0.68291  0.42768  0.66919  Biso   1.000  C
  C51      1.0000 0.25461  0.51470  0.34240  Biso   1.000  C
  C52      1.0000 0.74539  0.48530  0.65760  Biso   1.000  C
  C53      1.0000 0.22213  0.53548  0.39203  Biso   1.000  C
  C54      1.0000 0.77787  0.46452  0.60797  Biso   1.000  C
  H41      1.0000 0.24590  0.58610  0.42060  Biso   1.000  H
  H42      1.0000 0.75410  0.41390  0.57940  Biso   1.000  H
  C55      1.0000 0.15441  0.48121  0.39922  Biso   1.000  C
  C56      1.0000 0.84559  0.51879  0.60078  Biso   1.000  C
  H43      1.0000 0.13250  0.49520  0.43270  Biso   1.000  H
  H44      1.0000 0.86750  0.50480  0.56730  Biso   1.000  H
  C57      1.0000 0.11916  0.40616  0.35676  Biso   1.000  C
  C58      1.0000 0.88084  0.59384  0.64324  Biso   1.000  C
  H45      1.0000 0.07350  0.36960  0.36160  Biso   1.000  H
  H46      1.0000 0.92650  0.63040  0.63840  Biso   1.000  H
  C59      1.0000 0.15166  0.38539  0.30713  Biso   1.000  C
  C60      1.0000 0.84834  0.61461  0.69287  Biso   1.000  C
  H47      1.0000 0.12790  0.33480  0.27850  Biso   1.000  H
  H48      1.0000 0.87210  0.66520  0.72150  Biso   1.000  H
  C61      1.0000 0.28841  0.33235  0.11460  Biso   1.000  C
  C62      1.0000 0.71159  0.66765  0.88540  Biso   1.000  C
  H49      1.0000 0.35250  0.32730  0.13240  Biso   1.000  H
  H50      1.0000 0.64750  0.67270  0.86760  Biso   1.000  H
  C63      1.0000 0.24956  0.30088  0.05383  Biso   1.000  C
  C64      1.0000 0.75044  0.69912  0.94617  Biso   1.000  C
  H51      1.0000 0.28760  0.27470  0.03090  Biso   1.000  H
  H52      1.0000 0.71240  0.72530  0.96910  Biso   1.000  H
  C65      1.0000 0.15413  0.30845  0.02727  Biso   1.000  C
  C66      1.0000 0.84587  0.69155  0.97273  Biso   1.000  C
  C67      1.0000 0.09755  0.34750  0.06148  Biso   1.000  C
  C68      1.0000 0.90245  0.65250  0.93852  Biso   1.000  C
  H53      1.0000 0.03350  0.35260  0.04360  Biso   1.000  H
  H54      1.0000 0.96650  0.64740  0.95640  Biso   1.000  H
  C69      1.0000 0.13640  0.37899  0.12226  Biso   1.000  C
  C70      1.0000 0.86360  0.62101  0.87774  Biso   1.000  C
  H55      1.0000 0.09840  0.40520  0.14520  Biso   1.000  H
  H56      1.0000 0.90160  0.59480  0.85480  Biso   1.000  H
  C71      1.0000 0.11609  0.22324  0.86098  Biso   1.000  C
  C72      1.0000 0.88391  0.77676  0.13902  Biso   1.000  C
  H57      1.0000 0.15320  0.20870  0.83470  Biso   1.000  H
  H58      1.0000 0.84680  0.79130  0.16530  Biso   1.000  H
  C73      1.0000 0.16138  0.25292  0.92018  Biso   1.000  C
  C74      1.0000 0.83862  0.74708  0.07982  Biso   1.000  C
  H59      1.0000 0.22940  0.25860  0.93430  Biso   1.000  H
  H60      1.0000 0.77060  0.74140  0.06570  Biso   1.000  H
  C75      1.0000 0.10695  0.27428  0.95875  Biso   1.000  C
  C76      1.0000 0.89305  0.72572  0.04125  Biso   1.000  C
  C77      1.0000 0.00723  0.26593  0.93811  Biso   1.000  C
  C78      1.0000 0.99277  0.73407  0.06189  Biso   1.000  C
  H61      1.0000 0.97010  0.28050  0.96440  Biso   1.000  H
  H62      1.0000 0.02990  0.71950  0.03560  Biso   1.000  H
  C79      1.0000 0.96194  0.23625  0.87890  Biso   1.000  C
  C80      1.0000 0.03806  0.76375  0.12110  Biso   1.000  C
  H63      1.0000 0.89390  0.23060  0.86480  Biso   1.000  H
  H64      1.0000 0.10610  0.76940  0.13520  Biso   1.000  H
  C81      1.0000 0.77802  0.07890  0.68280  Biso   1.000  C
  C82      1.0000 0.22198  0.92110  0.31720  Biso   1.000  C
  H65      1.0000 0.78720  0.05580  0.71300  Biso   1.000  H
  H66      1.0000 0.21280  0.94420  0.28700  Biso   1.000  H
  C83      1.0000 0.69316  0.04936  0.63297  Biso   1.000  C
  C84      1.0000 0.30684  0.95064  0.36703  Biso   1.000  C
  H67      1.0000 0.64700  0.00690  0.63060  Biso   1.000  H
  H68      1.0000 0.35300  0.99310  0.36940  Biso   1.000  H
  C85      1.0000 0.67904  0.08479  0.58678  Biso   1.000  C
  C86      1.0000 0.32096  0.91521  0.41322  Biso   1.000  C
  H69      1.0000 0.62360  0.06550  0.55420  Biso   1.000  H
  H70      1.0000 0.37640  0.93450  0.44580  Biso   1.000  H
  C87      1.0000 0.74977  0.14976  0.59042  Biso   1.000  C
  C88      1.0000 0.25023  0.85024  0.40958  Biso   1.000  C
  H71      1.0000 0.74060  0.17290  0.56030  Biso   1.000  H
  H72      1.0000 0.25940  0.82710  0.43970  Biso   1.000  H
  C89      1.0000 0.83463  0.17930  0.64026  Biso   1.000  C
  C90      1.0000 0.16537  0.82070  0.35974  Biso   1.000  C
  C91      1.0000 0.89388  0.22969  0.63879  Biso   1.000  C
  C92      1.0000 0.10612  0.77031  0.36121  Biso   1.000  C
  C93      1.0000 0.90404  0.27167  0.59583  Biso   1.000  C
  C94      1.0000 0.09596  0.72833  0.40417  Biso   1.000  C
  H73      1.0000 0.86530  0.25070  0.55680  Biso   1.000  H
  H74      1.0000 0.13470  0.74930  0.44320  Biso   1.000  H
  C95      1.0000 0.97587  0.34703  0.61495  Biso   1.000  C
  C96      1.0000 0.02413  0.65297  0.38505  Biso   1.000  C
  H75      1.0000 0.98230  0.37340  0.58790  Biso   1.000  H
  H76      1.0000 0.01770  0.62660  0.41210  Biso   1.000  H
  C97      1.0000 0.03752  0.38041  0.67707  Biso   1.000  C
  C98      1.0000 0.96248  0.61959  0.32293  Biso   1.000  C
  H77      1.0000 0.08270  0.42780  0.68910  Biso   1.000  H
  H78      1.0000 0.91730  0.57220  0.31090  Biso   1.000  H
  C99      1.0000 0.02737  0.33844  0.72004  Biso   1.000  C
  C100     1.0000 0.97263  0.66156  0.27996  Biso   1.000  C
  H79      1.0000 0.06610  0.35940  0.75910  Biso   1.000  H
  H80      1.0000 0.93390  0.64060  0.24090  Biso   1.000  H
  C101     1.0000 0.14502  0.18719  0.63173  Biso   1.000  C
  C102     1.0000 0.85498  0.81281  0.36827  Biso   1.000  C
  H81      1.0000 0.15240  0.17120  0.66520  Biso   1.000  H
  H82      1.0000 0.84760  0.82880  0.33480  Biso   1.000  H
  C103     1.0000 0.21168  0.24763  0.63149  Biso   1.000  C
  C104     1.0000 0.78832  0.75237  0.36851  Biso   1.000  C
  H83      1.0000 0.26450  0.27280  0.66480  Biso   1.000  H
  H84      1.0000 0.73550  0.72720  0.33520  Biso   1.000  H
  C105     1.0000 0.20078  0.27109  0.58232  Biso   1.000  C
  C106     1.0000 0.79922  0.72891  0.41768  Biso   1.000  C
  C107     1.0000 0.12321  0.23413  0.53333  Biso   1.000  C
  C108     1.0000 0.87679  0.76587  0.46667  Biso   1.000  C
  H85      1.0000 0.11580  0.25010  0.49980  Biso   1.000  H
  H86      1.0000 0.88420  0.74990  0.50020  Biso   1.000  H
  C109     1.0000 0.05656  0.17368  0.53356  Biso   1.000  C
  C110     1.0000 0.94344  0.82632  0.46644  Biso   1.000  C
  H87      1.0000 0.00380  0.14850  0.50020  Biso   1.000  H
  H88      1.0000 0.99620  0.85150  0.49980  Biso   1.000  H
  C111     1.0000 0.41488  0.43460  0.61698  Biso   1.000  C
  C112     1.0000 0.58512  0.56540  0.38302  Biso   1.000  C
  H89      1.0000 0.47600  0.45340  0.64490  Biso   1.000  H
  H90      1.0000 0.52400  0.54660  0.35510  Biso   1.000  H
  C113     1.0000 0.35133  0.37740  0.62185  Biso   1.000  C
  C114     1.0000 0.64867  0.62260  0.37815  Biso   1.000  C
  H91      1.0000 0.36860  0.35670  0.65310  Biso   1.000  H
  H92      1.0000 0.63140  0.64330  0.34690  Biso   1.000  H
  C115     1.0000 0.26272  0.35021  0.58137  Biso   1.000  C
  C116     1.0000 0.73728  0.64979  0.41863  Biso   1.000  C
  C117     1.0000 0.23765  0.38024  0.53604  Biso   1.000  C
  C118     1.0000 0.76235  0.61976  0.46396  Biso   1.000  C
  H93      1.0000 0.17650  0.36150  0.50810  Biso   1.000  H
  H94      1.0000 0.82350  0.63850  0.49190  Biso   1.000  H
  C119     1.0000 0.30119  0.43745  0.53118  Biso   1.000  C
  C120     1.0000 0.69881  0.56255  0.46882  Biso   1.000  C
  H95      1.0000 0.28390  0.45820  0.49990  Biso   1.000  H
  H96      1.0000 0.71610  0.54180  0.50010  Biso   1.000  H
  C121     1.0000 0.89515  0.94763  0.62300  Biso   1.000  C
  C122     1.0000 0.10485  0.05237  0.37700  Biso   1.000  C
  H97      1.0000 0.94970  0.97080  0.65570  Biso   1.000  H
  H98      1.0000 0.05030  0.02920  0.34430  Biso   1.000  H
  C123     1.0000 0.83261  0.88425  0.62134  Biso   1.000  C
  C124     1.0000 0.16739  0.11575  0.37866  Biso   1.000  C
  H99      1.0000 0.84400  0.86370  0.65290  Biso   1.000  H
  H100     1.0000 0.15600  0.13630  0.34710  Biso   1.000  H
  C125     1.0000 0.75347  0.85063  0.57393  Biso   1.000  C
  C126     1.0000 0.24653  0.14937  0.42607  Biso   1.000  C
  C127     1.0000 0.73685  0.88041  0.52814  Biso   1.000  C
  C128     1.0000 0.26315  0.11959  0.47186  Biso   1.000  C
  H101     1.0000 0.68230  0.85730  0.49550  Biso   1.000  H
  H102     1.0000 0.31770  0.14270  0.50450  Biso   1.000  H
  C129     1.0000 0.79940  0.94380  0.52979  Biso   1.000  C
  C130     1.0000 0.20060  0.05620  0.47021  Biso   1.000  C
  H103     1.0000 0.78800  0.96430  0.49820  Biso   1.000  H
  H104     1.0000 0.21200  0.03570  0.50180  Biso   1.000  H
  C131     1.0000 0.64903  0.66410  0.60723  Biso   1.000  C
  C132     1.0000 0.35097  0.33590  0.39277  Biso   1.000  C
  H105     1.0000 0.66590  0.63820  0.63560  Biso   1.000  H
  H106     1.0000 0.33410  0.36180  0.36440  Biso   1.000  H
  C133     1.0000 0.71063  0.73279  0.61073  Biso   1.000  C
  C134     1.0000 0.28937  0.26721  0.38927  Biso   1.000  C
  H107     1.0000 0.76850  0.75260  0.64150  Biso   1.000  H
  H108     1.0000 0.23150  0.24740  0.35850  Biso   1.000  H
  C135     1.0000 0.68522  0.77166  0.56803  Biso   1.000  C
  C136     1.0000 0.31478  0.22834  0.43197  Biso   1.000  C
  C137     1.0000 0.59823  0.74181  0.52183  Biso   1.000  C
  C138     1.0000 0.40177  0.25819  0.47817  Biso   1.000  C
  H109     1.0000 0.58130  0.76770  0.49340  Biso   1.000  H
  H110     1.0000 0.41870  0.23230  0.50660  Biso   1.000  H
  C139     1.0000 0.53665  0.67312  0.51833  Biso   1.000  C
  C140     1.0000 0.46335  0.32688  0.48167  Biso   1.000  C
  H111     1.0000 0.47880  0.65330  0.48760  Biso   1.000  H
  H112     1.0000 0.52120  0.34670  0.51240  Biso   1.000  H
  N1       1.0000 0.97682  0.83762  0.93305  Biso   1.000  N
  N2       1.0000 0.02318  0.16238  0.06695  Biso   1.000  N
  N3       1.0000 0.06965  0.90568  0.04693  Biso   1.000  N
  N4       1.0000 0.93035  0.09432  0.95307  Biso   1.000  N
  N5       1.0000 0.20346  0.75359  0.99232  Biso   1.000  N
  N6       1.0000 0.79654  0.24641  0.00768  Biso   1.000  N
  N7       1.0000 0.38981  0.46462  0.57165  Biso   1.000  N
  N8       1.0000 0.61019  0.53538  0.42835  Biso   1.000  N
  N9       1.0000 0.56205  0.63427  0.56103  Biso   1.000  N
  N10      1.0000 0.43795  0.36573  0.43897  Biso   1.000  N
  N11      1.0000 0.87853  0.97743  0.57723  Biso   1.000  N
  N12      1.0000 0.12147  0.02257  0.42277  Biso   1.000  N
  N13      1.0000 0.06746  0.15022  0.58275  Biso   1.000  N
  N14      1.0000 0.93254  0.84978  0.41725  Biso   1.000  N
  N15      1.0000 0.21937  0.43966  0.29995  Biso   1.000  N
  N16      1.0000 0.78063  0.56034  0.70005  Biso   1.000  N
  N17      1.0000 0.23182  0.37141  0.14880  Biso   1.000  N
  N18      1.0000 0.76818  0.62859  0.85120  Biso   1.000  N
  N19      1.0000 0.01638  0.21489  0.84033  Biso   1.000  N
  N20      1.0000 0.98362  0.78511  0.15967  Biso   1.000  N
  N21      1.0000 0.34374  0.53679  0.27960  Biso   1.000  N
  N22      1.0000 0.65626  0.46321  0.72040  Biso   1.000  N
  N23      1.0000 0.62636  0.56606  0.00862  Biso   1.000  N
  N24      1.0000 0.37364  0.43394  0.99138  Biso   1.000  N
  H113     1.0000 0.67830  0.54340  0.01250  Biso   1.000  H
  H114     1.0000 0.32170  0.45660  0.98750  Biso   1.000  H
  N25      1.0000 0.95554  0.26307  0.70089  Biso   1.000  N
  N26      1.0000 0.04446  0.73693  0.29911  Biso   1.000  N
  N27      1.0000 0.84876  0.14387  0.68645  Biso   1.000  N
  N28      1.0000 0.15124  0.85613  0.31355  Biso   1.000  N
  O1       1.0000 0.70741  0.18207  0.80294  Biso   1.000  O
  O2       1.0000 0.29259  0.81793  0.19706  Biso   1.000  O
  O3       1.0000 0.34637  0.28273  0.80473  Biso   1.000  O
  O4       1.0000 0.65363  0.71727  0.19527  Biso   1.000  O
  O5       1.0000 0.54919  0.13763  0.69979  Biso   1.000  O
  O6       1.0000 0.45081  0.86237  0.30021  Biso   1.000  O
  O7       1.0000 0.32835  0.81649  0.80221  Biso   1.000  O
  O8       1.0000 0.67165  0.18351  0.19779  Biso   1.000  O
  O9       1.0000 0.39263  0.51697  0.80428  Biso   1.000  O
  O10      1.0000 0.60737  0.48303  0.19572  Biso   1.000  O
  O11      1.0000 0.22590  0.59038  0.80697  Biso   1.000  O
  O12      1.0000 0.77410  0.40962  0.19303  Biso   1.000  O
  O13      1.0000 0.25720  0.52085  0.70131  Biso   1.000  O
  O14      1.0000 0.74280  0.47915  0.29869  Biso   1.000  O
  O15      1.0000 0.09945  0.47757  0.59808  Biso   1.000  O
  O16      1.0000 0.90055  0.52243  0.40192  Biso   1.000  O
  O17      1.0000 0.01712  0.70242  0.53952  Biso   1.000  O
  O18      1.0000 0.98288  0.29758  0.46048  Biso   1.000  O
  O19      1.0000 0.28739  0.04319  0.62087  Biso   1.000  O
  O20      1.0000 0.71261  0.95681  0.37913  Biso   1.000  O
  O21      1.0000 0.39469  0.68717  0.84206  Biso   1.000  O
  O22      1.0000 0.60531  0.31283  0.15794  Biso   1.000  O
  O23      1.0000 0.01476  0.77328  0.65196  Biso   1.000  O
  O24      1.0000 0.98524  0.22672  0.34804  Biso   1.000  O
  O25      1.0000 0.50558  0.90662  0.88225  Biso   1.000  O
  O26      1.0000 0.49442  0.09338  0.11775  Biso   1.000  O
  O27      1.0000 0.61604  0.02540  0.74079  Biso   1.000  O
  O28      1.0000 0.38396  0.97460  0.25921  Biso   1.000  O
  O29      1.0000 0.40692  0.97509  0.79886  Biso   1.000  O
  O30      1.0000 0.59308  0.02491  0.20114  Biso   1.000  O
  O31      1.0000 0.13044  0.94510  0.53619  Biso   1.000  O
  O32      1.0000 0.86956  0.05490  0.46381  Biso   1.000  O
  O33      1.0000 0.22486  0.03777  0.81087  Biso   1.000  O
  O34      1.0000 0.77514  0.96223  0.18913  Biso   1.000  O
  O35      1.0000 0.56582  0.88475  0.64370  Biso   1.000  O
  O36      1.0000 0.43418  0.11525  0.35630  Biso   1.000  O
  O37      1.0000 0.26526  0.59707  0.62357  Biso   1.000  O
  O38      1.0000 0.73474  0.40293  0.37643  Biso   1.000  O
  O39      1.0000 0.05655  0.72203  0.74828  Biso   1.000  O
  O40      1.0000 0.94345  0.27797  0.25172  Biso   1.000  O
  O41      1.0000 0.12749  0.84874  0.60539  Biso   1.000  O
  O42      1.0000 0.87251  0.15126  0.39461  Biso   1.000  O
  O43      1.0000 0.36700  0.83255  0.91293  Biso   1.000  O
  O44      1.0000 0.63300  0.16745  0.08707  Biso   1.000  O
  O45      1.0000 0.29885  0.88857  0.58848  Biso   1.000  O
  O46      1.0000 0.70115  0.11143  0.41152  Biso   1.000  O
  O47      1.0000 0.42613  0.06355  0.73547  Biso   1.000  O
  O48      1.0000 0.57387  0.93645  0.26453  Biso   1.000  O
  O49      1.0000 0.40487  0.77410  0.60558  Biso   1.000  O
  O50      1.0000 0.59513  0.22590  0.39442  Biso   1.000  O
  O51      1.0000 0.59552  0.93435  0.80598  Biso   1.000  O
  O52      1.0000 0.40448  0.06565  0.19402  Biso   1.000  O
  O53      1.0000 0.72950  0.90089  0.73595  Biso   1.000  O
  O54      1.0000 0.27050  0.09911  0.26405  Biso   1.000  O
  O55      1.0000 0.35852  0.74985  0.70488  Biso   1.000  O
  O56      1.0000 0.64148  0.25015  0.29512  Biso   1.000  O
  O57      1.0000 0.19635  0.79354  0.70592  Biso   1.000  O
  O58      1.0000 0.80365  0.20646  0.29408  Biso   1.000  O
  O59      1.0000 0.47910  0.06090  0.91037  Biso   1.000  O
  O60      1.0000 0.52090  0.93910  0.08963  Biso   1.000  O
  O61      1.0000 0.38192  0.14412  0.84130  Biso   1.000  O
  O62      1.0000 0.61808  0.85588  0.15870  Biso   1.000  O
  O63      1.0000 0.27770  0.95899  0.70433  Biso   1.000  O
  O64      1.0000 0.72230  0.04101  0.29567  Biso   1.000  O
  O65      1.0000 0.04097  0.61820  0.81350  Biso   1.000  O
  O66      1.0000 0.95903  0.38180  0.18650  Biso   1.000  O
  O67      1.0000 0.56001  0.79853  0.71685  Biso   1.000  O
  O68      1.0000 0.43999  0.20147  0.28315  Biso   1.000  O
  O69      1.0000 0.24755  0.12270  0.74380  Biso   1.000  O
  O70      1.0000 0.75245  0.87730  0.25620  Biso   1.000  O
  O71      1.0000 0.52118  0.76622  0.80720  Biso   1.000  O
  O72      1.0000 0.47882  0.23378  0.19280  Biso   1.000  O
  O73      1.0000 0.31583  0.96034  0.88442  Biso   1.000  O
  O74      1.0000 0.68417  0.03966  0.11558  Biso   1.000  O
  O75      1.0000 0.66458  0.01967  0.92428  Biso   1.000  O
  O76      1.0000 0.33542  0.98033  0.07572  Biso   1.000  O
  O77      1.0000 0.43812  0.91659  0.70163  Biso   1.000  O
  O78      1.0000 0.56188  0.08341  0.29837  Biso   1.000  O
  O79      1.0000 0.14443  0.86913  0.81195  Biso   1.000  O
  O80      1.0000 0.85557  0.13087  0.18805  Biso   1.000  O
  O81      1.0000 0.58382  0.08689  0.83784  Biso   1.000  O
  O82      1.0000 0.41618  0.91311  0.16216  Biso   1.000  O
  O83      1.0000 0.45460  0.65539  0.64855  Biso   1.000  O
  O84      1.0000 0.54540  0.34461  0.35145  Biso   1.000  O
  O85      1.0000 0.44062  0.85437  0.53117  Biso   1.000  O
  O86      1.0000 0.55938  0.14563  0.46883  Biso   1.000  O
  O87      1.0000 0.12126  0.00996  0.65076  Biso   1.000  O
  O88      1.0000 0.87874  0.99004  0.34924  Biso   1.000  O
  O89      1.0000 0.42424  0.14115  0.59477  Biso   1.000  O
  O90      1.0000 0.57576  0.85885  0.40523  Biso   1.000  O
  O91      1.0000 0.37871  0.18425  0.70047  Biso   1.000  O
  O92      1.0000 0.62129  0.81575  0.29953  Biso   1.000  O
  O93      1.0000 0.19140  0.74339  0.84437  Biso   1.000  O
  O94      1.0000 0.80860  0.25661  0.15563  Biso   1.000  O
  O95      1.0000 0.06002  0.08293  0.74570  Biso   1.000  O
  O96      1.0000 0.93998  0.91707  0.25430  Biso   1.000  O
  O97      1.0000 0.08682  0.57233  0.70556  Biso   1.000  O
  O98      1.0000 0.91318  0.42767  0.29444  Biso   1.000  O
  O99      1.0000 0.09277  0.92838  0.72349  Biso   1.000  O
  O100     1.0000 0.90723  0.07162  0.27651  Biso   1.000  O
  O101     1.0000 0.43177  0.61947  0.74214  Biso   1.000  O
  O102     1.0000 0.56823  0.38053  0.25786  Biso   1.000  O
  O103     1.0000 0.09920  0.64583  0.62634  Biso   1.000  O
  O104     1.0000 0.90080  0.35417  0.37366  Biso   1.000  O
  O105     1.0000 0.24373  0.67598  0.73701  Biso   1.000  O
  O106     1.0000 0.75627  0.32402  0.26299  Biso   1.000  O
  O107     1.0000 0.94651  0.84062  0.74717  Biso   1.000  O
  O108     1.0000 0.05349  0.15938  0.25283  Biso   1.000  O
  O109     1.0000 0.62233  0.66191  0.74002  Biso   1.000  O
  O110     1.0000 0.37767  0.33809  0.25998  Biso   1.000  O
  O111     1.0000 0.45253  0.99735  0.61946  Biso   1.000  O
  O112     1.0000 0.54747  0.00265  0.38054  Biso   1.000  O
  O113     1.0000 0.51444  0.20835  0.80149  Biso   1.000  O
  O114     1.0000 0.48556  0.79165  0.19851  Biso   1.000  O
  O115     1.0000 0.55077  0.78511  0.92669  Biso   1.000  O
  O116     1.0000 0.44923  0.21489  0.07331  Biso   1.000  O
  O117     1.0000 0.19767  0.88714  0.93265  Biso   1.000  O
  O118     1.0000 0.80233  0.11286  0.06735  Biso   1.000  O
  O119     1.0000 0.31348  0.12377  0.93000  Biso   1.000  O
  O120     1.0000 0.68652  0.87623  0.07000  Biso   1.000  O
  O121     1.0000 0.21822  0.72168  0.59104  Biso   1.000  O
  O122     1.0000 0.78178  0.27832  0.40896  Biso   1.000  O
  O123     1.0000 0.33221  0.61935  0.53651  Biso   1.000  O
  O124     1.0000 0.66779  0.38065  0.46349  Biso   1.000  O
  O125     1.0000 0.50000  0.00000  0.00000  Biso   1.000  O
  O126     1.0000 0.45259  0.00180  0.99780  Biso   1.000  O
  O127     1.0000 0.54741  0.99820  0.00220  Biso   1.000  O
  O128     1.0000 0.75606  0.51333  0.00712  Biso   1.000  O
  O129     1.0000 0.24394  0.48667  0.99288  Biso   1.000  O
  O130     1.0000 0.73068  0.51151  0.00362  Biso   1.000  O
  O131     1.0000 0.26932  0.48849  0.99638  Biso   1.000  O
  O132     1.0000 0.78036  0.50011  0.99371  Biso   1.000  O
  O133     1.0000 0.21964  0.49989  0.00629  Biso   1.000  O
  O134     1.0000 0.22148  0.42012  0.81891  Biso   1.000  O
  O135     1.0000 0.77852  0.57988  0.18109  Biso   1.000  O
