data_image0
_cell_length_a       12.643
_cell_length_b       13.631
_cell_length_c       18.549
_cell_angle_alpha    89.57
_cell_angle_beta     85.82
_cell_angle_gamma    75.52

_symmetry_space_group_name_H-M    "P 1"
_symmetry_int_tables_number       1

loop_
  _symmetry_equiv_pos_as_xyz
  'x, y, z'

loop_
  _atom_site_label
  _atom_site_occupancy
  _atom_site_fract_x
  _atom_site_fract_y
  _atom_site_fract_z
  _atom_site_thermal_displace_type
  _atom_site_B_iso_or_equiv
  _atom_site_type_symbol
  P1       1.0000 0.24480  0.98690  0.24339  Biso   1.000  P
  P2       1.0000 0.75520  0.01310  0.75661  Biso   1.000  P
  Mo1      1.0000 0.39718  0.08097  0.10091  Biso   1.000  Mo
  Mo2      1.0000 0.60282  0.91903  0.89909  Biso   1.000  Mo
  Mo3      1.0000 0.38752  0.17209  0.27462  Biso   1.000  Mo
  Mo4      1.0000 0.61248  0.82791  0.72538  Biso   1.000  Mo
  Mo5      1.0000 0.08945  0.90217  0.38709  Biso   1.000  Mo
  Mo6      1.0000 0.91055  0.09783  0.61291  Biso   1.000  Mo
  Mo7      1.0000 0.99745  0.14517  0.32175  Biso   1.000  Mo
  Mo8      1.0000 0.00255  0.85483  0.67825  Biso   1.000  Mo
  Mo9      1.0000 0.09995  0.80347  0.20024  Biso   1.000  Mo
  Mo10     1.0000 0.90005  0.19653  0.79976  Biso   1.000  Mo
  Mo11     1.0000 0.34564  0.73435  0.30605  Biso   1.000  Mo
  Mo12     1.0000 0.65436  0.26565  0.69395  Biso   1.000  Mo
  Mo13     1.0000 0.16106  0.23799  0.17633  Biso   1.000  Mo
  Mo14     1.0000 0.83894  0.76201  0.82367  Biso   1.000  Mo
  Mo15     1.0000 0.47851  0.91250  0.34546  Biso   1.000  Mo
  Mo16     1.0000 0.52149  0.08750  0.65454  Biso   1.000  Mo
  Mo17     1.0000 0.21855  0.08618  0.42289  Biso   1.000  Mo
  Mo18     1.0000 0.78145  0.91382  0.57711  Biso   1.000  Mo
  Mo19     1.0000 0.49644  0.82194  0.17083  Biso   1.000  Mo
  Mo20     1.0000 0.50356  0.17806  0.82917  Biso   1.000  Mo
  Mo21     1.0000 0.25397  0.88472  0.06512  Biso   1.000  Mo
  Mo22     1.0000 0.74603  0.11528  0.93488  Biso   1.000  Mo
  Mo23     1.0000 0.01593  0.04258  0.13538  Biso   1.000  Mo
  Mo24     1.0000 0.98407  0.95742  0.86462  Biso   1.000  Mo
  O1       1.0000 0.87700  0.22870  0.34490  Biso   1.000  O
  O2       1.0000 0.12300  0.77130  0.65510  Biso   1.000  O
  O3       1.0000 0.47140  0.04300  0.29800  Biso   1.000  O
  O4       1.0000 0.52860  0.95700  0.70200  Biso   1.000  O
  O5       1.0000 0.28040  0.08090  0.21280  Biso   1.000  O
  O6       1.0000 0.71960  0.91910  0.78720  Biso   1.000  O
  O7       1.0000 0.05480  0.85950  0.29720  Biso   1.000  O
  O8       1.0000 0.94520  0.14050  0.70280  Biso   1.000  O
  O9       1.0000 0.38210  0.82020  0.11360  Biso   1.000  O
  O10      1.0000 0.61790  0.17980  0.88640  Biso   1.000  O
  O11      1.0000 0.23840  0.13480  0.50300  Biso   1.000  O
  O12      1.0000 0.76160  0.86520  0.49700  Biso   1.000  O
  O13      1.0000 0.18100  0.94630  0.18690  Biso   1.000  O
  O14      1.0000 0.81900  0.05370  0.81310  Biso   1.000  O
  O15      1.0000 0.23030  0.81120  0.37380  Biso   1.000  O
  O16      1.0000 0.76970  0.18880  0.62620  Biso   1.000  O
  O17      1.0000 0.23350  0.74080  0.24330  Biso   1.000  O
  O18      1.0000 0.76650  0.25920  0.75670  Biso   1.000  O
  O19      1.0000 0.29130  0.16170  0.35480  Biso   1.000  O
  O20      1.0000 0.70870  0.83830  0.64520  Biso   1.000  O
  O21      1.0000 0.15500  0.97970  0.45240  Biso   1.000  O
  O22      1.0000 0.84500  0.02030  0.54760  Biso   1.000  O
  O23      1.0000 0.16980  0.01590  0.31330  Biso   1.000  O
  O24      1.0000 0.83020  0.98410  0.68670  Biso   1.000  O
  O25      1.0000 0.96990  0.08450  0.23820  Biso   1.000  O
  O26      1.0000 0.03010  0.91550  0.76180  Biso   1.000  O
  O27      1.0000 0.45500  0.71740  0.22910  Biso   1.000  O
  O28      1.0000 0.54500  0.28260  0.77090  Biso   1.000  O
  O29      1.0000 0.34630  0.90130  0.26030  Biso   1.000  O
  O30      1.0000 0.65370  0.09870  0.73970  Biso   1.000  O
  O31      1.0000 0.35820  0.98090  0.40400  Biso   1.000  O
  O32      1.0000 0.64180  0.01910  0.59600  Biso   1.000  O
  O33      1.0000 0.28880  0.83450  0.98180  Biso   1.000  O
  O34      1.0000 0.71120  0.16550  0.01820  Biso   1.000  O
  O35      1.0000 0.08310  0.15110  0.13510  Biso   1.000  O
  O36      1.0000 0.91690  0.84890  0.86490  Biso   1.000  O
  O37      1.0000 0.47550  0.10560  0.02950  Biso   1.000  O
  O38      1.0000 0.52450  0.89440  0.97050  Biso   1.000  O
  O39      1.0000 0.56220  0.85570  0.25550  Biso   1.000  O
  O40      1.0000 0.43780  0.14430  0.74450  Biso   1.000  O
  O41      1.0000 0.36650  0.61400  0.33680  Biso   1.000  O
  O42      1.0000 0.63350  0.38600  0.66320  Biso   1.000  O
  O43      1.0000 0.27440  0.20040  0.10150  Biso   1.000  O
  O44      1.0000 0.72560  0.79960  0.89850  Biso   1.000  O
  O45      1.0000 0.02310  0.84000  0.44570  Biso   1.000  O
  O46      1.0000 0.97690  0.16000  0.55430  Biso   1.000  O
  O47      1.0000 0.10880  0.97780  0.05730  Biso   1.000  O
  O48      1.0000 0.89120  0.02220  0.94270  Biso   1.000  O
  O49      1.0000 0.03890  0.70750  0.19910  Biso   1.000  O
  O50      1.0000 0.96110  0.29250  0.80090  Biso   1.000  O
  O51      1.0000 0.31120  0.00310  0.06350  Biso   1.000  O
  O52      1.0000 0.68880  0.99690  0.93650  Biso   1.000  O
  O53      1.0000 0.98970  0.91430  0.16610  Biso   1.000  O
  O54      1.0000 0.01030  0.08570  0.83390  Biso   1.000  O
  O55      1.0000 0.44420  0.78750  0.36320  Biso   1.000  O
  O56      1.0000 0.55580  0.21250  0.63680  Biso   1.000  O
  O57      1.0000 0.97790  0.02810  0.37720  Biso   1.000  O
  O58      1.0000 0.02210  0.97190  0.62280  Biso   1.000  O
  O59      1.0000 0.07650  0.22330  0.26510  Biso   1.000  O
  O60      1.0000 0.92350  0.77670  0.73490  Biso   1.000  O
  O61      1.0000 0.08390  0.16940  0.40160  Biso   1.000  O
  O62      1.0000 0.91610  0.83060  0.59840  Biso   1.000  O
  O63      1.0000 0.48610  0.95730  0.13910  Biso   1.000  O
  O64      1.0000 0.51390  0.04270  0.86090  Biso   1.000  O
  O65      1.0000 0.45930  0.24940  0.30800  Biso   1.000  O
  O66      1.0000 0.54070  0.75060  0.69200  Biso   1.000  O
  O67      1.0000 0.89900  0.09530  0.09740  Biso   1.000  O
  O68      1.0000 0.10100  0.90470  0.90260  Biso   1.000  O
  Cu1      1.0000 0.49490  0.39641  0.35331  Biso   1.000  Cu
  Cu2      1.0000 0.50510  0.60359  0.64669  Biso   1.000  Cu
  Cu3      1.0000 0.99910  0.45757  0.86174  Biso   1.000  Cu
  Cu4      1.0000 0.00090  0.54243  0.13826  Biso   1.000  Cu
  O69      1.0000 0.45110  0.15140  0.17800  Biso   1.000  O
  O70      1.0000 0.54890  0.84860  0.82200  Biso   1.000  O
  O71      1.0000 0.17650  0.79140  0.10840  Biso   1.000  O
  O72      1.0000 0.82350  0.20860  0.89160  Biso   1.000  O
  O73      1.0000 0.26710  0.27290  0.23540  Biso   1.000  O
  O74      1.0000 0.73290  0.72710  0.76460  Biso   1.000  O
  O75      1.0000 0.60770  0.75320  0.12200  Biso   1.000  O
  O76      1.0000 0.39230  0.24680  0.87800  Biso   1.000  O
  O77      1.0000 0.58350  0.90770  0.39810  Biso   1.000  O
  O78      1.0000 0.41650  0.09230  0.60190  Biso   1.000  O
  N1       1.0000 0.59290  0.40620  0.27300  Biso   1.000  N
  N2       1.0000 0.40710  0.59380  0.72700  Biso   1.000  N
  O79      1.0000 0.09360  0.35540  0.15110  Biso   1.000  O
  O80      1.0000 0.90640  0.64460  0.84890  Biso   1.000  O
  N3       1.0000 0.41130  0.40780  0.44480  Biso   1.000  N
  N4       1.0000 0.58870  0.59220  0.55520  Biso   1.000  N
  Cu5      1.0000 0.25208  0.45459  0.24496  Biso   1.000  Cu
  Cu6      1.0000 0.74792  0.54541  0.75504  Biso   1.000  Cu
  N5       1.0000 0.33940  0.46640  0.15910  Biso   1.000  N
  N6       1.0000 0.66060  0.53360  0.84090  Biso   1.000  N
  N7       1.0000 0.09690  0.45050  0.77850  Biso   1.000  N
  N8       1.0000 0.90310  0.54950  0.22150  Biso   1.000  N
  N9       1.0000 0.83950  0.52780  0.66670  Biso   1.000  N
  N10      1.0000 0.16050  0.47220  0.33330  Biso   1.000  N
  C1       1.0000 0.46560  0.49250  0.03350  Biso   1.000  C
  C2       1.0000 0.53440  0.50750  0.96650  Biso   1.000  C
  C3       1.0000 0.72430  0.41990  0.14640  Biso   1.000  C
  C4       1.0000 0.27570  0.58010  0.85360  Biso   1.000  C
  C5       1.0000 0.96720  0.50650  0.53550  Biso   1.000  C
  C6       1.0000 0.03280  0.49350  0.46450  Biso   1.000  C
  C7       1.0000 0.29610  0.42220  0.57840  Biso   1.000  C
  C8       1.0000 0.70390  0.57780  0.42160  Biso   1.000  C
  N11      1.0000 0.91350  0.44910  0.95050  Biso   1.000  N
  N12      1.0000 0.08650  0.55090  0.04950  Biso   1.000  N
  C9       1.0000 0.33990  0.55770  0.13420  Biso   1.000  C
  C10      1.0000 0.66010  0.44230  0.86580  Biso   1.000  C
  H1       1.0000 0.29850  0.61380  0.16050  Biso   1.000  H
  H2       1.0000 0.70150  0.38620  0.83950  Biso   1.000  H
  C11      1.0000 0.23170  0.43060  0.65010  Biso   1.000  C
  C12      1.0000 0.76830  0.56940  0.34990  Biso   1.000  C
  C13      1.0000 0.46630  0.39800  0.06060  Biso   1.000  C
  C14      1.0000 0.53370  0.60200  0.93940  Biso   1.000  C
  H3       1.0000 0.50880  0.34040  0.03650  Biso   1.000  H
  H4       1.0000 0.49120  0.65960  0.96350  Biso   1.000  H
  C15      1.0000 0.40510  0.38830  0.12260  Biso   1.000  C
  C16      1.0000 0.59490  0.61170  0.87740  Biso   1.000  C
  H5       1.0000 0.40940  0.32350  0.14040  Biso   1.000  H
  H6       1.0000 0.59060  0.67650  0.85960  Biso   1.000  H
  C17      1.0000 0.92000  0.59840  0.56600  Biso   1.000  C
  C18      1.0000 0.08000  0.40160  0.43400  Biso   1.000  C
  H7       1.0000 0.06990  0.34350  0.45710  Biso   1.000  H
  H8       1.0000 0.93010  0.65650  0.54290  Biso   1.000  H
  C19      1.0000 0.15660  0.52130  0.66920  Biso   1.000  C
  C20      1.0000 0.84340  0.47870  0.33080  Biso   1.000  C
  H9       1.0000 0.14850  0.57690  0.63880  Biso   1.000  H
  H10      1.0000 0.85150  0.42310  0.36120  Biso   1.000  H
  C21      1.0000 0.79290  0.42990  0.07850  Biso   1.000  C
  C22      1.0000 0.20710  0.57010  0.92150  Biso   1.000  C
  C23      1.0000 0.17280  0.36360  0.75940  Biso   1.000  C
  C24      1.0000 0.82720  0.63640  0.24060  Biso   1.000  C
  H11      1.0000 0.17910  0.30900  0.79050  Biso   1.000  H
  H12      1.0000 0.82090  0.69100  0.20950  Biso   1.000  H
  C25      1.0000 0.85630  0.60730  0.63150  Biso   1.000  C
  C26      1.0000 0.14370  0.39270  0.36850  Biso   1.000  C
  H13      1.0000 0.17520  0.32840  0.34900  Biso   1.000  H
  H14      1.0000 0.82480  0.67160  0.65100  Biso   1.000  H
  C27      1.0000 0.92190  0.35990  0.98050  Biso   1.000  C
  C28      1.0000 0.07810  0.64010  0.01950  Biso   1.000  C
  H15      1.0000 0.96690  0.30310  0.95670  Biso   1.000  H
  H16      1.0000 0.03310  0.69690  0.04330  Biso   1.000  H
  C29      1.0000 0.73610  0.33210  0.18300  Biso   1.000  C
  C30      1.0000 0.26390  0.66790  0.81700  Biso   1.000  C
  H17      1.0000 0.78900  0.27500  0.16610  Biso   1.000  H
  H18      1.0000 0.21100  0.72500  0.83390  Biso   1.000  H
  C31      1.0000 0.39930  0.57440  0.07050  Biso   1.000  C
  C32      1.0000 0.60070  0.42560  0.92950  Biso   1.000  C
  H19      1.0000 0.39380  0.63980  0.05370  Biso   1.000  H
  H20      1.0000 0.60620  0.36020  0.94630  Biso   1.000  H
  C33      1.0000 0.33020  0.33130  0.54220  Biso   1.000  C
  C34      1.0000 0.66980  0.66870  0.45780  Biso   1.000  C
  H21      1.0000 0.31510  0.27340  0.56270  Biso   1.000  H
  H22      1.0000 0.68490  0.72660  0.43730  Biso   1.000  H
  C35      1.0000 0.58550  0.49260  0.23880  Biso   1.000  C
  C36      1.0000 0.41450  0.50740  0.76120  Biso   1.000  C
  H23      1.0000 0.53520  0.55010  0.25770  Biso   1.000  H
  H24      1.0000 0.46480  0.44990  0.74230  Biso   1.000  H
  C37      1.0000 0.24150  0.35080  0.69680  Biso   1.000  C
  C38      1.0000 0.75850  0.64920  0.30320  Biso   1.000  C
  H25      1.0000 0.29300  0.28980  0.68660  Biso   1.000  H
  H26      1.0000 0.70700  0.71020  0.31340  Biso   1.000  H
  C39      1.0000 0.38720  0.32550  0.47510  Biso   1.000  C
  C40      1.0000 0.61280  0.67450  0.52490  Biso   1.000  C
  H27      1.0000 0.40910  0.26360  0.45060  Biso   1.000  H
  H28      1.0000 0.59090  0.73640  0.54940  Biso   1.000  H
  C41      1.0000 0.38000  0.49390  0.47740  Biso   1.000  C
  C42      1.0000 0.62000  0.50610  0.52260  Biso   1.000  C
  H29      1.0000 0.39750  0.54990  0.45520  Biso   1.000  H
  H30      1.0000 0.60250  0.45010  0.54480  Biso   1.000  H
  C43      1.0000 0.86600  0.34600  0.04710  Biso   1.000  C
  C44      1.0000 0.13400  0.65400  0.95290  Biso   1.000  C
  H31      1.0000 0.87800  0.28290  0.06880  Biso   1.000  H
  H32      1.0000 0.12200  0.71710  0.93120  Biso   1.000  H
  C45      1.0000 0.32040  0.50750  0.54500  Biso   1.000  C
  C46      1.0000 0.67960  0.49250  0.45500  Biso   1.000  C
  H33      1.0000 0.29780  0.57110  0.56710  Biso   1.000  H
  H34      1.0000 0.70220  0.42890  0.43290  Biso   1.000  H
  C47      1.0000 0.09430  0.52770  0.73390  Biso   1.000  C
  C48      1.0000 0.90570  0.47230  0.26610  Biso   1.000  C
  H35      1.0000 0.04730  0.59000  0.74730  Biso   1.000  H
  H36      1.0000 0.95270  0.41000  0.25270  Biso   1.000  H
  C49      1.0000 0.64830  0.50240  0.17630  Biso   1.000  C
  C50      1.0000 0.35170  0.49760  0.82370  Biso   1.000  C
  H37      1.0000 0.63910  0.56530  0.15440  Biso   1.000  H
  H38      1.0000 0.36090  0.43470  0.84560  Biso   1.000  H
  C51      1.0000 0.11930  0.56250  0.36250  Biso   1.000  C
  C52      1.0000 0.88070  0.43750  0.63750  Biso   1.000  C
  H39      1.0000 0.13640  0.61810  0.33960  Biso   1.000  H
  H40      1.0000 0.86360  0.38190  0.66040  Biso   1.000  H
  C53      1.0000 0.78340  0.52280  0.04630  Biso   1.000  C
  C54      1.0000 0.21660  0.47720  0.95370  Biso   1.000  C
  H41      1.0000 0.73630  0.58090  0.06710  Biso   1.000  H
  H42      1.0000 0.26370  0.41910  0.93290  Biso   1.000  H
  C55      1.0000 0.67080  0.32570  0.24550  Biso   1.000  C
  C56      1.0000 0.32920  0.67430  0.75450  Biso   1.000  C
  H43      1.0000 0.68090  0.26410  0.26920  Biso   1.000  H
  H44      1.0000 0.31910  0.73590  0.73080  Biso   1.000  H
  C57      1.0000 0.05140  0.57890  0.42610  Biso   1.000  C
  C58      1.0000 0.94860  0.42110  0.57390  Biso   1.000  C
  H45      1.0000 0.01880  0.64430  0.44300  Biso   1.000  H
  H46      1.0000 0.98120  0.35570  0.55700  Biso   1.000  H
  C59      1.0000 0.84570  0.52790  0.98220  Biso   1.000  C
  C60      1.0000 0.15430  0.47210  0.01780  Biso   1.000  C
  H47      1.0000 0.83880  0.59080  0.96070  Biso   1.000  H
  H48      1.0000 0.16120  0.40920  0.03930  Biso   1.000  H
  N13      1.0000 0.75340  0.04140  0.40050  Biso   1.000  N
  N14      1.0000 0.24660  0.95860  0.59950  Biso   1.000  N
  H49      1.0000 0.79560  0.98790  0.41720  Biso   1.000  H
  H50      1.0000 0.20440  0.01210  0.58280  Biso   1.000  H
  H51      1.0000 0.72590  0.09300  0.42850  Biso   1.000  H
  H52      1.0000 0.27410  0.90700  0.57150  Biso   1.000  H
  O81      1.0000 0.67210  0.12320  0.16350  Biso   1.000  O
  O82      1.0000 0.32790  0.87680  0.83650  Biso   1.000  O
  O83      1.0000 0.32620  0.77450  0.51610  Biso   1.000  O
  O84      1.0000 0.67380  0.22550  0.48390  Biso   1.000  O
  C61      1.0000 0.72850  0.04500  0.32470  Biso   1.000  C
  C62      1.0000 0.27150  0.95500  0.67530  Biso   1.000  C
  H53      1.0000 0.75210  0.10030  0.30100  Biso   1.000  H
  H54      1.0000 0.24790  0.89970  0.69900  Biso   1.000  H
  H55      1.0000 0.65000  0.05710  0.32170  Biso   1.000  H
  H56      1.0000 0.35000  0.94290  0.67830  Biso   1.000  H
  C63      1.0000 0.78580  0.94620  0.28670  Biso   1.000  C
  C64      1.0000 0.21420  0.05380  0.71330  Biso   1.000  C
  H57      1.0000 0.86410  0.94000  0.28120  Biso   1.000  H
  H58      1.0000 0.13590  0.06000  0.71880  Biso   1.000  H
  H59      1.0000 0.77300  0.88960  0.31500  Biso   1.000  H
  H60      1.0000 0.22700  0.11040  0.68500  Biso   1.000  H
  N15      1.0000 0.74300  0.94600  0.21580  Biso   1.000  N
  N16      1.0000 0.25700  0.05400  0.78420  Biso   1.000  N
  H61      1.0000 0.69280  0.99660  0.20270  Biso   1.000  H
  H62      1.0000 0.30720  0.00340  0.79730  Biso   1.000  H
  H63      1.0000 0.76700  0.89430  0.18720  Biso   1.000  H
  H64      1.0000 0.23300  0.10570  0.81280  Biso   1.000  H
  O85      1.0000 0.82000  0.84700  0.06270  Biso   1.000  O
  O86      1.0000 0.18000  0.15300  0.93730  Biso   1.000  O
