data_image0
_cell_length_a       13.57
_cell_length_b       15.562
_cell_length_c       19.536
_cell_angle_alpha    76.14
_cell_angle_beta     80.91
_cell_angle_gamma    65.71

_symmetry_space_group_name_H-M    "P 1"
_symmetry_int_tables_number       1

loop_
  _symmetry_equiv_pos_as_xyz
  'x, y, z'

loop_
  _atom_site_label
  _atom_site_occupancy
  _atom_site_fract_x
  _atom_site_fract_y
  _atom_site_fract_z
  _atom_site_thermal_displace_type
  _atom_site_B_iso_or_equiv
  _atom_site_type_symbol
  W1       1.0000 0.72057  0.76700  0.26496  Biso   1.000  W
  W2       1.0000 0.27943  0.23300  0.73504  Biso   1.000  W
  W3       1.0000 0.77001  0.94944  0.30079  Biso   1.000  W
  W4       1.0000 0.22999  0.05056  0.69921  Biso   1.000  W
  W5       1.0000 0.96284  0.77165  0.42948  Biso   1.000  W
  W6       1.0000 0.03716  0.22835  0.57052  Biso   1.000  W
  W7       1.0000 0.17361  0.57995  0.37622  Biso   1.000  W
  W8       1.0000 0.82639  0.42005  0.62378  Biso   1.000  W
  W9       1.0000 0.94362  0.55931  0.20602  Biso   1.000  W
  W10      1.0000 0.05638  0.44069  0.79398  Biso   1.000  W
  W11      1.0000 0.79696  0.91800  0.12888  Biso   1.000  W
  W12      1.0000 0.20304  0.08200  0.87112  Biso   1.000  W
  W13      1.0000 0.20340  0.54553  0.19219  Biso   1.000  W
  W14      1.0000 0.79660  0.45447  0.80781  Biso   1.000  W
  W15      1.0000 0.07306  0.91027  0.11385  Biso   1.000  W
  W16      1.0000 0.92694  0.08973  0.88615  Biso   1.000  W
  W17      1.0000 0.04975  0.93485  0.28692  Biso   1.000  W
  W18      1.0000 0.95025  0.06515  0.71308  Biso   1.000  W
  W19      1.0000 0.25721  0.74180  0.22960  Biso   1.000  W
  W20      1.0000 0.74279  0.25820  0.77040  Biso   1.000  W
  W21      1.0000 0.02378  0.71226  0.07275  Biso   1.000  W
  W22      1.0000 0.97622  0.28774  0.92725  Biso   1.000  W
  W23      1.0000 0.91655  0.58792  0.39057  Biso   1.000  W
  W24      1.0000 0.08345  0.41208  0.60943  Biso   1.000  W
  P1       1.0000 0.99020  0.74680  0.24960  Biso   1.000  P
  P2       1.0000 0.00980  0.25320  0.75040  Biso   1.000  P
  Cu1      1.0000 0.60700  0.14463  0.69979  Biso   1.000  Cu
  Cu2      1.0000 0.39300  0.85537  0.30021  Biso   1.000  Cu
  Cu3      1.0000 0.58766  0.64854  0.19849  Biso   1.000  Cu
  Cu4      1.0000 0.41234  0.35146  0.80151  Biso   1.000  Cu
  Cu5      1.0000 0.35460  0.33600  0.10451  Biso   1.000  Cu
  Cu6      1.0000 0.64540  0.66400  0.89549  Biso   1.000  Cu
  Cu7      1.0000 0.66830  0.17260  0.38424  Biso   1.000  Cu
  Cu8      1.0000 0.33170  0.82740  0.61576  Biso   1.000  Cu
  O1       1.0000 0.78880  0.68750  0.34640  Biso   1.000  O
  O2       1.0000 0.21120  0.31250  0.65360  Biso   1.000  O
  O3       1.0000 0.83720  0.86050  0.38200  Biso   1.000  O
  O4       1.0000 0.16280  0.13950  0.61800  Biso   1.000  O
  O5       1.0000 0.20170  0.84970  0.27610  Biso   1.000  O
  O6       1.0000 0.79830  0.15030  0.72390  Biso   1.000  O
  O7       1.0000 0.94920  0.53920  0.30590  Biso   1.000  O
  O8       1.0000 0.05080  0.46080  0.69410  Biso   1.000  O
  O9       1.0000 0.03310  0.84990  0.37070  Biso   1.000  O
  O10      1.0000 0.96690  0.15010  0.62930  Biso   1.000  O
  O11      1.0000 0.70250  0.85340  0.17530  Biso   1.000  O
  O12      1.0000 0.29750  0.14660  0.82470  Biso   1.000  O
  O13      1.0000 0.06240  0.80510  0.22970  Biso   1.000  O
  O14      1.0000 0.93760  0.19490  0.77030  Biso   1.000  O
  O15      1.0000 0.23200  0.66730  0.31770  Biso   1.000  O
  O16      1.0000 0.76800  0.33270  0.68230  Biso   1.000  O
  O17      1.0000 0.00450  0.69360  0.32720  Biso   1.000  O
  O18      1.0000 0.99550  0.30640  0.67280  Biso   1.000  O
  O19      1.0000 0.92110  0.94670  0.12090  Biso   1.000  O
  O20      1.0000 0.07890  0.05330  0.87910  Biso   1.000  O
  O21      1.0000 0.22000  0.82950  0.14370  Biso   1.000  O
  O22      1.0000 0.78000  0.17050  0.85630  Biso   1.000  O
  O23      1.0000 0.89590  0.97310  0.28200  Biso   1.000  O
  O24      1.0000 0.10410  0.02690  0.71800  Biso   1.000  O
  O25      1.0000 0.39010  0.72050  0.22590  Biso   1.000  O
  O26      1.0000 0.60990  0.27950  0.77410  Biso   1.000  O
  O27      1.0000 0.08070  0.80140  0.08010  Biso   1.000  O
  O28      1.0000 0.91930  0.19860  0.91990  Biso   1.000  O
  O29      1.0000 0.80770  0.66720  0.21580  Biso   1.000  O
  O30      1.0000 0.19230  0.33280  0.78420  Biso   1.000  O
  O31      1.0000 0.59890  0.75470  0.27570  Biso   1.000  O
  O32      1.0000 0.40110  0.24530  0.72430  Biso   1.000  O
  O33      1.0000 0.68230  0.87610  0.30690  Biso   1.000  O
  O34      1.0000 0.31770  0.12390  0.69310  Biso   1.000  O
  O35      1.0000 0.06770  0.52620  0.40950  Biso   1.000  O
  O36      1.0000 0.93230  0.47380  0.59050  Biso   1.000  O
  O37      1.0000 0.74080  0.99170  0.20300  Biso   1.000  O
  O38      1.0000 0.25920  0.00830  0.79700  Biso   1.000  O
  O39      1.0000 0.09790  0.49040  0.20060  Biso   1.000  O
  O40      1.0000 0.90210  0.50960  0.79940  Biso   1.000  O
  O41      1.0000 0.88500  0.80860  0.08910  Biso   1.000  O
  O42      1.0000 0.11500  0.19140  0.91090  Biso   1.000  O
  O43      1.0000 0.72210  0.99420  0.06330  Biso   1.000  O
  O44      1.0000 0.27790  0.00580  0.93670  Biso   1.000  O
  O45      1.0000 0.05820  0.97990  0.18710  Biso   1.000  O
  O46      1.0000 0.94180  0.02010  0.81290  Biso   1.000  O
  O47      1.0000 0.02970  0.71640  0.98370  Biso   1.000  O
  O48      1.0000 0.97030  0.28360  0.01630  Biso   1.000  O
  O49      1.0000 0.25590  0.64100  0.18900  Biso   1.000  O
  O50      1.0000 0.74410  0.35900  0.81100  Biso   1.000  O
  O51      1.0000 0.10140  0.67050  0.43740  Biso   1.000  O
  O52      1.0000 0.89860  0.32950  0.56260  Biso   1.000  O
  O53      1.0000 0.95890  0.61780  0.11010  Biso   1.000  O
  O54      1.0000 0.04110  0.38220  0.88990  Biso   1.000  O
  O55      1.0000 0.89710  0.47650  0.19720  Biso   1.000  O
  O56      1.0000 0.10290  0.52350  0.80280  Biso   1.000  O
  O57      1.0000 0.27660  0.50200  0.42180  Biso   1.000  O
  O58      1.0000 0.72340  0.49800  0.57820  Biso   1.000  O
  O59      1.0000 0.02650  0.67250  0.20250  Biso   1.000  O
  O60      1.0000 0.97350  0.32750  0.79750  Biso   1.000  O
  O61      1.0000 0.87220  0.81410  0.24170  Biso   1.000  O
  O62      1.0000 0.12780  0.18590  0.75830  Biso   1.000  O
  O63      1.0000 0.32160  0.44790  0.17630  Biso   1.000  O
  O64      1.0000 0.67840  0.55210  0.82370  Biso   1.000  O
  O65      1.0000 0.86450  0.51240  0.44530  Biso   1.000  O
  O66      1.0000 0.13550  0.48760  0.55470  Biso   1.000  O
  O67      1.0000 0.15990  0.60730  0.09930  Biso   1.000  O
  O68      1.0000 0.84010  0.39270  0.90070  Biso   1.000  O
  O69      1.0000 0.19440  0.53000  0.29230  Biso   1.000  O
  O70      1.0000 0.80560  0.47000  0.70770  Biso   1.000  O
  O71      1.0000 0.90620  0.67330  0.45040  Biso   1.000  O
  O72      1.0000 0.09380  0.32670  0.54960  Biso   1.000  O
  O73      1.0000 0.06260  0.02140  0.31670  Biso   1.000  O
  O74      1.0000 0.93740  0.97860  0.68330  Biso   1.000  O
  O75      1.0000 0.94070  0.80510  0.50920  Biso   1.000  O
  O76      1.0000 0.05930  0.19490  0.49080  Biso   1.000  O
  O77      1.0000 0.09770  0.98360  0.04220  Biso   1.000  O
  O78      1.0000 0.90230  0.01640  0.95780  Biso   1.000  O
  O79      1.0000 0.67740  0.04570  0.33350  Biso   1.000  O
  O80      1.0000 0.32260  0.95430  0.66650  Biso   1.000  O
  C1       1.0000 0.53490  0.01070  0.80070  Biso   1.000  C
  C2       1.0000 0.46510  0.98930  0.19930  Biso   1.000  C
  H1       1.0000 0.48150  0.02870  0.76960  Biso   1.000  H
  H2       1.0000 0.51850  0.97130  0.23040  Biso   1.000  H
  C3       1.0000 0.53180  0.94870  0.86470  Biso   1.000  C
  C4       1.0000 0.46820  0.05130  0.13530  Biso   1.000  C
  H3       1.0000 0.47730  0.92500  0.87600  Biso   1.000  H
  H4       1.0000 0.52270  0.07500  0.12400  Biso   1.000  H
  C5       1.0000 0.60910  0.92310  0.91060  Biso   1.000  C
  C6       1.0000 0.39090  0.07690  0.08940  Biso   1.000  C
  C7       1.0000 0.69260  0.95500  0.89210  Biso   1.000  C
  C8       1.0000 0.30740  0.04500  0.10790  Biso   1.000  C
  H5       1.0000 0.74930  0.93500  0.92100  Biso   1.000  H
  H6       1.0000 0.25070  0.06500  0.07900  Biso   1.000  H
  C9       1.0000 0.68740  0.01880  0.82780  Biso   1.000  C
  C10      1.0000 0.31260  0.98120  0.17220  Biso   1.000  C
  H7       1.0000 0.74040  0.04440  0.81640  Biso   1.000  H
  H8       1.0000 0.25960  0.95560  0.18360  Biso   1.000  H
  C11      1.0000 0.50400  0.79470  0.07800  Biso   1.000  C
  C12      1.0000 0.49600  0.20530  0.92200  Biso   1.000  C
  H9       1.0000 0.43770  0.79600  0.10020  Biso   1.000  H
  H10      1.0000 0.56230  0.20400  0.89980  Biso   1.000  H
  C13      1.0000 0.50070  0.85970  0.01440  Biso   1.000  C
  C14      1.0000 0.49930  0.14030  0.98560  Biso   1.000  C
  H11      1.0000 0.43520  0.90110  0.99510  Biso   1.000  H
  H12      1.0000 0.56480  0.09890  0.00490  Biso   1.000  H
  C15      1.0000 0.60000  0.86040  0.98050  Biso   1.000  C
  C16      1.0000 0.40000  0.13960  0.01950  Biso   1.000  C
  C17      1.0000 0.69240  0.79750  0.01400  Biso   1.000  C
  C18      1.0000 0.30760  0.20250  0.98600  Biso   1.000  C
  H13      1.0000 0.75940  0.79670  0.99360  Biso   1.000  H
  H14      1.0000 0.24060  0.20330  0.00640  Biso   1.000  H
  C19      1.0000 0.68780  0.73440  0.07840  Biso   1.000  C
  C20      1.0000 0.31220  0.26560  0.92160  Biso   1.000  C
  H15      1.0000 0.75160  0.69370  0.10000  Biso   1.000  H
  H16      1.0000 0.24840  0.30630  0.90000  Biso   1.000  H
  C21      1.0000 0.52620  0.51480  0.30320  Biso   1.000  C
  C22      1.0000 0.47380  0.48520  0.69680  Biso   1.000  C
  H17      1.0000 0.47150  0.53220  0.27320  Biso   1.000  H
  H18      1.0000 0.52850  0.46780  0.72680  Biso   1.000  H
  C23      1.0000 0.52290  0.45610  0.36710  Biso   1.000  C
  C24      1.0000 0.47710  0.54390  0.63290  Biso   1.000  C
  H19      1.0000 0.46570  0.43590  0.37970  Biso   1.000  H
  H20      1.0000 0.53430  0.56410  0.62030  Biso   1.000  H
  C25      1.0000 0.60330  0.42610  0.41350  Biso   1.000  C
  C26      1.0000 0.39670  0.57390  0.58650  Biso   1.000  C
  C27      1.0000 0.68490  0.46120  0.38990  Biso   1.000  C
  C28      1.0000 0.31510  0.53880  0.61010  Biso   1.000  C
  H21      1.0000 0.74270  0.44350  0.41750  Biso   1.000  H
  H22      1.0000 0.25730  0.55650  0.58250  Biso   1.000  H
  C29      1.0000 0.67870  0.52390  0.32380  Biso   1.000  C
  C30      1.0000 0.32130  0.47610  0.67620  Biso   1.000  C
  H23      1.0000 0.73160  0.54920  0.30950  Biso   1.000  H
  H24      1.0000 0.26840  0.45080  0.69050  Biso   1.000  H
  C31      1.0000 0.51190  0.28880  0.57790  Biso   1.000  C
  C32      1.0000 0.48810  0.71120  0.42210  Biso   1.000  C
  H25      1.0000 0.44800  0.28240  0.59850  Biso   1.000  H
  H26      1.0000 0.55200  0.71760  0.40150  Biso   1.000  H
  C33      1.0000 0.50650  0.35270  0.51530  Biso   1.000  C
  C34      1.0000 0.49350  0.64730  0.48470  Biso   1.000  C
  H27      1.0000 0.44090  0.39000  0.49490  Biso   1.000  H
  H28      1.0000 0.55910  0.61000  0.50510  Biso   1.000  H
  C35      1.0000 0.60300  0.36000  0.48300  Biso   1.000  C
  C36      1.0000 0.39700  0.64000  0.51700  Biso   1.000  C
  C37      1.0000 0.69410  0.31140  0.51770  Biso   1.000  C
  C38      1.0000 0.30590  0.68860  0.48230  Biso   1.000  C
  H29      1.0000 0.75710  0.32060  0.49870  Biso   1.000  H
  H30      1.0000 0.24290  0.67940  0.50130  Biso   1.000  H
  C39      1.0000 0.69600  0.24720  0.58200  Biso   1.000  C
  C40      1.0000 0.30400  0.75280  0.41800  Biso   1.000  C
  H31      1.0000 0.76050  0.21330  0.60430  Biso   1.000  H
  H32      1.0000 0.23950  0.78670  0.39570  Biso   1.000  H
  C41      1.0000 0.73500  0.02990  0.52450  Biso   1.000  C
  C42      1.0000 0.26500  0.97010  0.47550  Biso   1.000  C
  H33      1.0000 0.80620  0.02090  0.50860  Biso   1.000  H
  H34      1.0000 0.19380  0.97910  0.49140  Biso   1.000  H
  C43      1.0000 0.71700  0.97700  0.58630  Biso   1.000  C
  C44      1.0000 0.28300  0.02300  0.41370  Biso   1.000  C
  H35      1.0000 0.77360  0.93290  0.61330  Biso   1.000  H
  H36      1.0000 0.22640  0.06710  0.38670  Biso   1.000  H
  C45      1.0000 0.61200  0.99100  0.60830  Biso   1.000  C
  C46      1.0000 0.38800  0.00900  0.39170  Biso   1.000  C
  H37      1.0000 0.59790  0.95790  0.65270  Biso   1.000  H
  H38      1.0000 0.40210  0.04210  0.34730  Biso   1.000  H
  C47      1.0000 0.52700  0.04960  0.56900  Biso   1.000  C
  C48      1.0000 0.47300  0.95040  0.43100  Biso   1.000  C
  H39      1.0000 0.45610  0.05350  0.58120  Biso   1.000  H
  H40      1.0000 0.54390  0.94650  0.41880  Biso   1.000  H
  C49      1.0000 0.55700  0.10360  0.50810  Biso   1.000  C
  C50      1.0000 0.44300  0.89640  0.49190  Biso   1.000  C
  C51      1.0000 0.47470  0.17570  0.46090  Biso   1.000  C
  C52      1.0000 0.52530  0.82430  0.53910  Biso   1.000  C
  C53      1.0000 0.36000  0.20580  0.47710  Biso   1.000  C
  C54      1.0000 0.64000  0.79420  0.52290  Biso   1.000  C
  H41      1.0000 0.33500  0.18040  0.52110  Biso   1.000  H
  H42      1.0000 0.66500  0.81960  0.47890  Biso   1.000  H
  C55      1.0000 0.28600  0.27000  0.43080  Biso   1.000  C
  C56      1.0000 0.71400  0.73000  0.56920  Biso   1.000  C
  H43      1.0000 0.21250  0.28940  0.44360  Biso   1.000  H
  H44      1.0000 0.78750  0.71060  0.55640  Biso   1.000  H
  C57      1.0000 0.32300  0.30720  0.36240  Biso   1.000  C
  C58      1.0000 0.67700  0.69280  0.63760  Biso   1.000  C
  H45      1.0000 0.27650  0.35150  0.32880  Biso   1.000  H
  H46      1.0000 0.72350  0.64850  0.67120  Biso   1.000  H
  C59      1.0000 0.43450  0.27210  0.34990  Biso   1.000  C
  C60      1.0000 0.56550  0.72790  0.65010  Biso   1.000  C
  H47      1.0000 0.46160  0.29010  0.30450  Biso   1.000  H
  H48      1.0000 0.53840  0.70990  0.69550  Biso   1.000  H
  C61      1.0000 0.27600  0.49110  0.97060  Biso   1.000  C
  C62      1.0000 0.72400  0.50890  0.02940  Biso   1.000  C
  H49      1.0000 0.20630  0.50430  0.99180  Biso   1.000  H
  H50      1.0000 0.79370  0.49570  0.00820  Biso   1.000  H
  C63      1.0000 0.29100  0.54080  0.90470  Biso   1.000  C
  C64      1.0000 0.70900  0.45920  0.09530  Biso   1.000  C
  H51      1.0000 0.23300  0.58310  0.87790  Biso   1.000  H
  H52      1.0000 0.76700  0.41690  0.12210  Biso   1.000  H
  C65      1.0000 0.39400  0.52500  0.88040  Biso   1.000  C
  C66      1.0000 0.60600  0.47500  0.11960  Biso   1.000  C
  H53      1.0000 0.40520  0.56080  0.83660  Biso   1.000  H
  H54      1.0000 0.59480  0.43920  0.16340  Biso   1.000  H
  C67      1.0000 0.48600  0.46070  0.91480  Biso   1.000  C
  C68      1.0000 0.51400  0.53930  0.08520  Biso   1.000  C
  H55      1.0000 0.55680  0.45080  0.89730  Biso   1.000  H
  H56      1.0000 0.44320  0.54920  0.10270  Biso   1.000  H
  C69      1.0000 0.45680  0.41340  0.97880  Biso   1.000  C
  C70      1.0000 0.54320  0.58660  0.02120  Biso   1.000  C
  C71      1.0000 0.54570  0.33510  0.02270  Biso   1.000  C
  C72      1.0000 0.45430  0.66490  0.97730  Biso   1.000  C
  C73      1.0000 0.66000  0.29710  0.00230  Biso   1.000  C
  C74      1.0000 0.34000  0.70290  0.99770  Biso   1.000  C
  H57      1.0000 0.68270  0.31980  0.95670  Biso   1.000  H
  H58      1.0000 0.31730  0.68020  0.04330  Biso   1.000  H
  C75      1.0000 0.73480  0.23150  0.04450  Biso   1.000  C
  C76      1.0000 0.26520  0.76850  0.95550  Biso   1.000  C
  H59      1.0000 0.80820  0.21230  0.03020  Biso   1.000  H
  H60      1.0000 0.19180  0.78770  0.96980  Biso   1.000  H
  C77      1.0000 0.70030  0.19290  0.11030  Biso   1.000  C
  C78      1.0000 0.29970  0.80710  0.88970  Biso   1.000  C
  H61      1.0000 0.74840  0.14410  0.14120  Biso   1.000  H
  H62      1.0000 0.25160  0.85590  0.85880  Biso   1.000  H
  C79      1.0000 0.58900  0.23150  0.12770  Biso   1.000  C
  C80      1.0000 0.41100  0.76850  0.87230  Biso   1.000  C
  H63      1.0000 0.56620  0.21020  0.17360  Biso   1.000  H
  H64      1.0000 0.43380  0.78980  0.82640  Biso   1.000  H
  C81      1.0000 0.14760  0.32010  0.11650  Biso   1.000  C
  C82      1.0000 0.85240  0.67990  0.88350  Biso   1.000  C
  H65      1.0000 0.14350  0.35100  0.06940  Biso   1.000  H
  H66      1.0000 0.85650  0.64900  0.93060  Biso   1.000  H
  C83      1.0000 0.06270  0.30180  0.15190  Biso   1.000  C
  C84      1.0000 0.93730  0.69820  0.84810  Biso   1.000  C
  H67      1.0000 0.00180  0.31910  0.12740  Biso   1.000  H
  H68      1.0000 0.99820  0.68090  0.87260  Biso   1.000  H
  C85      1.0000 0.06040  0.25870  0.22270  Biso   1.000  C
  C86      1.0000 0.93960  0.74130  0.77730  Biso   1.000  C
  C87      1.0000 0.15360  0.23620  0.25570  Biso   1.000  C
  C88      1.0000 0.84640  0.76380  0.74430  Biso   1.000  C
  H69      1.0000 0.15900  0.20810  0.30340  Biso   1.000  H
  H70      1.0000 0.84100  0.79190  0.69660  Biso   1.000  H
  C89      1.0000 0.23890  0.25650  0.21610  Biso   1.000  C
  C90      1.0000 0.76110  0.74350  0.78390  Biso   1.000  C
  H71      1.0000 0.29960  0.24230  0.23990  Biso   1.000  H
  H72      1.0000 0.70040  0.75770  0.76010  Biso   1.000  H
  C91      1.0000 0.80510  0.21350  0.26280  Biso   1.000  C
  C92      1.0000 0.19490  0.78650  0.73720  Biso   1.000  C
  H73      1.0000 0.75480  0.20970  0.23760  Biso   1.000  H
  H74      1.0000 0.24520  0.79030  0.76240  Biso   1.000  H
  C93      1.0000 0.89460  0.22520  0.22670  Biso   1.000  C
  C94      1.0000 0.10540  0.77480  0.77330  Biso   1.000  C
  H75      1.0000 0.90820  0.22230  0.17890  Biso   1.000  H
  H76      1.0000 0.09180  0.77770  0.82110  Biso   1.000  H
  C95      1.0000 0.96200  0.24090  0.25950  Biso   1.000  C
  C96      1.0000 0.03800  0.75910  0.74050  Biso   1.000  C
  C97      1.0000 0.94550  0.23530  0.33150  Biso   1.000  C
  C98      1.0000 0.05450  0.76470  0.66850  Biso   1.000  C
  H77      1.0000 0.99420  0.24310  0.35570  Biso   1.000  H
  H78      1.0000 0.00580  0.75690  0.64430  Biso   1.000  H
  C99      1.0000 0.85900  0.21800  0.36820  Biso   1.000  C
  C100     1.0000 0.14100  0.78200  0.63180  Biso   1.000  C
  H79      1.0000 0.84930  0.21480  0.41690  Biso   1.000  H
  H80      1.0000 0.15070  0.78520  0.58310  Biso   1.000  H
  N1       1.0000 0.61480  0.04570  0.78250  Biso   1.000  N
  N2       1.0000 0.38520  0.95430  0.21750  Biso   1.000  N
  N3       1.0000 0.59100  0.73170  0.10990  Biso   1.000  N
  N4       1.0000 0.40900  0.26830  0.89010  Biso   1.000  N
  N5       1.0000 0.60250  0.54760  0.28230  Biso   1.000  N
  N6       1.0000 0.39750  0.45240  0.71770  Biso   1.000  N
  N7       1.0000 0.60460  0.23380  0.61220  Biso   1.000  N
  N8       1.0000 0.39540  0.76620  0.38780  Biso   1.000  N
  N9       1.0000 0.65680  0.09380  0.48500  Biso   1.000  N
  N10      1.0000 0.34320  0.90620  0.51500  Biso   1.000  N
  N11      1.0000 0.50710  0.21440  0.39750  Biso   1.000  N
  N12      1.0000 0.49290  0.78560  0.60250  Biso   1.000  N
  N13      1.0000 0.51210  0.29480  0.08630  Biso   1.000  N
  N14      1.0000 0.48790  0.70520  0.91370  Biso   1.000  N
  N15      1.0000 0.36230  0.42240  0.00530  Biso   1.000  N
  N16      1.0000 0.63770  0.57760  0.99470  Biso   1.000  N
  N17      1.0000 0.24180  0.29260  0.15070  Biso   1.000  N
  N18      1.0000 0.75820  0.70740  0.84930  Biso   1.000  N
  N19      1.0000 0.78570  0.20710  0.33430  Biso   1.000  N
  N20      1.0000 0.21430  0.79290  0.66570  Biso   1.000  N
  O81      1.0000 0.00000  0.50000  0.00000  Biso   1.000  O
