data_image0
_cell_length_a       12.3432
_cell_length_b       13.2611
_cell_length_c       15.5179
_cell_angle_alpha    90
_cell_angle_beta     98.992
_cell_angle_gamma    90

_symmetry_space_group_name_H-M    "P 1"
_symmetry_int_tables_number       1

loop_
  _symmetry_equiv_pos_as_xyz
  'x, y, z'

loop_
  _atom_site_label
  _atom_site_occupancy
  _atom_site_fract_x
  _atom_site_fract_y
  _atom_site_fract_z
  _atom_site_thermal_displace_type
  _atom_site_B_iso_or_equiv
  _atom_site_type_symbol
  Cu1      1.0000 0.67661  0.25183  0.56808  Biso   1.000  Cu
  Cu2      1.0000 0.17661  0.75183  0.56808  Biso   1.000  Cu
  Cu3      1.0000 0.32339  0.25183  0.93192  Biso   1.000  Cu
  Cu4      1.0000 0.82339  0.75183  0.93192  Biso   1.000  Cu
  Cu5      1.0000 0.32339  0.74817  0.43192  Biso   1.000  Cu
  Cu6      1.0000 0.82339  0.24817  0.43192  Biso   1.000  Cu
  Cu7      1.0000 0.67661  0.74817  0.06808  Biso   1.000  Cu
  Cu8      1.0000 0.17661  0.24817  0.06808  Biso   1.000  Cu
  S1       1.0000 0.71478  0.24875  0.77139  Biso   1.000  S
  S2       1.0000 0.21478  0.74875  0.77139  Biso   1.000  S
  S3       1.0000 0.28522  0.24875  0.72861  Biso   1.000  S
  S4       1.0000 0.78522  0.74875  0.72861  Biso   1.000  S
  S5       1.0000 0.28522  0.75125  0.22861  Biso   1.000  S
  S6       1.0000 0.78522  0.25125  0.22861  Biso   1.000  S
  S7       1.0000 0.71478  0.75125  0.27139  Biso   1.000  S
  S8       1.0000 0.21478  0.25125  0.27139  Biso   1.000  S
  Cl1      1.0000 0.63766  0.19728  0.42107  Biso   1.000  Cl
  Cl2      1.0000 0.13766  0.69728  0.42107  Biso   1.000  Cl
  Cl3      1.0000 0.36234  0.19728  0.07893  Biso   1.000  Cl
  Cl4      1.0000 0.86234  0.69728  0.07893  Biso   1.000  Cl
  Cl5      1.0000 0.36234  0.80272  0.57893  Biso   1.000  Cl
  Cl6      1.0000 0.86234  0.30272  0.57893  Biso   1.000  Cl
  Cl7      1.0000 0.63766  0.80272  0.92107  Biso   1.000  Cl
  Cl8      1.0000 0.13766  0.30272  0.92107  Biso   1.000  Cl
  N1       1.0000 0.66670  0.12565  0.64085  Biso   1.000  N
  N2       1.0000 0.16670  0.62565  0.64085  Biso   1.000  N
  N3       1.0000 0.33330  0.12565  0.85915  Biso   1.000  N
  N4       1.0000 0.83330  0.62565  0.85915  Biso   1.000  N
  N5       1.0000 0.33330  0.87435  0.35915  Biso   1.000  N
  N6       1.0000 0.83330  0.37435  0.35915  Biso   1.000  N
  N7       1.0000 0.66670  0.87435  0.14085  Biso   1.000  N
  N8       1.0000 0.16670  0.37435  0.14085  Biso   1.000  N
  C1       1.0000 0.63420  0.03710  0.60370  Biso   1.000  C
  C2       1.0000 0.13420  0.53710  0.60370  Biso   1.000  C
  C3       1.0000 0.36580  0.03710  0.89630  Biso   1.000  C
  C4       1.0000 0.86580  0.53710  0.89630  Biso   1.000  C
  C5       1.0000 0.36580  0.96290  0.39630  Biso   1.000  C
  C6       1.0000 0.86580  0.46290  0.39630  Biso   1.000  C
  C7       1.0000 0.63420  0.96290  0.10370  Biso   1.000  C
  C8       1.0000 0.13420  0.46290  0.10370  Biso   1.000  C
  H1       1.0000 0.62620  0.03130  0.54330  Biso   1.000  H
  H2       1.0000 0.12620  0.53130  0.54330  Biso   1.000  H
  H3       1.0000 0.37380  0.03130  0.95670  Biso   1.000  H
  H4       1.0000 0.87380  0.53130  0.95670  Biso   1.000  H
  H5       1.0000 0.37380  0.96870  0.45670  Biso   1.000  H
  H6       1.0000 0.87380  0.46870  0.45670  Biso   1.000  H
  H7       1.0000 0.62620  0.96870  0.04330  Biso   1.000  H
  H8       1.0000 0.12620  0.46870  0.04330  Biso   1.000  H
  S9       1.0000 0.57245  0.22466  0.91426  Biso   1.000  S
  S10      1.0000 0.07245  0.72466  0.91426  Biso   1.000  S
  S11      1.0000 0.42755  0.22466  0.58574  Biso   1.000  S
  S12      1.0000 0.92755  0.72466  0.58574  Biso   1.000  S
  S13      1.0000 0.42755  0.77534  0.08574  Biso   1.000  S
  S14      1.0000 0.92755  0.27534  0.08574  Biso   1.000  S
  S15      1.0000 0.57245  0.77534  0.41426  Biso   1.000  S
  S16      1.0000 0.07245  0.27534  0.41426  Biso   1.000  S
  C9       1.0000 0.61250  0.95520  0.65190  Biso   1.000  C
  C10      1.0000 0.11250  0.45520  0.65190  Biso   1.000  C
  C11      1.0000 0.38750  0.95520  0.84810  Biso   1.000  C
  C12      1.0000 0.88750  0.45520  0.84810  Biso   1.000  C
  C13      1.0000 0.38750  0.04480  0.34810  Biso   1.000  C
  C14      1.0000 0.88750  0.54480  0.34810  Biso   1.000  C
  C15      1.0000 0.61250  0.04480  0.15190  Biso   1.000  C
  C16      1.0000 0.11250  0.54480  0.15190  Biso   1.000  C
  H9       1.0000 0.58810  0.89450  0.62560  Biso   1.000  H
  H10      1.0000 0.08810  0.39450  0.62560  Biso   1.000  H
  H11      1.0000 0.41190  0.89450  0.87440  Biso   1.000  H
  H12      1.0000 0.91190  0.39450  0.87440  Biso   1.000  H
  H13      1.0000 0.41190  0.10550  0.37440  Biso   1.000  H
  H14      1.0000 0.91190  0.60550  0.37440  Biso   1.000  H
  H15      1.0000 0.58810  0.10550  0.12560  Biso   1.000  H
  H16      1.0000 0.08810  0.60550  0.12560  Biso   1.000  H
  N9       1.0000 0.66030  0.05390  0.78057  Biso   1.000  N
  N10      1.0000 0.16030  0.55390  0.78057  Biso   1.000  N
  N11      1.0000 0.33970  0.05390  0.71943  Biso   1.000  N
  N12      1.0000 0.83970  0.55390  0.71943  Biso   1.000  N
  N13      1.0000 0.33970  0.94610  0.21943  Biso   1.000  N
  N14      1.0000 0.83970  0.44610  0.21943  Biso   1.000  N
  N15      1.0000 0.66030  0.94610  0.28057  Biso   1.000  N
  N16      1.0000 0.16030  0.44610  0.28057  Biso   1.000  N
  C17      1.0000 0.62830  0.96690  0.74040  Biso   1.000  C
  C18      1.0000 0.12830  0.46690  0.74040  Biso   1.000  C
  C19      1.0000 0.37170  0.96690  0.75960  Biso   1.000  C
  C20      1.0000 0.87170  0.46690  0.75960  Biso   1.000  C
  C21      1.0000 0.37170  0.03310  0.25960  Biso   1.000  C
  C22      1.0000 0.87170  0.53310  0.25960  Biso   1.000  C
  C23      1.0000 0.62830  0.03310  0.24040  Biso   1.000  C
  C24      1.0000 0.12830  0.53310  0.24040  Biso   1.000  C
  H17      1.0000 0.61630  0.91170  0.77470  Biso   1.000  H
  H18      1.0000 0.11630  0.41170  0.77470  Biso   1.000  H
  H19      1.0000 0.38370  0.91170  0.72530  Biso   1.000  H
  H20      1.0000 0.88370  0.41170  0.72530  Biso   1.000  H
  H21      1.0000 0.38370  0.08830  0.22530  Biso   1.000  H
  H22      1.0000 0.88370  0.58830  0.22530  Biso   1.000  H
  H23      1.0000 0.61630  0.08830  0.27470  Biso   1.000  H
  H24      1.0000 0.11630  0.58830  0.27470  Biso   1.000  H
  N17      1.0000 0.60210  0.42150  0.88730  Biso   1.000  N
  N18      1.0000 0.10210  0.92150  0.88730  Biso   1.000  N
  N19      1.0000 0.39790  0.42150  0.61270  Biso   1.000  N
  N20      1.0000 0.89790  0.92150  0.61270  Biso   1.000  N
  N21      1.0000 0.39790  0.57850  0.11270  Biso   1.000  N
  N22      1.0000 0.89790  0.07850  0.11270  Biso   1.000  N
  N23      1.0000 0.60210  0.57850  0.38730  Biso   1.000  N
  N24      1.0000 0.10210  0.07850  0.38730  Biso   1.000  N
  N25      1.0000 0.42490  0.36602  0.90977  Biso   1.000  N
  N26      1.0000 0.92490  0.86602  0.90977  Biso   1.000  N
  N27      1.0000 0.57510  0.36602  0.59023  Biso   1.000  N
  N28      1.0000 0.07510  0.86602  0.59023  Biso   1.000  N
  N29      1.0000 0.57510  0.63398  0.09023  Biso   1.000  N
  N30      1.0000 0.07510  0.13398  0.09023  Biso   1.000  N
  N31      1.0000 0.42490  0.63398  0.40977  Biso   1.000  N
  N32      1.0000 0.92490  0.13398  0.40977  Biso   1.000  N
  C25      1.0000 0.67630  0.12900  0.72800  Biso   1.000  C
  C26      1.0000 0.17630  0.62900  0.72800  Biso   1.000  C
  C27      1.0000 0.32370  0.12900  0.77200  Biso   1.000  C
  C28      1.0000 0.82370  0.62900  0.77200  Biso   1.000  C
  C29      1.0000 0.32370  0.87100  0.27200  Biso   1.000  C
  C30      1.0000 0.82370  0.37100  0.27200  Biso   1.000  C
  C31      1.0000 0.67630  0.87100  0.22800  Biso   1.000  C
  C32      1.0000 0.17630  0.37100  0.22800  Biso   1.000  C
  C33      1.0000 0.70800  0.23080  0.88530  Biso   1.000  C
  C34      1.0000 0.20800  0.73080  0.88530  Biso   1.000  C
  C35      1.0000 0.29200  0.23080  0.61470  Biso   1.000  C
  C36      1.0000 0.79200  0.73080  0.61470  Biso   1.000  C
  C37      1.0000 0.29200  0.76920  0.11470  Biso   1.000  C
  C38      1.0000 0.79200  0.26920  0.11470  Biso   1.000  C
  C39      1.0000 0.70800  0.76920  0.38530  Biso   1.000  C
  C40      1.0000 0.20800  0.26920  0.38530  Biso   1.000  C
  H25      1.0000 0.74730  0.28570  0.91770  Biso   1.000  H
  H26      1.0000 0.24730  0.78570  0.91770  Biso   1.000  H
  H27      1.0000 0.25270  0.28570  0.58230  Biso   1.000  H
  H28      1.0000 0.75270  0.78570  0.58230  Biso   1.000  H
  H29      1.0000 0.25270  0.71430  0.08230  Biso   1.000  H
  H30      1.0000 0.75270  0.21430  0.08230  Biso   1.000  H
  H31      1.0000 0.74730  0.71430  0.41770  Biso   1.000  H
  H32      1.0000 0.24730  0.21430  0.41770  Biso   1.000  H
  H33      1.0000 0.74630  0.16880  0.90420  Biso   1.000  H
  H34      1.0000 0.24630  0.66880  0.90420  Biso   1.000  H
  H35      1.0000 0.25370  0.16880  0.59580  Biso   1.000  H
  H36      1.0000 0.75370  0.66880  0.59580  Biso   1.000  H
  H37      1.0000 0.25370  0.83120  0.09580  Biso   1.000  H
  H38      1.0000 0.75370  0.33120  0.09580  Biso   1.000  H
  H39      1.0000 0.74630  0.83120  0.40420  Biso   1.000  H
  H40      1.0000 0.24630  0.33120  0.40420  Biso   1.000  H
  C41      1.0000 0.53060  0.35110  0.90250  Biso   1.000  C
  C42      1.0000 0.03060  0.85110  0.90250  Biso   1.000  C
  C43      1.0000 0.46940  0.35110  0.59750  Biso   1.000  C
  C44      1.0000 0.96940  0.85110  0.59750  Biso   1.000  C
  C45      1.0000 0.46940  0.64890  0.09750  Biso   1.000  C
  C46      1.0000 0.96940  0.14890  0.09750  Biso   1.000  C
  C47      1.0000 0.53060  0.64890  0.40250  Biso   1.000  C
  C48      1.0000 0.03060  0.14890  0.40250  Biso   1.000  C
  C49      1.0000 0.38910  0.46100  0.89900  Biso   1.000  C
  C50      1.0000 0.88910  0.96100  0.89900  Biso   1.000  C
  C51      1.0000 0.61090  0.46100  0.60100  Biso   1.000  C
  C52      1.0000 0.11090  0.96100  0.60100  Biso   1.000  C
  C53      1.0000 0.61090  0.53900  0.10100  Biso   1.000  C
  C54      1.0000 0.11090  0.03900  0.10100  Biso   1.000  C
  C55      1.0000 0.38910  0.53900  0.39900  Biso   1.000  C
  C56      1.0000 0.88910  0.03900  0.39900  Biso   1.000  C
  H41      1.0000 0.31650  0.47500  0.90400  Biso   1.000  H
  H42      1.0000 0.81650  0.97500  0.90400  Biso   1.000  H
  H43      1.0000 0.68350  0.47500  0.59600  Biso   1.000  H
  H44      1.0000 0.18350  0.97500  0.59600  Biso   1.000  H
  H45      1.0000 0.68350  0.52500  0.09600  Biso   1.000  H
  H46      1.0000 0.18350  0.02500  0.09600  Biso   1.000  H
  H47      1.0000 0.31650  0.52500  0.40400  Biso   1.000  H
  H48      1.0000 0.81650  0.02500  0.40400  Biso   1.000  H
  C57      1.0000 0.45520  0.53840  0.88080  Biso   1.000  C
  C58      1.0000 0.95520  0.03840  0.88080  Biso   1.000  C
  C59      1.0000 0.54480  0.53840  0.61920  Biso   1.000  C
  C60      1.0000 0.04480  0.03840  0.61920  Biso   1.000  C
  C61      1.0000 0.54480  0.46160  0.11920  Biso   1.000  C
  C62      1.0000 0.04480  0.96160  0.11920  Biso   1.000  C
  C63      1.0000 0.45520  0.46160  0.38080  Biso   1.000  C
  C64      1.0000 0.95520  0.96160  0.38080  Biso   1.000  C
  H49      1.0000 0.42860  0.60370  0.87160  Biso   1.000  H
  H50      1.0000 0.92860  0.10370  0.87160  Biso   1.000  H
  H51      1.0000 0.57140  0.60370  0.62840  Biso   1.000  H
  H52      1.0000 0.07140  0.10370  0.62840  Biso   1.000  H
  H53      1.0000 0.57140  0.39630  0.12840  Biso   1.000  H
  H54      1.0000 0.07140  0.89630  0.12840  Biso   1.000  H
  H55      1.0000 0.42860  0.39630  0.37160  Biso   1.000  H
  H56      1.0000 0.92860  0.89630  0.37160  Biso   1.000  H
  C65      1.0000 0.56280  0.51520  0.87680  Biso   1.000  C
  C66      1.0000 0.06280  0.01520  0.87680  Biso   1.000  C
  C67      1.0000 0.43720  0.51520  0.62320  Biso   1.000  C
  C68      1.0000 0.93720  0.01520  0.62320  Biso   1.000  C
  C69      1.0000 0.43720  0.48480  0.12320  Biso   1.000  C
  C70      1.0000 0.93720  0.98480  0.12320  Biso   1.000  C
  C71      1.0000 0.56280  0.48480  0.37680  Biso   1.000  C
  C72      1.0000 0.06280  0.98480  0.37680  Biso   1.000  C
  H57      1.0000 0.61010  0.56680  0.86650  Biso   1.000  H
  H58      1.0000 0.11010  0.06680  0.86650  Biso   1.000  H
  H59      1.0000 0.38990  0.56680  0.63350  Biso   1.000  H
  H60      1.0000 0.88990  0.06680  0.63350  Biso   1.000  H
  H61      1.0000 0.38990  0.43320  0.13350  Biso   1.000  H
  H62      1.0000 0.88990  0.93320  0.13350  Biso   1.000  H
  H63      1.0000 0.61010  0.43320  0.36650  Biso   1.000  H
  H64      1.0000 0.11010  0.93320  0.36650  Biso   1.000  H
