data_image0
_cell_length_a       13.618
_cell_length_b       21.564
_cell_length_c       18.854
_cell_angle_alpha    90
_cell_angle_beta     92.419
_cell_angle_gamma    90

_symmetry_space_group_name_H-M    "P 1"
_symmetry_int_tables_number       1

loop_
  _symmetry_equiv_pos_as_xyz
  'x, y, z'

loop_
  _atom_site_label
  _atom_site_occupancy
  _atom_site_fract_x
  _atom_site_fract_y
  _atom_site_fract_z
  _atom_site_thermal_displace_type
  _atom_site_B_iso_or_equiv
  _atom_site_type_symbol
  Cu1      1.0000 0.42716  0.08395  0.11681  Biso   1.000  Cu
  Cu2      1.0000 0.92716  0.41605  0.61681  Biso   1.000  Cu
  Cu3      1.0000 0.57284  0.91605  0.88319  Biso   1.000  Cu
  Cu4      1.0000 0.07284  0.58395  0.38319  Biso   1.000  Cu
  N1       1.0000 0.00480  0.17090  0.41140  Biso   1.000  N
  N2       1.0000 0.50480  0.32910  0.91140  Biso   1.000  N
  N3       1.0000 0.99520  0.82910  0.58860  Biso   1.000  N
  N4       1.0000 0.49520  0.67090  0.08860  Biso   1.000  N
  N5       1.0000 0.05810  0.16010  0.34980  Biso   1.000  N
  N6       1.0000 0.55810  0.33990  0.84980  Biso   1.000  N
  N7       1.0000 0.94190  0.83990  0.65020  Biso   1.000  N
  N8       1.0000 0.44190  0.66010  0.15020  Biso   1.000  N
  N9       1.0000 0.86530  0.22570  0.27860  Biso   1.000  N
  N10      1.0000 0.36530  0.27430  0.77860  Biso   1.000  N
  N11      1.0000 0.13470  0.77430  0.72140  Biso   1.000  N
  N12      1.0000 0.63470  0.72570  0.22140  Biso   1.000  N
  N13      1.0000 0.89870  0.27970  0.31400  Biso   1.000  N
  N14      1.0000 0.39870  0.22030  0.81400  Biso   1.000  N
  N15      1.0000 0.10130  0.72030  0.68600  Biso   1.000  N
  N16      1.0000 0.60130  0.77970  0.18600  Biso   1.000  N
  C1       1.0000 0.91370  0.18130  0.39480  Biso   1.000  C
  C2       1.0000 0.41370  0.31870  0.89480  Biso   1.000  C
  C3       1.0000 0.08630  0.81870  0.60520  Biso   1.000  C
  C4       1.0000 0.58630  0.68130  0.10520  Biso   1.000  C
  C5       1.0000 0.87460  0.17730  0.31880  Biso   1.000  C
  C6       1.0000 0.37460  0.32270  0.81880  Biso   1.000  C
  C7       1.0000 0.12540  0.82270  0.68120  Biso   1.000  C
  C8       1.0000 0.62540  0.67730  0.18120  Biso   1.000  C
  C9       1.0000 0.84480  0.19520  0.45150  Biso   1.000  C
  C10      1.0000 0.34480  0.30480  0.95150  Biso   1.000  C
  C11      1.0000 0.15520  0.80480  0.54850  Biso   1.000  C
  C12      1.0000 0.65520  0.69520  0.04850  Biso   1.000  C
  C13      1.0000 0.87150  0.18200  0.52160  Biso   1.000  C
  C14      1.0000 0.37150  0.31800  0.02160  Biso   1.000  C
  C15      1.0000 0.12850  0.81800  0.47840  Biso   1.000  C
  C16      1.0000 0.62850  0.68200  0.97840  Biso   1.000  C
  H1       1.0000 0.93250  0.16230  0.53270  Biso   1.000  H
  H2       1.0000 0.43250  0.33770  0.03270  Biso   1.000  H
  H3       1.0000 0.06750  0.83770  0.46730  Biso   1.000  H
  H4       1.0000 0.56750  0.66230  0.96730  Biso   1.000  H
  C17      1.0000 0.81070  0.19720  0.57550  Biso   1.000  C
  C18      1.0000 0.31070  0.30280  0.07550  Biso   1.000  C
  C19      1.0000 0.18930  0.80280  0.42450  Biso   1.000  C
  C20      1.0000 0.68930  0.69720  0.92450  Biso   1.000  C
  H5       1.0000 0.82980  0.18880  0.62350  Biso   1.000  H
  H6       1.0000 0.32980  0.31120  0.12350  Biso   1.000  H
  H7       1.0000 0.17020  0.81120  0.37650  Biso   1.000  H
  H8       1.0000 0.67020  0.68880  0.87650  Biso   1.000  H
  C21      1.0000 0.71990  0.22530  0.55800  Biso   1.000  C
  C22      1.0000 0.21990  0.27470  0.05800  Biso   1.000  C
  C23      1.0000 0.28010  0.77470  0.44200  Biso   1.000  C
  C24      1.0000 0.78010  0.72530  0.94200  Biso   1.000  C
  H9       1.0000 0.67770  0.23680  0.59460  Biso   1.000  H
  H10      1.0000 0.17770  0.26320  0.09460  Biso   1.000  H
  H11      1.0000 0.32230  0.76320  0.40540  Biso   1.000  H
  H12      1.0000 0.82230  0.73680  0.90540  Biso   1.000  H
  C25      1.0000 0.69160  0.23630  0.48830  Biso   1.000  C
  C26      1.0000 0.19160  0.26370  0.98830  Biso   1.000  C
  C27      1.0000 0.30840  0.76370  0.51170  Biso   1.000  C
  C28      1.0000 0.80840  0.73630  0.01170  Biso   1.000  C
  H13      1.0000 0.62960  0.25470  0.47700  Biso   1.000  H
  H14      1.0000 0.12960  0.24530  0.97700  Biso   1.000  H
  H15      1.0000 0.37040  0.74530  0.52300  Biso   1.000  H
  H16      1.0000 0.87040  0.75470  0.02300  Biso   1.000  H
  C29      1.0000 0.75310  0.22070  0.43470  Biso   1.000  C
  C30      1.0000 0.25310  0.27930  0.93470  Biso   1.000  C
  C31      1.0000 0.24690  0.77930  0.56530  Biso   1.000  C
  C32      1.0000 0.74690  0.72070  0.06530  Biso   1.000  C
  H17      1.0000 0.73270  0.22740  0.38650  Biso   1.000  H
  H18      1.0000 0.23270  0.27260  0.88650  Biso   1.000  H
  H19      1.0000 0.26730  0.77260  0.61350  Biso   1.000  H
  H20      1.0000 0.76730  0.72740  0.11350  Biso   1.000  H
  C33      1.0000 0.85020  0.11650  0.29090  Biso   1.000  C
  C34      1.0000 0.35020  0.38350  0.79090  Biso   1.000  C
  C35      1.0000 0.14980  0.88350  0.70910  Biso   1.000  C
  C36      1.0000 0.64980  0.61650  0.20910  Biso   1.000  C
  C37      1.0000 0.82640  0.10720  0.21910  Biso   1.000  C
  C38      1.0000 0.32640  0.39280  0.71910  Biso   1.000  C
  C39      1.0000 0.17360  0.89280  0.78090  Biso   1.000  C
  C40      1.0000 0.67360  0.60720  0.28090  Biso   1.000  C
  H21      1.0000 0.81990  0.14180  0.18810  Biso   1.000  H
  H22      1.0000 0.31990  0.35820  0.68810  Biso   1.000  H
  H23      1.0000 0.18010  0.85820  0.81190  Biso   1.000  H
  H24      1.0000 0.68010  0.64180  0.31190  Biso   1.000  H
  C41      1.0000 0.81190  0.04750  0.19220  Biso   1.000  C
  C42      1.0000 0.31190  0.45250  0.69220  Biso   1.000  C
  C43      1.0000 0.18810  0.95250  0.80780  Biso   1.000  C
  C44      1.0000 0.68810  0.54750  0.30780  Biso   1.000  C
  H25      1.0000 0.79610  0.04200  0.14310  Biso   1.000  H
  H26      1.0000 0.29610  0.45800  0.64310  Biso   1.000  H
  H27      1.0000 0.20390  0.95800  0.85690  Biso   1.000  H
  H28      1.0000 0.70390  0.54200  0.35690  Biso   1.000  H
  C45      1.0000 0.82000  0.99700  0.23550  Biso   1.000  C
  C46      1.0000 0.32000  0.50300  0.73550  Biso   1.000  C
  C47      1.0000 0.18000  0.00300  0.76450  Biso   1.000  C
  C48      1.0000 0.68000  0.49700  0.26450  Biso   1.000  C
  H29      1.0000 0.81100  0.95650  0.21640  Biso   1.000  H
  H30      1.0000 0.31100  0.54350  0.71640  Biso   1.000  H
  H31      1.0000 0.18900  0.04350  0.78360  Biso   1.000  H
  H32      1.0000 0.68900  0.45650  0.28360  Biso   1.000  H
  C49      1.0000 0.84100  0.00470  0.30640  Biso   1.000  C
  C50      1.0000 0.34100  0.49530  0.80640  Biso   1.000  C
  C51      1.0000 0.15900  0.99530  0.69360  Biso   1.000  C
  C52      1.0000 0.65900  0.50470  0.19360  Biso   1.000  C
  H33      1.0000 0.84560  0.96970  0.33700  Biso   1.000  H
  H34      1.0000 0.34560  0.53030  0.83700  Biso   1.000  H
  H35      1.0000 0.15440  0.03030  0.66300  Biso   1.000  H
  H36      1.0000 0.65440  0.46970  0.16300  Biso   1.000  H
  C53      1.0000 0.85580  0.06410  0.33380  Biso   1.000  C
  C54      1.0000 0.35580  0.43590  0.83380  Biso   1.000  C
  C55      1.0000 0.14420  0.93590  0.66620  Biso   1.000  C
  C56      1.0000 0.64420  0.56410  0.16620  Biso   1.000  C
  H37      1.0000 0.87000  0.06900  0.38330  Biso   1.000  H
  H38      1.0000 0.37000  0.43100  0.88330  Biso   1.000  H
  H39      1.0000 0.13000  0.93100  0.61670  Biso   1.000  H
  H40      1.0000 0.63000  0.56900  0.11670  Biso   1.000  H
  C57      1.0000 0.14860  0.14690  0.36320  Biso   1.000  C
  C58      1.0000 0.64860  0.35310  0.86320  Biso   1.000  C
  C59      1.0000 0.85140  0.85310  0.63680  Biso   1.000  C
  C60      1.0000 0.35140  0.64690  0.13680  Biso   1.000  C
  H41      1.0000 0.17350  0.14410  0.41090  Biso   1.000  H
  H42      1.0000 0.67350  0.35590  0.91090  Biso   1.000  H
  H43      1.0000 0.82650  0.85590  0.58910  Biso   1.000  H
  H44      1.0000 0.32650  0.64410  0.08910  Biso   1.000  H
  C61      1.0000 0.21330  0.13600  0.30430  Biso   1.000  C
  C62      1.0000 0.71330  0.36400  0.80430  Biso   1.000  C
  C63      1.0000 0.78670  0.86400  0.69570  Biso   1.000  C
  C64      1.0000 0.28670  0.63600  0.19570  Biso   1.000  C
  C65      1.0000 0.31300  0.12650  0.31810  Biso   1.000  C
  C66      1.0000 0.81300  0.37350  0.81810  Biso   1.000  C
  C67      1.0000 0.68700  0.87350  0.68190  Biso   1.000  C
  C68      1.0000 0.18700  0.62650  0.18190  Biso   1.000  C
  H45      1.0000 0.34010  0.12710  0.36540  Biso   1.000  H
  H46      1.0000 0.84010  0.37290  0.86540  Biso   1.000  H
  H47      1.0000 0.65990  0.87290  0.63460  Biso   1.000  H
  H48      1.0000 0.15990  0.62710  0.13460  Biso   1.000  H
  C69      1.0000 0.37170  0.11590  0.26130  Biso   1.000  C
  C70      1.0000 0.87170  0.38410  0.76130  Biso   1.000  C
  C71      1.0000 0.62830  0.88410  0.73870  Biso   1.000  C
  C72      1.0000 0.12830  0.61590  0.23870  Biso   1.000  C
  H49      1.0000 0.44000  0.10960  0.27120  Biso   1.000  H
  H50      1.0000 0.94000  0.39040  0.77120  Biso   1.000  H
  H51      1.0000 0.56000  0.89040  0.72880  Biso   1.000  H
  H52      1.0000 0.06000  0.60960  0.22880  Biso   1.000  H
  N17      1.0000 0.33960  0.11410  0.19390  Biso   1.000  N
  N18      1.0000 0.83960  0.38590  0.69390  Biso   1.000  N
  N19      1.0000 0.66040  0.88590  0.80610  Biso   1.000  N
  N20      1.0000 0.16040  0.61410  0.30610  Biso   1.000  N
  C73      1.0000 0.24230  0.12370  0.18140  Biso   1.000  C
  C74      1.0000 0.74230  0.37630  0.68140  Biso   1.000  C
  C75      1.0000 0.75770  0.87630  0.81860  Biso   1.000  C
  C76      1.0000 0.25770  0.62370  0.31860  Biso   1.000  C
  H53      1.0000 0.21650  0.12300  0.13380  Biso   1.000  H
  H54      1.0000 0.71650  0.37700  0.63380  Biso   1.000  H
  H55      1.0000 0.78350  0.87700  0.86620  Biso   1.000  H
  H56      1.0000 0.28350  0.62300  0.36620  Biso   1.000  H
  C77      1.0000 0.17950  0.13430  0.23490  Biso   1.000  C
  C78      1.0000 0.67950  0.36570  0.73490  Biso   1.000  C
  C79      1.0000 0.82050  0.86570  0.76510  Biso   1.000  C
  C80      1.0000 0.32050  0.63430  0.26510  Biso   1.000  C
  H57      1.0000 0.11150  0.14060  0.22380  Biso   1.000  H
  H58      1.0000 0.61150  0.35940  0.72380  Biso   1.000  H
  H59      1.0000 0.88850  0.85940  0.77620  Biso   1.000  H
  H60      1.0000 0.38850  0.64060  0.27620  Biso   1.000  H
  C81      1.0000 0.88780  0.32880  0.27690  Biso   1.000  C
  C82      1.0000 0.38780  0.17120  0.77690  Biso   1.000  C
  C83      1.0000 0.11220  0.67120  0.72310  Biso   1.000  C
  C84      1.0000 0.61220  0.82880  0.22310  Biso   1.000  C
  H61      1.0000 0.85510  0.32680  0.23140  Biso   1.000  H
  H62      1.0000 0.35510  0.17320  0.73140  Biso   1.000  H
  H63      1.0000 0.14490  0.67320  0.76860  Biso   1.000  H
  H64      1.0000 0.64490  0.82680  0.26860  Biso   1.000  H
  C85      1.0000 0.92520  0.38830  0.30390  Biso   1.000  C
  C86      1.0000 0.42520  0.11170  0.80390  Biso   1.000  C
  C87      1.0000 0.07480  0.61170  0.69610  Biso   1.000  C
  C88      1.0000 0.57480  0.88830  0.19610  Biso   1.000  C
  C89      1.0000 0.91000  0.44150  0.26440  Biso   1.000  C
  C90      1.0000 0.41000  0.05850  0.76440  Biso   1.000  C
  C91      1.0000 0.09000  0.55850  0.73560  Biso   1.000  C
  C92      1.0000 0.59000  0.94150  0.23560  Biso   1.000  C
  H65      1.0000 0.87270  0.44060  0.22070  Biso   1.000  H
  H66      1.0000 0.37270  0.05940  0.72070  Biso   1.000  H
  H67      1.0000 0.12730  0.55940  0.77930  Biso   1.000  H
  H68      1.0000 0.62730  0.94060  0.27930  Biso   1.000  H
  C93      1.0000 0.95080  0.49640  0.29040  Biso   1.000  C
  C94      1.0000 0.45080  0.00360  0.79040  Biso   1.000  C
  C95      1.0000 0.04920  0.50360  0.70960  Biso   1.000  C
  C96      1.0000 0.54920  0.99640  0.20960  Biso   1.000  C
  H69      1.0000 0.93970  0.53300  0.26300  Biso   1.000  H
  H70      1.0000 0.43970  0.96700  0.76300  Biso   1.000  H
  H71      1.0000 0.06030  0.46700  0.73700  Biso   1.000  H
  H72      1.0000 0.56030  0.03300  0.23700  Biso   1.000  H
  N21      1.0000 0.00490  0.50150  0.35150  Biso   1.000  N
  N22      1.0000 0.50490  0.99850  0.85150  Biso   1.000  N
  N23      1.0000 0.99510  0.49850  0.64850  Biso   1.000  N
  N24      1.0000 0.49510  0.00150  0.14850  Biso   1.000  N
  C97      1.0000 0.01720  0.44880  0.38980  Biso   1.000  C
  C98      1.0000 0.51720  0.05120  0.88980  Biso   1.000  C
  C99      1.0000 0.98280  0.55120  0.61020  Biso   1.000  C
  C100     1.0000 0.48280  0.94880  0.11020  Biso   1.000  C
  H73      1.0000 0.05340  0.45090  0.43400  Biso   1.000  H
  H74      1.0000 0.55340  0.04910  0.93400  Biso   1.000  H
  H75      1.0000 0.94660  0.54910  0.56600  Biso   1.000  H
  H76      1.0000 0.44660  0.95090  0.06600  Biso   1.000  H
  C101     1.0000 0.97990  0.39230  0.36800  Biso   1.000  C
  C102     1.0000 0.47990  0.10770  0.86800  Biso   1.000  C
  C103     1.0000 0.02010  0.60770  0.63200  Biso   1.000  C
  C104     1.0000 0.52010  0.89230  0.13200  Biso   1.000  C
  H77      1.0000 0.99130  0.35630  0.39630  Biso   1.000  H
  H78      1.0000 0.49130  0.14370  0.89630  Biso   1.000  H
  H79      1.0000 0.00870  0.64370  0.60370  Biso   1.000  H
  H80      1.0000 0.50870  0.85630  0.10370  Biso   1.000  H
  N25      1.0000 0.89840  0.21630  0.89510  Biso   1.000  N
  N26      1.0000 0.39840  0.28370  0.39510  Biso   1.000  N
  N27      1.0000 0.10160  0.78370  0.10490  Biso   1.000  N
  N28      1.0000 0.60160  0.71630  0.60490  Biso   1.000  N
  N29      1.0000 0.82900  0.18400  0.93490  Biso   1.000  N
  N30      1.0000 0.32900  0.31600  0.43490  Biso   1.000  N
  N31      1.0000 0.17100  0.81600  0.06510  Biso   1.000  N
  N32      1.0000 0.67100  0.68400  0.56510  Biso   1.000  N
  N33      1.0000 0.92620  0.07000  0.84480  Biso   1.000  N
  N34      1.0000 0.42620  0.43000  0.34480  Biso   1.000  N
  N35      1.0000 0.07380  0.93000  0.15520  Biso   1.000  N
  N36      1.0000 0.57380  0.57000  0.65520  Biso   1.000  N
  N37      1.0000 0.01700  0.08410  0.88110  Biso   1.000  N
  N38      1.0000 0.51700  0.41590  0.38110  Biso   1.000  N
  N39      1.0000 0.98300  0.91590  0.11890  Biso   1.000  N
  N40      1.0000 0.48300  0.58410  0.61890  Biso   1.000  N
  C105     1.0000 0.92540  0.18430  0.84240  Biso   1.000  C
  C106     1.0000 0.42540  0.31570  0.34240  Biso   1.000  C
  C107     1.0000 0.07460  0.81570  0.15760  Biso   1.000  C
  C108     1.0000 0.57460  0.68430  0.65760  Biso   1.000  C
  C109     1.0000 0.88130  0.12090  0.82490  Biso   1.000  C
  C110     1.0000 0.38130  0.37910  0.32490  Biso   1.000  C
  C111     1.0000 0.11870  0.87910  0.17510  Biso   1.000  C
  C112     1.0000 0.61870  0.62090  0.67510  Biso   1.000  C
  C113     1.0000 0.78860  0.11800  0.78240  Biso   1.000  C
  C114     1.0000 0.28860  0.38200  0.28240  Biso   1.000  C
  C115     1.0000 0.21140  0.88200  0.21760  Biso   1.000  C
  C116     1.0000 0.71140  0.61800  0.71760  Biso   1.000  C
  C117     1.0000 0.75730  0.06250  0.75240  Biso   1.000  C
  C118     1.0000 0.25730  0.43750  0.25240  Biso   1.000  C
  C119     1.0000 0.24270  0.93750  0.24760  Biso   1.000  C
  C120     1.0000 0.74270  0.56250  0.74760  Biso   1.000  C
  H81      1.0000 0.79480  0.02580  0.76060  Biso   1.000  H
  H82      1.0000 0.29480  0.47420  0.26060  Biso   1.000  H
  H83      1.0000 0.20520  0.97420  0.23940  Biso   1.000  H
  H84      1.0000 0.70520  0.52580  0.73940  Biso   1.000  H
  C121     1.0000 0.67090  0.06030  0.71040  Biso   1.000  C
  C122     1.0000 0.17090  0.43970  0.21040  Biso   1.000  C
  C123     1.0000 0.32910  0.93970  0.28960  Biso   1.000  C
  C124     1.0000 0.82910  0.56030  0.78960  Biso   1.000  C
  H85      1.0000 0.64880  0.02210  0.69040  Biso   1.000  H
  H86      1.0000 0.14880  0.47790  0.19040  Biso   1.000  H
  H87      1.0000 0.35120  0.97790  0.30960  Biso   1.000  H
  H88      1.0000 0.85120  0.52210  0.80960  Biso   1.000  H
  C125     1.0000 0.61750  0.11370  0.69800  Biso   1.000  C
  C126     1.0000 0.11750  0.38630  0.19800  Biso   1.000  C
  C127     1.0000 0.38250  0.88630  0.30200  Biso   1.000  C
  C128     1.0000 0.88250  0.61370  0.80200  Biso   1.000  C
  H89      1.0000 0.55920  0.11240  0.66860  Biso   1.000  H
  H90      1.0000 0.05920  0.38760  0.16860  Biso   1.000  H
  H91      1.0000 0.44080  0.88760  0.33140  Biso   1.000  H
  H92      1.0000 0.94080  0.61240  0.83140  Biso   1.000  H
  C129     1.0000 0.64790  0.16850  0.72770  Biso   1.000  C
  C130     1.0000 0.14790  0.33150  0.22770  Biso   1.000  C
  C131     1.0000 0.35210  0.83150  0.27230  Biso   1.000  C
  C132     1.0000 0.85210  0.66850  0.77230  Biso   1.000  C
  H93      1.0000 0.61010  0.20500  0.71920  Biso   1.000  H
  H94      1.0000 0.11010  0.29500  0.21920  Biso   1.000  H
  H95      1.0000 0.38990  0.79500  0.28080  Biso   1.000  H
  H96      1.0000 0.88990  0.70500  0.78080  Biso   1.000  H
  C133     1.0000 0.73320  0.17150  0.76980  Biso   1.000  C
  C134     1.0000 0.23320  0.32850  0.26980  Biso   1.000  C
  C135     1.0000 0.26680  0.82850  0.23020  Biso   1.000  C
  C136     1.0000 0.76680  0.67150  0.73020  Biso   1.000  C
  H97      1.0000 0.75400  0.20990  0.79020  Biso   1.000  H
  H98      1.0000 0.25400  0.29010  0.29020  Biso   1.000  H
  H99      1.0000 0.24600  0.79010  0.20980  Biso   1.000  H
  H100     1.0000 0.74600  0.70990  0.70980  Biso   1.000  H
  C137     1.0000 0.99850  0.20840  0.79320  Biso   1.000  C
  C138     1.0000 0.49850  0.29160  0.29320  Biso   1.000  C
  C139     1.0000 0.00150  0.79160  0.20680  Biso   1.000  C
  C140     1.0000 0.50150  0.70840  0.70680  Biso   1.000  C
  C141     1.0000 0.03820  0.26680  0.80340  Biso   1.000  C
  C142     1.0000 0.53820  0.23320  0.30340  Biso   1.000  C
  C143     1.0000 0.96180  0.73320  0.19660  Biso   1.000  C
  C144     1.0000 0.46180  0.76680  0.69660  Biso   1.000  C
  H101     1.0000 0.01730  0.29180  0.84140  Biso   1.000  H
  H102     1.0000 0.51730  0.20820  0.34140  Biso   1.000  H
  H103     1.0000 0.98270  0.70820  0.15860  Biso   1.000  H
  H104     1.0000 0.48270  0.79180  0.65860  Biso   1.000  H
  C145     1.0000 0.10840  0.28950  0.75850  Biso   1.000  C
  C146     1.0000 0.60840  0.21050  0.25850  Biso   1.000  C
  C147     1.0000 0.89160  0.71050  0.24150  Biso   1.000  C
  C148     1.0000 0.39160  0.78950  0.74150  Biso   1.000  C
  H105     1.0000 0.13500  0.32980  0.76550  Biso   1.000  H
  H106     1.0000 0.63500  0.17020  0.26550  Biso   1.000  H
  H107     1.0000 0.86500  0.67020  0.23450  Biso   1.000  H
  H108     1.0000 0.36500  0.82980  0.73450  Biso   1.000  H
  C149     1.0000 0.13910  0.25260  0.70340  Biso   1.000  C
  C150     1.0000 0.63910  0.24740  0.20340  Biso   1.000  C
  C151     1.0000 0.86090  0.74740  0.29660  Biso   1.000  C
  C152     1.0000 0.36090  0.75260  0.79660  Biso   1.000  C
  H109     1.0000 0.18690  0.26790  0.67260  Biso   1.000  H
  H110     1.0000 0.68690  0.23210  0.17260  Biso   1.000  H
  H111     1.0000 0.81310  0.73210  0.32740  Biso   1.000  H
  H112     1.0000 0.31310  0.76790  0.82740  Biso   1.000  H
  C153     1.0000 0.10080  0.19370  0.69290  Biso   1.000  C
  C154     1.0000 0.60080  0.30630  0.19290  Biso   1.000  C
  C155     1.0000 0.89920  0.80630  0.30710  Biso   1.000  C
  C156     1.0000 0.39920  0.69370  0.80710  Biso   1.000  C
  H113     1.0000 0.12340  0.16830  0.65580  Biso   1.000  H
  H114     1.0000 0.62340  0.33170  0.15580  Biso   1.000  H
  H115     1.0000 0.87660  0.83170  0.34420  Biso   1.000  H
  H116     1.0000 0.37660  0.66830  0.84420  Biso   1.000  H
  C157     1.0000 0.03000  0.17230  0.73630  Biso   1.000  C
  C158     1.0000 0.53000  0.32770  0.23630  Biso   1.000  C
  C159     1.0000 0.97000  0.82770  0.26370  Biso   1.000  C
  C160     1.0000 0.47000  0.67230  0.76370  Biso   1.000  C
  H117     1.0000 0.00180  0.13250  0.72780  Biso   1.000  H
  H118     1.0000 0.50180  0.36750  0.22780  Biso   1.000  H
  H119     1.0000 0.99820  0.86750  0.27220  Biso   1.000  H
  H120     1.0000 0.49820  0.63250  0.77220  Biso   1.000  H
  C161     1.0000 0.76450  0.21860  0.96040  Biso   1.000  C
  C162     1.0000 0.26450  0.28140  0.46040  Biso   1.000  C
  C163     1.0000 0.23550  0.78140  0.03960  Biso   1.000  C
  C164     1.0000 0.73550  0.71860  0.53960  Biso   1.000  C
  H121     1.0000 0.76520  0.26200  0.95170  Biso   1.000  H
  H122     1.0000 0.26520  0.23800  0.45170  Biso   1.000  H
  H123     1.0000 0.23480  0.73800  0.04830  Biso   1.000  H
  H124     1.0000 0.73480  0.76200  0.54830  Biso   1.000  H
  C165     1.0000 0.68800  0.19110  0.00400  Biso   1.000  C
  C166     1.0000 0.18800  0.30890  0.50400  Biso   1.000  C
  C167     1.0000 0.31200  0.80890  0.99600  Biso   1.000  C
  C168     1.0000 0.81200  0.69110  0.49600  Biso   1.000  C
  C169     1.0000 0.60100  0.22120  0.01570  Biso   1.000  C
  C170     1.0000 0.10100  0.27880  0.51570  Biso   1.000  C
  C171     1.0000 0.39900  0.77880  0.98430  Biso   1.000  C
  C172     1.0000 0.89900  0.72120  0.48430  Biso   1.000  C
  H125     1.0000 0.59040  0.26250  0.99960  Biso   1.000  H
  H126     1.0000 0.09040  0.23750  0.49960  Biso   1.000  H
  H127     1.0000 0.40960  0.73750  0.00040  Biso   1.000  H
  H128     1.0000 0.90960  0.76250  0.50040  Biso   1.000  H
  C173     1.0000 0.52890  0.18980  0.05180  Biso   1.000  C
  C174     1.0000 0.02890  0.31020  0.55180  Biso   1.000  C
  C175     1.0000 0.47110  0.81020  0.94820  Biso   1.000  C
  C176     1.0000 0.97110  0.68980  0.44820  Biso   1.000  C
  H129     1.0000 0.46890  0.21090  0.05900  Biso   1.000  H
  H130     1.0000 0.96890  0.28910  0.55900  Biso   1.000  H
  H131     1.0000 0.53110  0.78910  0.94100  Biso   1.000  H
  H132     1.0000 0.03110  0.71090  0.44100  Biso   1.000  H
  N41      1.0000 0.53780  0.13220  0.07710  Biso   1.000  N
  N42      1.0000 0.03780  0.36780  0.57710  Biso   1.000  N
  N43      1.0000 0.46220  0.86780  0.92290  Biso   1.000  N
  N44      1.0000 0.96220  0.63220  0.42290  Biso   1.000  N
  C177     1.0000 0.62590  0.10490  0.06720  Biso   1.000  C
  C178     1.0000 0.12590  0.39510  0.56720  Biso   1.000  C
  C179     1.0000 0.37410  0.89510  0.93280  Biso   1.000  C
  C180     1.0000 0.87410  0.60490  0.43280  Biso   1.000  C
  H133     1.0000 0.63650  0.06420  0.08510  Biso   1.000  H
  H134     1.0000 0.13650  0.43580  0.58510  Biso   1.000  H
  H135     1.0000 0.36350  0.93580  0.91490  Biso   1.000  H
  H136     1.0000 0.86350  0.56420  0.41490  Biso   1.000  H
  C181     1.0000 0.70040  0.13320  0.03280  Biso   1.000  C
  C182     1.0000 0.20040  0.36680  0.53280  Biso   1.000  C
  C183     1.0000 0.29960  0.86680  0.96720  Biso   1.000  C
  C184     1.0000 0.79960  0.63320  0.46720  Biso   1.000  C
  H137     1.0000 0.76140  0.11240  0.02890  Biso   1.000  H
  H138     1.0000 0.26140  0.38760  0.52890  Biso   1.000  H
  H139     1.0000 0.23860  0.88760  0.97110  Biso   1.000  H
  H140     1.0000 0.73860  0.61240  0.47110  Biso   1.000  H
  C185     1.0000 0.05340  0.03830  0.91580  Biso   1.000  C
  C186     1.0000 0.55340  0.46170  0.41580  Biso   1.000  C
  C187     1.0000 0.94660  0.96170  0.08420  Biso   1.000  C
  C188     1.0000 0.44660  0.53830  0.58420  Biso   1.000  C
  H141     1.0000 0.02070  0.99930  0.91500  Biso   1.000  H
  H142     1.0000 0.52070  0.50070  0.41500  Biso   1.000  H
  H143     1.0000 0.97930  0.00070  0.08500  Biso   1.000  H
  H144     1.0000 0.47930  0.49930  0.58500  Biso   1.000  H
  C189     1.0000 0.14550  0.04600  0.95680  Biso   1.000  C
  C190     1.0000 0.64550  0.45400  0.45680  Biso   1.000  C
  C191     1.0000 0.85450  0.95400  0.04320  Biso   1.000  C
  C192     1.0000 0.35450  0.54600  0.54320  Biso   1.000  C
  C193     1.0000 0.17330  0.00490  0.00930  Biso   1.000  C
  C194     1.0000 0.67330  0.49510  0.50930  Biso   1.000  C
  C195     1.0000 0.82670  0.99510  0.99070  Biso   1.000  C
  C196     1.0000 0.32670  0.50490  0.49070  Biso   1.000  C
  H145     1.0000 0.13260  0.97030  0.01810  Biso   1.000  H
  H146     1.0000 0.63260  0.52970  0.51810  Biso   1.000  H
  H147     1.0000 0.86740  0.02970  0.98190  Biso   1.000  H
  H148     1.0000 0.36740  0.47030  0.48190  Biso   1.000  H
  C197     1.0000 0.25830  0.01280  0.04930  Biso   1.000  C
  C198     1.0000 0.75830  0.48720  0.54930  Biso   1.000  C
  C199     1.0000 0.74170  0.98720  0.95070  Biso   1.000  C
  C200     1.0000 0.24170  0.51280  0.45070  Biso   1.000  C
  H149     1.0000 0.27500  0.98320  0.08520  Biso   1.000  H
  H150     1.0000 0.77500  0.51680  0.58520  Biso   1.000  H
  H151     1.0000 0.72500  0.01680  0.91480  Biso   1.000  H
  H152     1.0000 0.22500  0.48320  0.41480  Biso   1.000  H
  N45      1.0000 0.32010  0.06140  0.03950  Biso   1.000  N
  N46      1.0000 0.82010  0.43860  0.53950  Biso   1.000  N
  N47      1.0000 0.67990  0.93860  0.96050  Biso   1.000  N
  N48      1.0000 0.17990  0.56140  0.46050  Biso   1.000  N
  C201     1.0000 0.29260  0.10140  0.98860  Biso   1.000  C
  C202     1.0000 0.79260  0.39860  0.48860  Biso   1.000  C
  C203     1.0000 0.70740  0.89860  0.01140  Biso   1.000  C
  C204     1.0000 0.20740  0.60140  0.51140  Biso   1.000  C
  H153     1.0000 0.33380  0.13610  0.98100  Biso   1.000  H
  H154     1.0000 0.83380  0.36390  0.48100  Biso   1.000  H
  H155     1.0000 0.66620  0.86390  0.01900  Biso   1.000  H
  H156     1.0000 0.16620  0.63610  0.51900  Biso   1.000  H
  C205     1.0000 0.20810  0.09560  0.94610  Biso   1.000  C
  C206     1.0000 0.70810  0.40440  0.44610  Biso   1.000  C
  C207     1.0000 0.79190  0.90440  0.05390  Biso   1.000  C
  C208     1.0000 0.29190  0.59560  0.55390  Biso   1.000  C
  H157     1.0000 0.19290  0.12520  0.91000  Biso   1.000  H
  H158     1.0000 0.69290  0.37480  0.41000  Biso   1.000  H
  H159     1.0000 0.80710  0.87480  0.09000  Biso   1.000  H
  H160     1.0000 0.30710  0.62520  0.59000  Biso   1.000  H
  Cl1      1.0000 0.82864  0.37897  0.05783  Biso   1.000  Cl
  Cl2      1.0000 0.32864  0.12103  0.55783  Biso   1.000  Cl
  Cl3      1.0000 0.17136  0.62103  0.94217  Biso   1.000  Cl
  Cl4      1.0000 0.67136  0.87897  0.44217  Biso   1.000  Cl
  O1       1.0000 0.91540  0.37400  0.09090  Biso   1.000  O
  O2       1.0000 0.41540  0.12600  0.59090  Biso   1.000  O
  O3       1.0000 0.08460  0.62600  0.90910  Biso   1.000  O
  O4       1.0000 0.58460  0.87400  0.40910  Biso   1.000  O
  O5       1.0000 0.83690  0.38580  0.98980  Biso   1.000  O
  O6       1.0000 0.33690  0.11420  0.48980  Biso   1.000  O
  O7       1.0000 0.16310  0.61420  0.01020  Biso   1.000  O
  O8       1.0000 0.66310  0.88580  0.51020  Biso   1.000  O
  O9       1.0000 0.76990  0.32790  0.07230  Biso   1.000  O
  O10      1.0000 0.26990  0.17210  0.57230  Biso   1.000  O
  O11      1.0000 0.23010  0.67210  0.92770  Biso   1.000  O
  O12      1.0000 0.73010  0.82790  0.42770  Biso   1.000  O
  O13      1.0000 0.78410  0.43200  0.08910  Biso   1.000  O
  O14      1.0000 0.28410  0.06800  0.58910  Biso   1.000  O
  O15      1.0000 0.21590  0.56800  0.91090  Biso   1.000  O
  O16      1.0000 0.71590  0.93200  0.41090  Biso   1.000  O
  N49      1.0000 0.00330  0.11590  0.06730  Biso   1.000  N
  N50      1.0000 0.50330  0.38410  0.56730  Biso   1.000  N
  N51      1.0000 0.99670  0.88410  0.93270  Biso   1.000  N
  N52      1.0000 0.49670  0.61590  0.43270  Biso   1.000  N
  C209     1.0000 0.98520  0.16540  0.08230  Biso   1.000  C
  C210     1.0000 0.48520  0.33460  0.58230  Biso   1.000  C
  C211     1.0000 0.01480  0.83460  0.91770  Biso   1.000  C
  C212     1.0000 0.51480  0.66540  0.41770  Biso   1.000  C
  C213     1.0000 0.95730  0.22920  0.10640  Biso   1.000  C
  C214     1.0000 0.45730  0.27080  0.60640  Biso   1.000  C
  C215     1.0000 0.04270  0.77080  0.89360  Biso   1.000  C
  C216     1.0000 0.54270  0.72920  0.39360  Biso   1.000  C
  H161     1.0000 0.88580  0.23400  0.10170  Biso   1.000  H
  H162     1.0000 0.38580  0.26600  0.60170  Biso   1.000  H
  H163     1.0000 0.11420  0.76600  0.89830  Biso   1.000  H
  H164     1.0000 0.61420  0.73400  0.39830  Biso   1.000  H
  H165     1.0000 0.98870  0.26030  0.07690  Biso   1.000  H
  H166     1.0000 0.48870  0.23970  0.57690  Biso   1.000  H
  H167     1.0000 0.01130  0.73970  0.92310  Biso   1.000  H
  H168     1.0000 0.51130  0.76030  0.42310  Biso   1.000  H
  H169     1.0000 0.97920  0.23490  0.15610  Biso   1.000  H
  H170     1.0000 0.47920  0.26510  0.65610  Biso   1.000  H
  H171     1.0000 0.02080  0.76510  0.84390  Biso   1.000  H
  H172     1.0000 0.52080  0.73490  0.34390  Biso   1.000  H
  N53      1.0000 0.93100  0.57910  0.13480  Biso   1.000  N
  N54      1.0000 0.43100  0.92090  0.63480  Biso   1.000  N
  N55      1.0000 0.06900  0.42090  0.86520  Biso   1.000  N
  N56      1.0000 0.56900  0.07910  0.36520  Biso   1.000  N
  C217     1.0000 0.91130  0.57120  0.07630  Biso   1.000  C
  C218     1.0000 0.41130  0.92880  0.57630  Biso   1.000  C
  C219     1.0000 0.08870  0.42880  0.92370  Biso   1.000  C
  C220     1.0000 0.58870  0.07120  0.42370  Biso   1.000  C
  C221     1.0000 0.88810  0.56250  0.00170  Biso   1.000  C
  C222     1.0000 0.38810  0.93750  0.50170  Biso   1.000  C
  C223     1.0000 0.11190  0.43750  0.99830  Biso   1.000  C
  C224     1.0000 0.61190  0.06250  0.49830  Biso   1.000  C
  H173     1.0000 0.94830  0.56590  0.97520  Biso   1.000  H
  H174     1.0000 0.44830  0.93410  0.47520  Biso   1.000  H
  H175     1.0000 0.05170  0.43410  0.02480  Biso   1.000  H
  H176     1.0000 0.55170  0.06590  0.52480  Biso   1.000  H
  H177     1.0000 0.84110  0.59420  0.98510  Biso   1.000  H
  H178     1.0000 0.34110  0.90580  0.48510  Biso   1.000  H
  H179     1.0000 0.15890  0.40580  0.01490  Biso   1.000  H
  H180     1.0000 0.65890  0.09420  0.51490  Biso   1.000  H
  H181     1.0000 0.85920  0.52130  0.99390  Biso   1.000  H
  H182     1.0000 0.35920  0.97870  0.49390  Biso   1.000  H
  H183     1.0000 0.14080  0.47870  0.00610  Biso   1.000  H
  H184     1.0000 0.64080  0.02130  0.50610  Biso   1.000  H
  O17      1.0000 0.49550  0.51060  0.97000  Biso   1.000  O
  O18      1.0000 0.99550  0.98940  0.47000  Biso   1.000  O
  O19      1.0000 0.50450  0.48940  0.03000  Biso   1.000  O
  O20      1.0000 0.00450  0.01060  0.53000  Biso   1.000  O
  C225     1.0000 0.58740  0.49860  0.96910  Biso   1.000  C
  C226     1.0000 0.08740  0.00140  0.46910  Biso   1.000  C
  C227     1.0000 0.41260  0.50140  0.03090  Biso   1.000  C
  C228     1.0000 0.91260  0.99860  0.53090  Biso   1.000  C
  C229     1.0000 0.61800  0.51550  0.90410  Biso   1.000  C
  C230     1.0000 0.11800  0.98450  0.40410  Biso   1.000  C
  C231     1.0000 0.38200  0.48450  0.09590  Biso   1.000  C
  C232     1.0000 0.88200  0.01550  0.59590  Biso   1.000  C
