data_image0
_cell_length_a       7.854
_cell_length_b       9.67
_cell_length_c       11.468
_cell_angle_alpha    78.079
_cell_angle_beta     70.344
_cell_angle_gamma    69.319

_symmetry_space_group_name_H-M    "P 1"
_symmetry_int_tables_number       1

loop_
  _symmetry_equiv_pos_as_xyz
  'x, y, z'

loop_
  _atom_site_label
  _atom_site_occupancy
  _atom_site_fract_x
  _atom_site_fract_y
  _atom_site_fract_z
  _atom_site_thermal_displace_type
  _atom_site_B_iso_or_equiv
  _atom_site_type_symbol
  I1       1.0000 0.53393  0.17958  0.66098  Biso   1.000  I
  I2       1.0000 0.46607  0.82042  0.33902  Biso   1.000  I
  I3       1.0000 0.97552  0.15971  0.81388  Biso   1.000  I
  I4       1.0000 0.02448  0.84029  0.18612  Biso   1.000  I
  Cu1      1.0000 0.79560  0.01763  0.75616  Biso   1.000  Cu
  Cu2      1.0000 0.20440  0.98237  0.24384  Biso   1.000  Cu
  Cu3      1.0000 0.31801  0.05134  0.85209  Biso   1.000  Cu
  Cu4      1.0000 0.68199  0.94866  0.14791  Biso   1.000  Cu
  S1       1.0000 0.71873  0.86891  0.96359  Biso   1.000  S
  S2       1.0000 0.28127  0.13109  0.03641  Biso   1.000  S
  N1       1.0000 0.93850  0.81420  0.69530  Biso   1.000  N
  N2       1.0000 0.06150  0.18580  0.30470  Biso   1.000  N
  N3       1.0000 0.43630  0.83210  0.81770  Biso   1.000  N
  N4       1.0000 0.56370  0.16790  0.18230  Biso   1.000  N
  C1       1.0000 0.97310  0.78770  0.57790  Biso   1.000  C
  C2       1.0000 0.02690  0.21230  0.42210  Biso   1.000  C
  H1       1.0000 0.93620  0.86870  0.51930  Biso   1.000  H
  H2       1.0000 0.06380  0.13130  0.48070  Biso   1.000  H
  C3       1.0000 0.06080  0.64660  0.53900  Biso   1.000  C
  C4       1.0000 0.93920  0.35340  0.46100  Biso   1.000  C
  H3       1.0000 0.08170  0.63090  0.45560  Biso   1.000  H
  H4       1.0000 0.91830  0.36910  0.54440  Biso   1.000  H
  C5       1.0000 0.11680  0.52990  0.62300  Biso   1.000  C
  C6       1.0000 0.88320  0.47010  0.37700  Biso   1.000  C
  H5       1.0000 0.17830  0.43240  0.59790  Biso   1.000  H
  H6       1.0000 0.82170  0.56760  0.40210  Biso   1.000  H
  C7       1.0000 0.08330  0.55490  0.74470  Biso   1.000  C
  C8       1.0000 0.91670  0.44510  0.25530  Biso   1.000  C
  H7       1.0000 0.12150  0.47540  0.80400  Biso   1.000  H
  H8       1.0000 0.87850  0.52460  0.19600  Biso   1.000  H
  C9       1.0000 0.99250  0.69920  0.77750  Biso   1.000  C
  C10      1.0000 0.00750  0.30080  0.22250  Biso   1.000  C
  C11      1.0000 0.95410  0.73660  0.90760  Biso   1.000  C
  C12      1.0000 0.04590  0.26340  0.09240  Biso   1.000  C
  H9       1.0000 0.05160  0.77890  0.90810  Biso   1.000  H
  H10      1.0000 0.94840  0.22110  0.09190  Biso   1.000  H
  H11      1.0000 0.96500  0.64420  0.96500  Biso   1.000  H
  H12      1.0000 0.03500  0.35580  0.03500  Biso   1.000  H
  C13      1.0000 0.56540  0.75300  0.99540  Biso   1.000  C
  C14      1.0000 0.43460  0.24700  0.00460  Biso   1.000  C
  H13      1.0000 0.62020  0.65780  0.04110  Biso   1.000  H
  H14      1.0000 0.37980  0.34220  0.95890  Biso   1.000  H
  H15      1.0000 0.43950  0.80310  0.05050  Biso   1.000  H
  H16      1.0000 0.56050  0.19690  0.94950  Biso   1.000  H
  C15      1.0000 0.53760  0.72000  0.88240  Biso   1.000  C
  C16      1.0000 0.46240  0.28000  0.11760  Biso   1.000  C
  C17      1.0000 0.61150  0.57540  0.84750  Biso   1.000  C
  C18      1.0000 0.38850  0.42460  0.15250  Biso   1.000  C
  H17      1.0000 0.68130  0.49780  0.89510  Biso   1.000  H
  H18      1.0000 0.31870  0.50220  0.10490  Biso   1.000  H
  C19      1.0000 0.58380  0.54480  0.74470  Biso   1.000  C
  C20      1.0000 0.41620  0.45520  0.25530  Biso   1.000  C
  H19      1.0000 0.63300  0.44670  0.72070  Biso   1.000  H
  H20      1.0000 0.36700  0.55330  0.27930  Biso   1.000  H
  C21      1.0000 0.48150  0.66160  0.67640  Biso   1.000  C
  C22      1.0000 0.51850  0.33840  0.32360  Biso   1.000  C
  H21      1.0000 0.45970  0.64470  0.60460  Biso   1.000  H
  H22      1.0000 0.54030  0.35530  0.39540  Biso   1.000  H
  C23      1.0000 0.41320  0.80120  0.71520  Biso   1.000  C
  C24      1.0000 0.58680  0.19880  0.28480  Biso   1.000  C
  H23      1.0000 0.34610  0.88060  0.66740  Biso   1.000  H
  H24      1.0000 0.65390  0.11940  0.33260  Biso   1.000  H
