data_image0
_cell_length_a       4.1759
_cell_length_b       7.1281
_cell_length_c       8.1279
_cell_angle_alpha    109.607
_cell_angle_beta     101.769
_cell_angle_gamma    96.676

_symmetry_space_group_name_H-M    "P 1"
_symmetry_int_tables_number       1

loop_
  _symmetry_equiv_pos_as_xyz
  'x, y, z'

loop_
  _atom_site_label
  _atom_site_occupancy
  _atom_site_fract_x
  _atom_site_fract_y
  _atom_site_fract_z
  _atom_site_thermal_displace_type
  _atom_site_B_iso_or_equiv
  _atom_site_type_symbol
  Cu1      1.0000 0.69050  0.44552  0.87415  Biso   1.000  Cu
  Cu2      1.0000 0.30950  0.55448  0.12585  Biso   1.000  Cu
  I1       1.0000 0.22278  0.65940  0.84037  Biso   1.000  I
  I2       1.0000 0.77722  0.34060  0.15963  Biso   1.000  I
  C1       1.0000 0.68650  0.01460  0.65830  Biso   1.000  C
  C2       1.0000 0.31350  0.98540  0.34170  Biso   1.000  C
  H1       1.0000 0.82050  0.01900  0.76660  Biso   1.000  H
  H2       1.0000 0.17950  0.98100  0.23340  Biso   1.000  H
  C3       1.0000 0.61840  0.83900  0.50770  Biso   1.000  C
  C4       1.0000 0.38160  0.16100  0.49230  Biso   1.000  C
  H3       1.0000 0.70430  0.72780  0.51860  Biso   1.000  H
  H4       1.0000 0.29570  0.27220  0.48140  Biso   1.000  H
  N1       1.0000 0.56650  0.17800  0.65370  Biso   1.000  N
  N2       1.0000 0.43350  0.82200  0.34630  Biso   1.000  N
