data_image0
_cell_length_a       4.134
_cell_length_b       7.0584
_cell_length_c       8.041
_cell_angle_alpha    109.72
_cell_angle_beta     101.31
_cell_angle_gamma    96.54

_symmetry_space_group_name_H-M    "P 1"
_symmetry_int_tables_number       1

loop_
  _symmetry_equiv_pos_as_xyz
  'x, y, z'

loop_
  _atom_site_label
  _atom_site_occupancy
  _atom_site_fract_x
  _atom_site_fract_y
  _atom_site_fract_z
  _atom_site_thermal_displace_type
  _atom_site_B_iso_or_equiv
  _atom_site_type_symbol
  I1       1.0000 0.22587  0.16155  0.34004  Biso   1.000  I
  I2       1.0000 0.77413  0.83845  0.65996  Biso   1.000  I
  Cu1      1.0000 0.30770  0.05277  0.62442  Biso   1.000  Cu
  Cu2      1.0000 0.69230  0.94723  0.37558  Biso   1.000  Cu
  N1       1.0000 0.42750  0.31800  0.84570  Biso   1.000  N
  N2       1.0000 0.57250  0.68200  0.15430  Biso   1.000  N
  C1       1.0000 0.62300  0.33670  0.00660  Biso   1.000  C
  C2       1.0000 0.37700  0.66330  0.99340  Biso   1.000  C
  H1       1.0000 0.71830  0.22450  0.01480  Biso   1.000  H
  H2       1.0000 0.28170  0.77550  0.98520  Biso   1.000  H
  C3       1.0000 0.30800  0.48650  0.83800  Biso   1.000  C
  C4       1.0000 0.69200  0.51350  0.16200  Biso   1.000  C
  H3       1.0000 0.17860  0.48370  0.72700  Biso   1.000  H
  H4       1.0000 0.82140  0.51630  0.27300  Biso   1.000  H
