data_image0
_cell_length_a       10.0229
_cell_length_b       18.794
_cell_length_c       23.845
_cell_angle_alpha    90
_cell_angle_beta     98.927
_cell_angle_gamma    90

_symmetry_space_group_name_H-M    "P 1"
_symmetry_int_tables_number       1

loop_
  _symmetry_equiv_pos_as_xyz
  'x, y, z'

loop_
  _atom_site_label
  _atom_site_occupancy
  _atom_site_fract_x
  _atom_site_fract_y
  _atom_site_fract_z
  _atom_site_thermal_displace_type
  _atom_site_B_iso_or_equiv
  _atom_site_type_symbol
  Cu1      1.0000 0.27747  0.18235  0.38539  Biso   1.000  Cu
  Cu2      1.0000 0.27747  0.31765  0.88539  Biso   1.000  Cu
  Cu3      1.0000 0.72253  0.81765  0.61461  Biso   1.000  Cu
  Cu4      1.0000 0.72253  0.68235  0.11461  Biso   1.000  Cu
  Cl1      1.0000 0.09520  0.32500  0.53790  Biso   1.000  Cl
  Cl2      1.0000 0.09520  0.17500  0.03790  Biso   1.000  Cl
  Cl3      1.0000 0.90480  0.67500  0.46210  Biso   1.000  Cl
  Cl4      1.0000 0.90480  0.82500  0.96210  Biso   1.000  Cl
  P1       1.0000 0.13426  0.19129  0.30616  Biso   1.000  P
  P2       1.0000 0.13426  0.30871  0.80616  Biso   1.000  P
  P3       1.0000 0.86574  0.80871  0.69384  Biso   1.000  P
  P4       1.0000 0.86574  0.69129  0.19384  Biso   1.000  P
  F1       1.0000 0.42590  0.89770  0.43720  Biso   1.000  F
  F2       1.0000 0.42590  0.60230  0.93720  Biso   1.000  F
  F3       1.0000 0.57410  0.10230  0.56280  Biso   1.000  F
  F4       1.0000 0.57410  0.39770  0.06280  Biso   1.000  F
  N1       1.0000 0.21830  0.12660  0.45210  Biso   1.000  N
  N2       1.0000 0.21830  0.37340  0.95210  Biso   1.000  N
  N3       1.0000 0.78170  0.87340  0.54790  Biso   1.000  N
  N4       1.0000 0.78170  0.62660  0.04790  Biso   1.000  N
  C1       1.0000 0.12540  0.15220  0.47950  Biso   1.000  C
  C2       1.0000 0.12540  0.34780  0.97950  Biso   1.000  C
  C3       1.0000 0.87460  0.84780  0.52050  Biso   1.000  C
  C4       1.0000 0.87460  0.65220  0.02050  Biso   1.000  C
  H1       1.0000 0.08840  0.19770  0.46880  Biso   1.000  H
  H2       1.0000 0.08840  0.30230  0.96880  Biso   1.000  H
  H3       1.0000 0.91160  0.80230  0.53120  Biso   1.000  H
  H4       1.0000 0.91160  0.69770  0.03120  Biso   1.000  H
  Cl5      1.0000 0.84560  0.36910  0.53820  Biso   1.000  Cl
  Cl6      1.0000 0.84560  0.13090  0.03820  Biso   1.000  Cl
  Cl7      1.0000 0.15440  0.63090  0.46180  Biso   1.000  Cl
  Cl8      1.0000 0.15440  0.86910  0.96180  Biso   1.000  Cl
  P5       1.0000 0.32430  0.85269  0.40075  Biso   1.000  P
  P6       1.0000 0.32430  0.64731  0.90075  Biso   1.000  P
  P7       1.0000 0.67570  0.14731  0.59925  Biso   1.000  P
  P8       1.0000 0.67570  0.35269  0.09925  Biso   1.000  P
  F5       1.0000 0.28220  0.82420  0.45770  Biso   1.000  F
  F6       1.0000 0.28220  0.67580  0.95770  Biso   1.000  F
  F7       1.0000 0.71780  0.17580  0.54230  Biso   1.000  F
  F8       1.0000 0.71780  0.32420  0.04230  Biso   1.000  F
  N5       1.0000 0.53800  0.86520  0.61960  Biso   1.000  N
  N6       1.0000 0.53800  0.63480  0.11960  Biso   1.000  N
  N7       1.0000 0.46200  0.13480  0.38040  Biso   1.000  N
  N8       1.0000 0.46200  0.36520  0.88040  Biso   1.000  N
  C5       1.0000 0.07900  0.11690  0.52270  Biso   1.000  C
  C6       1.0000 0.07900  0.38310  0.02270  Biso   1.000  C
  C7       1.0000 0.92100  0.88310  0.47730  Biso   1.000  C
  C8       1.0000 0.92100  0.61690  0.97730  Biso   1.000  C
  H5       1.0000 0.00740  0.13650  0.53940  Biso   1.000  H
  H6       1.0000 0.00740  0.36350  0.03940  Biso   1.000  H
  H7       1.0000 0.99260  0.86350  0.46060  Biso   1.000  H
  H8       1.0000 0.99260  0.63650  0.96060  Biso   1.000  H
  F9       1.0000 0.43080  0.79710  0.40240  Biso   1.000  F
  F10      1.0000 0.43080  0.70290  0.90240  Biso   1.000  F
  F11      1.0000 0.56920  0.20290  0.59760  Biso   1.000  F
  F12      1.0000 0.56920  0.29710  0.09760  Biso   1.000  F
  N9       1.0000 0.34240  0.27790  0.42500  Biso   1.000  N
  N10      1.0000 0.34240  0.22210  0.92500  Biso   1.000  N
  N11      1.0000 0.65760  0.72210  0.57500  Biso   1.000  N
  N12      1.0000 0.65760  0.77790  0.07500  Biso   1.000  N
  C9       1.0000 0.13700  0.05170  0.54260  Biso   1.000  C
  C10      1.0000 0.13700  0.44830  0.04260  Biso   1.000  C
  C11      1.0000 0.86300  0.94830  0.45740  Biso   1.000  C
  C12      1.0000 0.86300  0.55170  0.95740  Biso   1.000  C
  F13      1.0000 0.36710  0.88180  0.34600  Biso   1.000  F
  F14      1.0000 0.36710  0.61820  0.84600  Biso   1.000  F
  F15      1.0000 0.63290  0.11820  0.65400  Biso   1.000  F
  F16      1.0000 0.63290  0.38180  0.15400  Biso   1.000  F
  C13      1.0000 0.22470  0.02350  0.50590  Biso   1.000  C
  C14      1.0000 0.22470  0.47650  0.00590  Biso   1.000  C
  C15      1.0000 0.77530  0.97650  0.49410  Biso   1.000  C
  C16      1.0000 0.77530  0.52350  0.99410  Biso   1.000  C
  H9       1.0000 0.25540  0.97580  0.51130  Biso   1.000  H
  H10      1.0000 0.25540  0.52420  0.01130  Biso   1.000  H
  H11      1.0000 0.74460  0.02420  0.48870  Biso   1.000  H
  H12      1.0000 0.74460  0.47580  0.98870  Biso   1.000  H
  F17      1.0000 0.21960  0.91000  0.40160  Biso   1.000  F
  F18      1.0000 0.21960  0.59000  0.90160  Biso   1.000  F
  F19      1.0000 0.78040  0.09000  0.59840  Biso   1.000  F
  F20      1.0000 0.78040  0.41000  0.09840  Biso   1.000  F
  C17      1.0000 0.26530  0.06210  0.46390  Biso   1.000  C
  C18      1.0000 0.26530  0.43790  0.96390  Biso   1.000  C
  C19      1.0000 0.73470  0.93790  0.53610  Biso   1.000  C
  C20      1.0000 0.73470  0.56210  0.03610  Biso   1.000  C
  H13      1.0000 0.32870  0.04240  0.44250  Biso   1.000  H
  H14      1.0000 0.32870  0.45760  0.94250  Biso   1.000  H
  H15      1.0000 0.67130  0.95760  0.55750  Biso   1.000  H
  H16      1.0000 0.67130  0.54240  0.05750  Biso   1.000  H
  F21      1.0000 0.21800  0.81130  0.36660  Biso   1.000  F
  F22      1.0000 0.21800  0.68870  0.86660  Biso   1.000  F
  F23      1.0000 0.78200  0.18870  0.63340  Biso   1.000  F
  F24      1.0000 0.78200  0.31130  0.13340  Biso   1.000  F
  C21      1.0000 0.09050  0.01360  0.59030  Biso   1.000  C
  C22      1.0000 0.09050  0.48640  0.09030  Biso   1.000  C
  C23      1.0000 0.90950  0.98640  0.40970  Biso   1.000  C
  C24      1.0000 0.90950  0.51360  0.90970  Biso   1.000  C
  H17      1.0000 0.00460  0.02730  0.59860  Biso   1.000  H
  H18      1.0000 0.00460  0.47270  0.09860  Biso   1.000  H
  H19      1.0000 0.99540  0.97270  0.40140  Biso   1.000  H
  H20      1.0000 0.99540  0.52730  0.90140  Biso   1.000  H
  C25      1.0000 0.52110  0.90510  0.66730  Biso   1.000  C
  C26      1.0000 0.52110  0.59490  0.16730  Biso   1.000  C
  C27      1.0000 0.47890  0.09490  0.33270  Biso   1.000  C
  C28      1.0000 0.47890  0.40510  0.83270  Biso   1.000  C
  H21      1.0000 0.59290  0.90930  0.69820  Biso   1.000  H
  H22      1.0000 0.59290  0.59070  0.19820  Biso   1.000  H
  H23      1.0000 0.40710  0.09070  0.30180  Biso   1.000  H
  H24      1.0000 0.40710  0.40930  0.80180  Biso   1.000  H
  C29      1.0000 0.39840  0.93880  0.66940  Biso   1.000  C
  C30      1.0000 0.39840  0.56120  0.16940  Biso   1.000  C
  C31      1.0000 0.60160  0.06120  0.33060  Biso   1.000  C
  C32      1.0000 0.60160  0.43880  0.83060  Biso   1.000  C
  H25      1.0000 0.38620  0.96690  0.70130  Biso   1.000  H
  H26      1.0000 0.38620  0.53310  0.20130  Biso   1.000  H
  H27      1.0000 0.61380  0.03310  0.29870  Biso   1.000  H
  H28      1.0000 0.61380  0.46690  0.79870  Biso   1.000  H
  C33      1.0000 0.28750  0.93040  0.62140  Biso   1.000  C
  C34      1.0000 0.28750  0.56960  0.12140  Biso   1.000  C
  C35      1.0000 0.71250  0.06960  0.37860  Biso   1.000  C
  C36      1.0000 0.71250  0.43040  0.87860  Biso   1.000  C
  C37      1.0000 0.31430  0.89250  0.58090  Biso   1.000  C
  C38      1.0000 0.31430  0.60750  0.08090  Biso   1.000  C
  C39      1.0000 0.68570  0.10750  0.41910  Biso   1.000  C
  C40      1.0000 0.68570  0.39250  0.91910  Biso   1.000  C
  H29      1.0000 0.24570  0.88550  0.54920  Biso   1.000  H
  H30      1.0000 0.24570  0.61450  0.04920  Biso   1.000  H
  H31      1.0000 0.75430  0.11450  0.45080  Biso   1.000  H
  H32      1.0000 0.75430  0.38550  0.95080  Biso   1.000  H
  C41      1.0000 0.43550  0.86140  0.58050  Biso   1.000  C
  C42      1.0000 0.43550  0.63860  0.08050  Biso   1.000  C
  C43      1.0000 0.56450  0.13860  0.41950  Biso   1.000  C
  C44      1.0000 0.56450  0.36140  0.91950  Biso   1.000  C
  H33      1.0000 0.44570  0.83410  0.54790  Biso   1.000  H
  H34      1.0000 0.44570  0.66590  0.04790  Biso   1.000  H
  H35      1.0000 0.55430  0.16590  0.45210  Biso   1.000  H
  H36      1.0000 0.55430  0.33410  0.95210  Biso   1.000  H
  C45      1.0000 0.15240  0.96340  0.62240  Biso   1.000  C
  C46      1.0000 0.15240  0.53660  0.12240  Biso   1.000  C
  C47      1.0000 0.84760  0.03660  0.37760  Biso   1.000  C
  C48      1.0000 0.84760  0.46340  0.87760  Biso   1.000  C
  H37      1.0000 0.10410  0.94530  0.65060  Biso   1.000  H
  H38      1.0000 0.10410  0.55470  0.15060  Biso   1.000  H
  H39      1.0000 0.89590  0.05470  0.34940  Biso   1.000  H
  H40      1.0000 0.89590  0.44530  0.84940  Biso   1.000  H
  C49      1.0000 0.40640  0.27790  0.47890  Biso   1.000  C
  C50      1.0000 0.40640  0.22210  0.97890  Biso   1.000  C
  C51      1.0000 0.59360  0.72210  0.52110  Biso   1.000  C
  C52      1.0000 0.59360  0.77790  0.02110  Biso   1.000  C
  H41      1.0000 0.41640  0.23370  0.49840  Biso   1.000  H
  H42      1.0000 0.41640  0.26630  0.99840  Biso   1.000  H
  H43      1.0000 0.58360  0.76630  0.50160  Biso   1.000  H
  H44      1.0000 0.58360  0.73370  0.00160  Biso   1.000  H
  C53      1.0000 0.45930  0.33880  0.50810  Biso   1.000  C
  C54      1.0000 0.45930  0.16120  0.00810  Biso   1.000  C
  C55      1.0000 0.54070  0.66120  0.49190  Biso   1.000  C
  C56      1.0000 0.54070  0.83880  0.99190  Biso   1.000  C
  H45      1.0000 0.50220  0.33590  0.54650  Biso   1.000  H
  H46      1.0000 0.50220  0.16410  0.04650  Biso   1.000  H
  H47      1.0000 0.49780  0.66410  0.45350  Biso   1.000  H
  H48      1.0000 0.49780  0.83590  0.95350  Biso   1.000  H
  C57      1.0000 0.44740  0.40310  0.47970  Biso   1.000  C
  C58      1.0000 0.44740  0.09690  0.97970  Biso   1.000  C
  C59      1.0000 0.55260  0.59690  0.52030  Biso   1.000  C
  C60      1.0000 0.55260  0.90310  0.02030  Biso   1.000  C
  C61      1.0000 0.38040  0.40350  0.42400  Biso   1.000  C
  C62      1.0000 0.38040  0.09650  0.92400  Biso   1.000  C
  C63      1.0000 0.61960  0.59650  0.57600  Biso   1.000  C
  C64      1.0000 0.61960  0.90350  0.07600  Biso   1.000  C
  H49      1.0000 0.36830  0.44710  0.40360  Biso   1.000  H
  H50      1.0000 0.36830  0.05290  0.90360  Biso   1.000  H
  H51      1.0000 0.63170  0.55290  0.59640  Biso   1.000  H
  H52      1.0000 0.63170  0.94710  0.09640  Biso   1.000  H
  C65      1.0000 0.33100  0.34030  0.39810  Biso   1.000  C
  C66      1.0000 0.33100  0.15970  0.89810  Biso   1.000  C
  C67      1.0000 0.66900  0.65970  0.60190  Biso   1.000  C
  C68      1.0000 0.66900  0.84030  0.10190  Biso   1.000  C
  H53      1.0000 0.28740  0.34180  0.35980  Biso   1.000  H
  H54      1.0000 0.28740  0.15820  0.85980  Biso   1.000  H
  H55      1.0000 0.71260  0.65820  0.64020  Biso   1.000  H
  H56      1.0000 0.71260  0.84180  0.14020  Biso   1.000  H
  C69      1.0000 0.49940  0.46790  0.51100  Biso   1.000  C
  C70      1.0000 0.49940  0.03210  0.01100  Biso   1.000  C
  C71      1.0000 0.50060  0.53210  0.48900  Biso   1.000  C
  C72      1.0000 0.50060  0.96790  0.98900  Biso   1.000  C
  H57      1.0000 0.53470  0.46270  0.55020  Biso   1.000  H
  H58      1.0000 0.53470  0.03730  0.05020  Biso   1.000  H
  H59      1.0000 0.46530  0.53730  0.44980  Biso   1.000  H
  H60      1.0000 0.46530  0.96270  0.94980  Biso   1.000  H
  C73      1.0000 0.97060  0.22730  0.31410  Biso   1.000  C
  C74      1.0000 0.97060  0.27270  0.81410  Biso   1.000  C
  C75      1.0000 0.02940  0.77270  0.68590  Biso   1.000  C
  C76      1.0000 0.02940  0.72730  0.18590  Biso   1.000  C
  C77      1.0000 0.96200  0.27230  0.36020  Biso   1.000  C
  C78      1.0000 0.96200  0.22770  0.86020  Biso   1.000  C
  C79      1.0000 0.03800  0.72770  0.63980  Biso   1.000  C
  C80      1.0000 0.03800  0.77230  0.13980  Biso   1.000  C
  H61      1.0000 0.04080  0.28270  0.38650  Biso   1.000  H
  H62      1.0000 0.04080  0.21730  0.88650  Biso   1.000  H
  H63      1.0000 0.95920  0.71730  0.61350  Biso   1.000  H
  H64      1.0000 0.95920  0.78270  0.11350  Biso   1.000  H
  C81      1.0000 0.83720  0.30210  0.36770  Biso   1.000  C
  C82      1.0000 0.83720  0.19790  0.86770  Biso   1.000  C
  C83      1.0000 0.16280  0.69790  0.63230  Biso   1.000  C
  C84      1.0000 0.16280  0.80210  0.13230  Biso   1.000  C
  H65      1.0000 0.82940  0.33020  0.40010  Biso   1.000  H
  H66      1.0000 0.82940  0.16980  0.90010  Biso   1.000  H
  H67      1.0000 0.17060  0.66980  0.59990  Biso   1.000  H
  H68      1.0000 0.17060  0.83020  0.09990  Biso   1.000  H
  C85      1.0000 0.72410  0.28940  0.32580  Biso   1.000  C
  C86      1.0000 0.72410  0.21060  0.82580  Biso   1.000  C
  C87      1.0000 0.27590  0.71060  0.67420  Biso   1.000  C
  C88      1.0000 0.27590  0.78940  0.17420  Biso   1.000  C
  H69      1.0000 0.64270  0.31500  0.32670  Biso   1.000  H
  H70      1.0000 0.64270  0.18500  0.82670  Biso   1.000  H
  H71      1.0000 0.35730  0.68500  0.67330  Biso   1.000  H
  H72      1.0000 0.35730  0.81500  0.17330  Biso   1.000  H
  C89      1.0000 0.73120  0.23930  0.28310  Biso   1.000  C
  C90      1.0000 0.73120  0.26070  0.78310  Biso   1.000  C
  C91      1.0000 0.26880  0.76070  0.71690  Biso   1.000  C
  C92      1.0000 0.26880  0.73930  0.21690  Biso   1.000  C
  H73      1.0000 0.65110  0.22620  0.25850  Biso   1.000  H
  H74      1.0000 0.65110  0.27380  0.75850  Biso   1.000  H
  H75      1.0000 0.34890  0.77380  0.74150  Biso   1.000  H
  H76      1.0000 0.34890  0.72620  0.24150  Biso   1.000  H
  C93      1.0000 0.85240  0.20860  0.27590  Biso   1.000  C
  C94      1.0000 0.85240  0.29140  0.77590  Biso   1.000  C
  C95      1.0000 0.14760  0.79140  0.72410  Biso   1.000  C
  C96      1.0000 0.14760  0.70860  0.22410  Biso   1.000  C
  H77      1.0000 0.85670  0.17550  0.24610  Biso   1.000  H
  H78      1.0000 0.85670  0.32450  0.74610  Biso   1.000  H
  H79      1.0000 0.14330  0.82450  0.75390  Biso   1.000  H
  H80      1.0000 0.14330  0.67550  0.25390  Biso   1.000  H
  C97      1.0000 0.18880  0.24940  0.25260  Biso   1.000  C
  C98      1.0000 0.18880  0.25060  0.75260  Biso   1.000  C
  C99      1.0000 0.81120  0.75060  0.74740  Biso   1.000  C
  C100     1.0000 0.81120  0.74940  0.24740  Biso   1.000  C
  C101     1.0000 0.10140  0.29300  0.21730  Biso   1.000  C
  C102     1.0000 0.10140  0.20700  0.71730  Biso   1.000  C
  C103     1.0000 0.89860  0.70700  0.78270  Biso   1.000  C
  C104     1.0000 0.89860  0.79300  0.28270  Biso   1.000  C
  H81      1.0000 0.00870  0.29530  0.22140  Biso   1.000  H
  H82      1.0000 0.00870  0.20470  0.72140  Biso   1.000  H
  H83      1.0000 0.99130  0.70470  0.77860  Biso   1.000  H
  H84      1.0000 0.99130  0.79530  0.27860  Biso   1.000  H
  C105     1.0000 0.15040  0.33400  0.17510  Biso   1.000  C
  C106     1.0000 0.15040  0.16600  0.67510  Biso   1.000  C
  C107     1.0000 0.84960  0.66600  0.82490  Biso   1.000  C
  C108     1.0000 0.84960  0.83400  0.32490  Biso   1.000  C
  H85      1.0000 0.09120  0.36490  0.15150  Biso   1.000  H
  H86      1.0000 0.09120  0.13510  0.65150  Biso   1.000  H
  H87      1.0000 0.90880  0.63510  0.84850  Biso   1.000  H
  H88      1.0000 0.90880  0.86490  0.34850  Biso   1.000  H
  C109     1.0000 0.28240  0.32920  0.16840  Biso   1.000  C
  C110     1.0000 0.28240  0.17080  0.66840  Biso   1.000  C
  C111     1.0000 0.71760  0.67080  0.83160  Biso   1.000  C
  C112     1.0000 0.71760  0.82920  0.33160  Biso   1.000  C
  H89      1.0000 0.31490  0.35530  0.13920  Biso   1.000  H
  H90      1.0000 0.31490  0.14470  0.63920  Biso   1.000  H
  H91      1.0000 0.68510  0.64470  0.86080  Biso   1.000  H
  H92      1.0000 0.68510  0.85530  0.36080  Biso   1.000  H
  C113     1.0000 0.36770  0.28690  0.20360  Biso   1.000  C
  C114     1.0000 0.36770  0.21310  0.70360  Biso   1.000  C
  C115     1.0000 0.63230  0.71310  0.79640  Biso   1.000  C
  C116     1.0000 0.63230  0.78690  0.29640  Biso   1.000  C
  H93      1.0000 0.46040  0.28450  0.19960  Biso   1.000  H
  H94      1.0000 0.46040  0.21550  0.69960  Biso   1.000  H
  H95      1.0000 0.53960  0.71550  0.80040  Biso   1.000  H
  H96      1.0000 0.53960  0.78450  0.30040  Biso   1.000  H
  C117     1.0000 0.32150  0.24800  0.24440  Biso   1.000  C
  C118     1.0000 0.32150  0.25200  0.74440  Biso   1.000  C
  C119     1.0000 0.67850  0.75200  0.75560  Biso   1.000  C
  C120     1.0000 0.67850  0.74800  0.25560  Biso   1.000  C
  H97      1.0000 0.38320  0.21860  0.26820  Biso   1.000  H
  H98      1.0000 0.38320  0.28140  0.76820  Biso   1.000  H
  H99      1.0000 0.61680  0.78140  0.73180  Biso   1.000  H
  H100     1.0000 0.61680  0.71860  0.23180  Biso   1.000  H
  C121     1.0000 0.10240  0.10710  0.26720  Biso   1.000  C
  C122     1.0000 0.10240  0.39290  0.76720  Biso   1.000  C
  C123     1.0000 0.89760  0.89290  0.73280  Biso   1.000  C
  C124     1.0000 0.89760  0.60710  0.23280  Biso   1.000  C
  C125     1.0000 0.06370  0.10550  0.20730  Biso   1.000  C
  C126     1.0000 0.06370  0.39450  0.70730  Biso   1.000  C
  C127     1.0000 0.93630  0.89450  0.79270  Biso   1.000  C
  C128     1.0000 0.93630  0.60550  0.29270  Biso   1.000  C
  H101     1.0000 0.05180  0.14820  0.18580  Biso   1.000  H
  H102     1.0000 0.05180  0.35180  0.68580  Biso   1.000  H
  H103     1.0000 0.94820  0.85180  0.81420  Biso   1.000  H
  H104     1.0000 0.94820  0.64820  0.31420  Biso   1.000  H
  C129     1.0000 0.04380  0.03990  0.18110  Biso   1.000  C
  C130     1.0000 0.04380  0.46010  0.68110  Biso   1.000  C
  C131     1.0000 0.95620  0.96010  0.81890  Biso   1.000  C
  C132     1.0000 0.95620  0.53990  0.31890  Biso   1.000  C
  H105     1.0000 0.01820  0.03800  0.14110  Biso   1.000  H
  H106     1.0000 0.01820  0.46200  0.64110  Biso   1.000  H
  H107     1.0000 0.98180  0.96200  0.85890  Biso   1.000  H
  H108     1.0000 0.98180  0.53800  0.35890  Biso   1.000  H
  C133     1.0000 0.06010  0.97730  0.21130  Biso   1.000  C
  C134     1.0000 0.06010  0.52270  0.71130  Biso   1.000  C
  C135     1.0000 0.93990  0.02270  0.78870  Biso   1.000  C
  C136     1.0000 0.93990  0.47730  0.28870  Biso   1.000  C
  H109     1.0000 0.04570  0.93290  0.19220  Biso   1.000  H
  H110     1.0000 0.04570  0.56710  0.69220  Biso   1.000  H
  H111     1.0000 0.95430  0.06710  0.80780  Biso   1.000  H
  H112     1.0000 0.95430  0.43290  0.30780  Biso   1.000  H
  C137     1.0000 0.09710  0.97920  0.26900  Biso   1.000  C
  C138     1.0000 0.09710  0.52080  0.76900  Biso   1.000  C
  C139     1.0000 0.90290  0.02080  0.73100  Biso   1.000  C
  C140     1.0000 0.90290  0.47920  0.23100  Biso   1.000  C
  H113     1.0000 0.10590  0.93630  0.29040  Biso   1.000  H
  H114     1.0000 0.10590  0.56370  0.79040  Biso   1.000  H
  H115     1.0000 0.89410  0.06370  0.70960  Biso   1.000  H
  H116     1.0000 0.89410  0.43630  0.20960  Biso   1.000  H
  C141     1.0000 0.12150  0.04400  0.29580  Biso   1.000  C
  C142     1.0000 0.12150  0.45600  0.79580  Biso   1.000  C
  C143     1.0000 0.87850  0.95600  0.70420  Biso   1.000  C
  C144     1.0000 0.87850  0.54400  0.20420  Biso   1.000  C
  H117     1.0000 0.15270  0.04480  0.33550  Biso   1.000  H
  H118     1.0000 0.15270  0.45520  0.83550  Biso   1.000  H
  H119     1.0000 0.84730  0.95520  0.66450  Biso   1.000  H
  H120     1.0000 0.84730  0.54480  0.16450  Biso   1.000  H
  C145     1.0000 0.95450  0.30840  0.55450  Biso   1.000  C
  C146     1.0000 0.95450  0.19160  0.05450  Biso   1.000  C
  C147     1.0000 0.04550  0.69160  0.44550  Biso   1.000  C
  C148     1.0000 0.04550  0.80840  0.94550  Biso   1.000  C
  H121     1.0000 0.96550  0.30030  0.59600  Biso   1.000  H
  H122     1.0000 0.96550  0.19970  0.09600  Biso   1.000  H
  H123     1.0000 0.03450  0.69970  0.40400  Biso   1.000  H
  H124     1.0000 0.03450  0.80030  0.90400  Biso   1.000  H
  H125     1.0000 0.92000  0.26370  0.53550  Biso   1.000  H
  H126     1.0000 0.92000  0.23630  0.03550  Biso   1.000  H
  H127     1.0000 0.08000  0.73630  0.46450  Biso   1.000  H
  H128     1.0000 0.08000  0.76370  0.96450  Biso   1.000  H
  C149     1.0000 0.09200  0.12410  0.46700  Biso   1.000  C
  C150     1.0000 0.09200  0.37590  0.96700  Biso   1.000  C
  C151     1.0000 0.90800  0.87590  0.53300  Biso   1.000  C
  C152     1.0000 0.90800  0.62410  0.03300  Biso   1.000  C
  H129     1.0000 0.02300  0.14880  0.44300  Biso   1.000  H
  H130     1.0000 0.02300  0.35120  0.94300  Biso   1.000  H
  H131     1.0000 0.97700  0.85120  0.55700  Biso   1.000  H
  H132     1.0000 0.97700  0.64880  0.05700  Biso   1.000  H
  C153     1.0000 0.05500  0.09030  0.51230  Biso   1.000  C
  C154     1.0000 0.05500  0.40970  0.01230  Biso   1.000  C
  C155     1.0000 0.94500  0.90970  0.48770  Biso   1.000  C
  C156     1.0000 0.94500  0.59030  0.98770  Biso   1.000  C
  H133     1.0000 0.96640  0.09620  0.52090  Biso   1.000  H
  H134     1.0000 0.96640  0.40380  0.02090  Biso   1.000  H
  H135     1.0000 0.03360  0.90380  0.47910  Biso   1.000  H
  H136     1.0000 0.03360  0.59620  0.97910  Biso   1.000  H
  C157     1.0000 0.28230  0.05900  0.54120  Biso   1.000  C
  C158     1.0000 0.28230  0.44100  0.04120  Biso   1.000  C
  C159     1.0000 0.71770  0.94100  0.45880  Biso   1.000  C
  C160     1.0000 0.71770  0.55900  0.95880  Biso   1.000  C
  H137     1.0000 0.34950  0.04180  0.57060  Biso   1.000  H
  H138     1.0000 0.34950  0.45820  0.07060  Biso   1.000  H
  H139     1.0000 0.65050  0.95820  0.42940  Biso   1.000  H
  H140     1.0000 0.65050  0.54180  0.92940  Biso   1.000  H
  C161     1.0000 0.31220  0.09260  0.49410  Biso   1.000  C
  C162     1.0000 0.31220  0.40740  0.99410  Biso   1.000  C
  C163     1.0000 0.68780  0.90740  0.50590  Biso   1.000  C
  C164     1.0000 0.68780  0.59260  0.00590  Biso   1.000  C
  H141     1.0000 0.40430  0.09320  0.48900  Biso   1.000  H
  H142     1.0000 0.40430  0.40680  0.98900  Biso   1.000  H
  H143     1.0000 0.59570  0.90680  0.51100  Biso   1.000  H
  H144     1.0000 0.59570  0.59320  0.01100  Biso   1.000  H
  C165     1.0000 0.48090  0.06420  0.37720  Biso   1.000  C
  C166     1.0000 0.48090  0.43580  0.87720  Biso   1.000  C
  C167     1.0000 0.51910  0.93580  0.62280  Biso   1.000  C
  C168     1.0000 0.51910  0.56420  0.12280  Biso   1.000  C
  H145     1.0000 0.40240  0.03520  0.37370  Biso   1.000  H
  H146     1.0000 0.40240  0.46480  0.87370  Biso   1.000  H
  H147     1.0000 0.59760  0.96480  0.62630  Biso   1.000  H
  H148     1.0000 0.59760  0.53520  0.12630  Biso   1.000  H
  C169     1.0000 0.60160  0.02980  0.37860  Biso   1.000  C
  C170     1.0000 0.60160  0.47020  0.87860  Biso   1.000  C
  C171     1.0000 0.39840  0.97020  0.62140  Biso   1.000  C
  C172     1.0000 0.39840  0.52980  0.12140  Biso   1.000  C
  H149     1.0000 0.60670  0.97940  0.37950  Biso   1.000  H
  H150     1.0000 0.60670  0.52060  0.87950  Biso   1.000  H
  H151     1.0000 0.39330  0.02060  0.62050  Biso   1.000  H
  H152     1.0000 0.39330  0.47940  0.12050  Biso   1.000  H
  C173     1.0000 0.70470  0.14230  0.38900  Biso   1.000  C
  C174     1.0000 0.70470  0.35770  0.88900  Biso   1.000  C
  C175     1.0000 0.29530  0.85770  0.61100  Biso   1.000  C
  C176     1.0000 0.29530  0.64230  0.11100  Biso   1.000  C
  H153     1.0000 0.78350  0.17120  0.39500  Biso   1.000  H
  H154     1.0000 0.78350  0.32880  0.89500  Biso   1.000  H
  H155     1.0000 0.21650  0.82880  0.60500  Biso   1.000  H
  H156     1.0000 0.21650  0.67120  0.10500  Biso   1.000  H
  C177     1.0000 0.57970  0.17060  0.39020  Biso   1.000  C
  C178     1.0000 0.57970  0.32940  0.89020  Biso   1.000  C
  C179     1.0000 0.42030  0.82940  0.60980  Biso   1.000  C
  C180     1.0000 0.42030  0.67060  0.10980  Biso   1.000  C
  H157     1.0000 0.57530  0.21980  0.39880  Biso   1.000  H
  H158     1.0000 0.57530  0.28020  0.89880  Biso   1.000  H
  H159     1.0000 0.42470  0.78020  0.60120  Biso   1.000  H
  H160     1.0000 0.42470  0.71980  0.10120  Biso   1.000  H
  C181     1.0000 0.43800  0.93670  0.20180  Biso   1.000  C
  C182     1.0000 0.43800  0.56330  0.70180  Biso   1.000  C
  C183     1.0000 0.56200  0.06330  0.79820  Biso   1.000  C
  C184     1.0000 0.56200  0.43670  0.29820  Biso   1.000  C
  H161     1.0000 0.41860  0.94000  0.24070  Biso   1.000  H
  H162     1.0000 0.41860  0.56000  0.74070  Biso   1.000  H
  H163     1.0000 0.58140  0.06000  0.75930  Biso   1.000  H
  H164     1.0000 0.58140  0.44000  0.25930  Biso   1.000  H
  H165     1.0000 0.50200  0.89760  0.19930  Biso   1.000  H
  H166     1.0000 0.50200  0.60240  0.69930  Biso   1.000  H
  H167     1.0000 0.49800  0.10240  0.80070  Biso   1.000  H
  H168     1.0000 0.49800  0.39760  0.30070  Biso   1.000  H
  H169     1.0000 0.35450  0.92760  0.17560  Biso   1.000  H
  H170     1.0000 0.35450  0.57240  0.67560  Biso   1.000  H
  H171     1.0000 0.64550  0.07240  0.82440  Biso   1.000  H
  H172     1.0000 0.64550  0.42760  0.32440  Biso   1.000  H
  C185     1.0000 0.49900  0.00520  0.18600  Biso   1.000  C
  C186     1.0000 0.49900  0.49480  0.68600  Biso   1.000  C
  C187     1.0000 0.50100  0.99480  0.81400  Biso   1.000  C
  C188     1.0000 0.50100  0.50520  0.31400  Biso   1.000  C
  C189     1.0000 0.41700  0.06430  0.17210  Biso   1.000  C
  C190     1.0000 0.41700  0.43570  0.67210  Biso   1.000  C
  C191     1.0000 0.58300  0.93570  0.82790  Biso   1.000  C
  C192     1.0000 0.58300  0.56430  0.32790  Biso   1.000  C
  H173     1.0000 0.32310  0.06120  0.17290  Biso   1.000  H
  H174     1.0000 0.32310  0.43880  0.67290  Biso   1.000  H
  H175     1.0000 0.67690  0.93880  0.82710  Biso   1.000  H
  H176     1.0000 0.67690  0.56120  0.32710  Biso   1.000  H
  C193     1.0000 0.47300  0.12780  0.15690  Biso   1.000  C
  C194     1.0000 0.47300  0.37220  0.65690  Biso   1.000  C
  C195     1.0000 0.52700  0.87220  0.84310  Biso   1.000  C
  C196     1.0000 0.52700  0.62780  0.34310  Biso   1.000  C
  H177     1.0000 0.41720  0.16810  0.14740  Biso   1.000  H
  H178     1.0000 0.41720  0.33190  0.64740  Biso   1.000  H
  H179     1.0000 0.58280  0.83190  0.85260  Biso   1.000  H
  H180     1.0000 0.58280  0.66810  0.35260  Biso   1.000  H
  C197     1.0000 0.61100  0.13230  0.15570  Biso   1.000  C
  C198     1.0000 0.61100  0.36770  0.65570  Biso   1.000  C
  C199     1.0000 0.38900  0.86770  0.84430  Biso   1.000  C
  C200     1.0000 0.38900  0.63230  0.34430  Biso   1.000  C
  H181     1.0000 0.64940  0.17570  0.14540  Biso   1.000  H
  H182     1.0000 0.64940  0.32430  0.64540  Biso   1.000  H
  H183     1.0000 0.35060  0.82430  0.85460  Biso   1.000  H
  H184     1.0000 0.35060  0.67570  0.35460  Biso   1.000  H
  C201     1.0000 0.69300  0.07330  0.16960  Biso   1.000  C
  C202     1.0000 0.69300  0.42670  0.66960  Biso   1.000  C
  C203     1.0000 0.30700  0.92670  0.83040  Biso   1.000  C
  C204     1.0000 0.30700  0.57330  0.33040  Biso   1.000  C
  H185     1.0000 0.78750  0.07630  0.16880  Biso   1.000  H
  H186     1.0000 0.78750  0.42370  0.66880  Biso   1.000  H
  H187     1.0000 0.21250  0.92370  0.83120  Biso   1.000  H
  H188     1.0000 0.21250  0.57630  0.33120  Biso   1.000  H
  C205     1.0000 0.63700  0.00970  0.18470  Biso   1.000  C
  C206     1.0000 0.63700  0.49030  0.68470  Biso   1.000  C
  C207     1.0000 0.36300  0.99030  0.81530  Biso   1.000  C
  C208     1.0000 0.36300  0.50970  0.31530  Biso   1.000  C
  H189     1.0000 0.69350  0.96940  0.19420  Biso   1.000  H
  H190     1.0000 0.69350  0.53060  0.69420  Biso   1.000  H
  H191     1.0000 0.30650  0.03060  0.80580  Biso   1.000  H
  H192     1.0000 0.30650  0.46940  0.30580  Biso   1.000  H
  C209     1.0000 0.47910  0.07310  0.16970  Biso   1.000  C
  C210     1.0000 0.47910  0.42690  0.66970  Biso   1.000  C
  C211     1.0000 0.52090  0.92690  0.83030  Biso   1.000  C
  C212     1.0000 0.52090  0.57310  0.33030  Biso   1.000  C
  C213     1.0000 0.61700  0.08580  0.17390  Biso   1.000  C
  C214     1.0000 0.61700  0.41420  0.67390  Biso   1.000  C
  C215     1.0000 0.38300  0.91420  0.82610  Biso   1.000  C
  C216     1.0000 0.38300  0.58580  0.32610  Biso   1.000  C
  H193     1.0000 0.64820  0.12720  0.15710  Biso   1.000  H
  H194     1.0000 0.64820  0.37280  0.65710  Biso   1.000  H
  H195     1.0000 0.35180  0.87280  0.84290  Biso   1.000  H
  H196     1.0000 0.35180  0.62720  0.34290  Biso   1.000  H
  C217     1.0000 0.70890  0.03790  0.20260  Biso   1.000  C
  C218     1.0000 0.70890  0.46210  0.70260  Biso   1.000  C
  C219     1.0000 0.29110  0.96210  0.79740  Biso   1.000  C
  C220     1.0000 0.29110  0.53790  0.29740  Biso   1.000  C
  H197     1.0000 0.80310  0.04660  0.20540  Biso   1.000  H
  H198     1.0000 0.80310  0.45340  0.70540  Biso   1.000  H
  H199     1.0000 0.19690  0.95340  0.79460  Biso   1.000  H
  H200     1.0000 0.19690  0.54660  0.29460  Biso   1.000  H
  C221     1.0000 0.66300  0.97730  0.22710  Biso   1.000  C
  C222     1.0000 0.66300  0.52270  0.72710  Biso   1.000  C
  C223     1.0000 0.33700  0.02270  0.77290  Biso   1.000  C
  C224     1.0000 0.33700  0.47730  0.27290  Biso   1.000  C
  H201     1.0000 0.72610  0.94460  0.24670  Biso   1.000  H
  H202     1.0000 0.72610  0.55540  0.74670  Biso   1.000  H
  H203     1.0000 0.27390  0.05540  0.75330  Biso   1.000  H
  H204     1.0000 0.27390  0.44460  0.25330  Biso   1.000  H
  C225     1.0000 0.52500  0.96460  0.22300  Biso   1.000  C
  C226     1.0000 0.52500  0.53540  0.72300  Biso   1.000  C
  C227     1.0000 0.47500  0.03540  0.77700  Biso   1.000  C
  C228     1.0000 0.47500  0.46460  0.27700  Biso   1.000  C
  H205     1.0000 0.49410  0.92320  0.23970  Biso   1.000  H
  H206     1.0000 0.49410  0.57680  0.73970  Biso   1.000  H
  H207     1.0000 0.50590  0.07680  0.76030  Biso   1.000  H
  H208     1.0000 0.50590  0.42320  0.26030  Biso   1.000  H
  C229     1.0000 0.43330  0.01250  0.19430  Biso   1.000  C
  C230     1.0000 0.43330  0.48750  0.69430  Biso   1.000  C
  C231     1.0000 0.56670  0.98750  0.80570  Biso   1.000  C
  C232     1.0000 0.56670  0.51250  0.30570  Biso   1.000  C
  H209     1.0000 0.33910  0.00380  0.19140  Biso   1.000  H
  H210     1.0000 0.33910  0.49620  0.69140  Biso   1.000  H
  H211     1.0000 0.66090  0.99620  0.80860  Biso   1.000  H
  H212     1.0000 0.66090  0.50380  0.30860  Biso   1.000  H
  C233     1.0000 0.35500  0.11510  0.13820  Biso   1.000  C
  C234     1.0000 0.35500  0.38490  0.63820  Biso   1.000  C
  C235     1.0000 0.64500  0.88490  0.86180  Biso   1.000  C
  C236     1.0000 0.64500  0.61510  0.36180  Biso   1.000  C
  H213     1.0000 0.30110  0.13320  0.16590  Biso   1.000  H
  H214     1.0000 0.30110  0.36680  0.66590  Biso   1.000  H
  H215     1.0000 0.69890  0.86680  0.83410  Biso   1.000  H
  H216     1.0000 0.69890  0.63320  0.33410  Biso   1.000  H
  H217     1.0000 0.30010  0.08340  0.11140  Biso   1.000  H
  H218     1.0000 0.30010  0.41660  0.61140  Biso   1.000  H
  H219     1.0000 0.69990  0.91660  0.88860  Biso   1.000  H
  H220     1.0000 0.69990  0.58340  0.38860  Biso   1.000  H
  H221     1.0000 0.38740  0.15510  0.11750  Biso   1.000  H
  H222     1.0000 0.38740  0.34490  0.61750  Biso   1.000  H
  H223     1.0000 0.61260  0.84490  0.88250  Biso   1.000  H
  H224     1.0000 0.61260  0.65510  0.38250  Biso   1.000  H
