data_image0
_cell_length_a       7.533
_cell_length_b       11.746
_cell_length_c       7.003
_cell_angle_alpha    90.85
_cell_angle_beta     103.36
_cell_angle_gamma    83.618

_symmetry_space_group_name_H-M    "P 1"
_symmetry_int_tables_number       1

loop_
  _symmetry_equiv_pos_as_xyz
  'x, y, z'

loop_
  _atom_site_label
  _atom_site_occupancy
  _atom_site_fract_x
  _atom_site_fract_y
  _atom_site_fract_z
  _atom_site_thermal_displace_type
  _atom_site_B_iso_or_equiv
  _atom_site_type_symbol
  Se1      1.0000 0.04216  0.16031  0.28298  Biso   1.000  Se
  Se2      1.0000 0.95784  0.83969  0.71702  Biso   1.000  Se
  Se3      1.0000 0.72129  0.99365  0.18273  Biso   1.000  Se
  Se4      1.0000 0.27871  0.00635  0.81727  Biso   1.000  Se
  Cu1      1.0000 0.94913  0.44989  0.30196  Biso   1.000  Cu
  Cu2      1.0000 0.05087  0.55011  0.69804  Biso   1.000  Cu
  Cl1      1.0000 0.21350  0.40302  0.53600  Biso   1.000  Cl
  Cl2      1.0000 0.78650  0.59698  0.46400  Biso   1.000  Cl
  Cl3      1.0000 0.00000  0.50000  0.00000  Biso   1.000  Cl
  S1       1.0000 0.33300  0.92432  0.32100  Biso   1.000  S
  S2       1.0000 0.66700  0.07568  0.67900  Biso   1.000  S
  S3       1.0000 0.03670  0.77843  0.23010  Biso   1.000  S
  S4       1.0000 0.96330  0.22157  0.76990  Biso   1.000  S
  N1       1.0000 0.75630  0.33760  0.23690  Biso   1.000  N
  N2       1.0000 0.24370  0.66240  0.76310  Biso   1.000  N
  N3       1.0000 0.47920  0.19390  0.14800  Biso   1.000  N
  N4       1.0000 0.52080  0.80610  0.85200  Biso   1.000  N
  C1       1.0000 0.57730  0.37800  0.19890  Biso   1.000  C
  C2       1.0000 0.42270  0.62200  0.80110  Biso   1.000  C
  C3       1.0000 0.44140  0.30660  0.15450  Biso   1.000  C
  C4       1.0000 0.55860  0.69340  0.84550  Biso   1.000  C
  C5       1.0000 0.79440  0.22660  0.23160  Biso   1.000  C
  C6       1.0000 0.20560  0.77340  0.76840  Biso   1.000  C
  C7       1.0000 0.65440  0.15360  0.18820  Biso   1.000  C
  C8       1.0000 0.34560  0.84640  0.81180  Biso   1.000  C
  C9       1.0000 0.97350  0.01080  0.24240  Biso   1.000  C
  C10      1.0000 0.02650  0.98920  0.75760  Biso   1.000  C
  C11      1.0000 0.09850  0.91710  0.26090  Biso   1.000  C
  C12      1.0000 0.90150  0.08290  0.73910  Biso   1.000  C
  C13      1.0000 0.39410  0.78080  0.32850  Biso   1.000  C
  C14      1.0000 0.60590  0.21920  0.67150  Biso   1.000  C
  C15      1.0000 0.26070  0.71310  0.28680  Biso   1.000  C
  C16      1.0000 0.73930  0.28690  0.71320  Biso   1.000  C
  H1       1.0000 0.54430  0.45830  0.20220  Biso   1.000  H
  H2       1.0000 0.45570  0.54170  0.79780  Biso   1.000  H
  H3       1.0000 0.31650  0.33840  0.12710  Biso   1.000  H
  H4       1.0000 0.68350  0.66160  0.87290  Biso   1.000  H
  H5       1.0000 0.51960  0.75010  0.36110  Biso   1.000  H
  H6       1.0000 0.48040  0.24990  0.63890  Biso   1.000  H
  H7       1.0000 0.28680  0.63210  0.28850  Biso   1.000  H
  H8       1.0000 0.71320  0.36790  0.71150  Biso   1.000  H
