data_image0
_cell_length_a       7.523
_cell_length_b       11.723
_cell_length_c       6.955
_cell_angle_alpha    90.71
_cell_angle_beta     103.86
_cell_angle_gamma    83.88

_symmetry_space_group_name_H-M    "P 1"
_symmetry_int_tables_number       1

loop_
  _symmetry_equiv_pos_as_xyz
  'x, y, z'

loop_
  _atom_site_label
  _atom_site_occupancy
  _atom_site_fract_x
  _atom_site_fract_y
  _atom_site_fract_z
  _atom_site_thermal_displace_type
  _atom_site_B_iso_or_equiv
  _atom_site_type_symbol
  Se1      1.0000 0.96077  0.33884  0.71660  Biso   1.000  Se
  Se2      1.0000 0.03923  0.66116  0.28340  Biso   1.000  Se
  Se3      1.0000 0.28347  0.50726  0.81392  Biso   1.000  Se
  Se4      1.0000 0.71653  0.49274  0.18608  Biso   1.000  Se
  Cu1      1.0000 0.05443  0.05060  0.69747  Biso   1.000  Cu
  Cu2      1.0000 0.94557  0.94940  0.30253  Biso   1.000  Cu
  Cl1      1.0000 0.78510  0.09721  0.46190  Biso   1.000  Cl
  Cl2      1.0000 0.21490  0.90279  0.53810  Biso   1.000  Cl
  Cl3      1.0000 0.00000  0.00000  0.00000  Biso   1.000  Cl
  S1       1.0000 0.66750  0.57468  0.68220  Biso   1.000  S
  S2       1.0000 0.33250  0.42532  0.31780  Biso   1.000  S
  S3       1.0000 0.96660  0.72240  0.77070  Biso   1.000  S
  S4       1.0000 0.03340  0.27760  0.22930  Biso   1.000  S
  N1       1.0000 0.24880  0.16130  0.75970  Biso   1.000  N
  N2       1.0000 0.75120  0.83870  0.24030  Biso   1.000  N
  N3       1.0000 0.52780  0.30770  0.84600  Biso   1.000  N
  N4       1.0000 0.47220  0.69230  0.15400  Biso   1.000  N
  C1       1.0000 0.43000  0.12040  0.80020  Biso   1.000  C
  C2       1.0000 0.57000  0.87960  0.19980  Biso   1.000  C
  C3       1.0000 0.56430  0.19360  0.84350  Biso   1.000  C
  C4       1.0000 0.43570  0.80640  0.15650  Biso   1.000  C
  C5       1.0000 0.21000  0.27410  0.76440  Biso   1.000  C
  C6       1.0000 0.79000  0.72590  0.23560  Biso   1.000  C
  C7       1.0000 0.35030  0.34850  0.80900  Biso   1.000  C
  C8       1.0000 0.64970  0.65150  0.19100  Biso   1.000  C
  C9       1.0000 0.02860  0.48810  0.75490  Biso   1.000  C
  C10      1.0000 0.97140  0.51190  0.24510  Biso   1.000  C
  C11      1.0000 0.90320  0.58420  0.73880  Biso   1.000  C
  C12      1.0000 0.09680  0.41580  0.26120  Biso   1.000  C
  C13      1.0000 0.60590  0.71980  0.67490  Biso   1.000  C
  C14      1.0000 0.39410  0.28020  0.32510  Biso   1.000  C
  C15      1.0000 0.74380  0.78800  0.71660  Biso   1.000  C
  C16      1.0000 0.25620  0.21200  0.28340  Biso   1.000  C
  H1       1.0000 0.46380  0.04000  0.79970  Biso   1.000  H
  H2       1.0000 0.53620  0.96000  0.20030  Biso   1.000  H
  H3       1.0000 0.68950  0.16200  0.87350  Biso   1.000  H
  H4       1.0000 0.31050  0.83800  0.12650  Biso   1.000  H
  H5       1.0000 0.48040  0.75090  0.64220  Biso   1.000  H
  H6       1.0000 0.51960  0.24910  0.35780  Biso   1.000  H
  H7       1.0000 0.71920  0.86920  0.71660  Biso   1.000  H
  H8       1.0000 0.28080  0.13080  0.28340  Biso   1.000  H
