data_image0
_cell_length_a       9.786
_cell_length_b       6.5786
_cell_length_c       9.944
_cell_angle_alpha    90
_cell_angle_beta     100.326
_cell_angle_gamma    90

_symmetry_space_group_name_H-M    "P 1"
_symmetry_int_tables_number       1

loop_
  _symmetry_equiv_pos_as_xyz
  'x, y, z'

loop_
  _atom_site_label
  _atom_site_occupancy
  _atom_site_fract_x
  _atom_site_fract_y
  _atom_site_fract_z
  _atom_site_thermal_displace_type
  _atom_site_B_iso_or_equiv
  _atom_site_type_symbol
  Cu1      1.0000 0.95744  0.02056  0.33430  Biso   1.000  Cu
  Cu2      1.0000 0.54256  0.52056  0.16570  Biso   1.000  Cu
  Cu3      1.0000 0.04256  0.97944  0.66570  Biso   1.000  Cu
  Cu4      1.0000 0.45744  0.47944  0.83430  Biso   1.000  Cu
  C1       1.0000 0.86960  0.62800  0.37900  Biso   1.000  C
  C2       1.0000 0.63040  0.12800  0.12100  Biso   1.000  C
  C3       1.0000 0.13040  0.37200  0.62100  Biso   1.000  C
  C4       1.0000 0.36960  0.87200  0.87900  Biso   1.000  C
  C5       1.0000 0.86290  0.41900  0.37430  Biso   1.000  C
  C6       1.0000 0.63710  0.91900  0.12570  Biso   1.000  C
  C7       1.0000 0.13710  0.58100  0.62570  Biso   1.000  C
  C8       1.0000 0.36290  0.08100  0.87430  Biso   1.000  C
  H1       1.0000 0.80390  0.35220  0.42320  Biso   1.000  H
  H2       1.0000 0.69610  0.85220  0.07680  Biso   1.000  H
  H3       1.0000 0.19610  0.64780  0.57680  Biso   1.000  H
  H4       1.0000 0.30390  0.14780  0.92320  Biso   1.000  H
  C9       1.0000 0.01900  0.40910  0.22600  Biso   1.000  C
  C10      1.0000 0.48100  0.90910  0.27400  Biso   1.000  C
  C11      1.0000 0.98100  0.59090  0.77400  Biso   1.000  C
  C12      1.0000 0.51900  0.09090  0.72600  Biso   1.000  C
  C13      1.0000 0.02060  0.62050  0.22680  Biso   1.000  C
  C14      1.0000 0.47940  0.12050  0.27320  Biso   1.000  C
  C15      1.0000 0.97940  0.37950  0.77320  Biso   1.000  C
  C16      1.0000 0.52060  0.87950  0.72680  Biso   1.000  C
  H5       1.0000 0.07320  0.68820  0.17170  Biso   1.000  H
  H6       1.0000 0.42680  0.18820  0.32830  Biso   1.000  H
  H7       1.0000 0.92680  0.31180  0.82830  Biso   1.000  H
  H8       1.0000 0.57320  0.81180  0.67170  Biso   1.000  H
  C17      1.0000 0.79460  0.74930  0.47360  Biso   1.000  C
  C18      1.0000 0.70540  0.24930  0.02640  Biso   1.000  C
  C19      1.0000 0.20540  0.25070  0.52640  Biso   1.000  C
  C20      1.0000 0.29460  0.75070  0.97360  Biso   1.000  C
  C21      1.0000 0.10420  0.28760  0.14580  Biso   1.000  C
  C22      1.0000 0.39580  0.78760  0.35420  Biso   1.000  C
  C23      1.0000 0.89580  0.71240  0.85420  Biso   1.000  C
  C24      1.0000 0.60420  0.21240  0.64580  Biso   1.000  C
  H9       1.0000 0.16890  0.20570  0.20670  Biso   1.000  H
  H10      1.0000 0.33110  0.70570  0.29330  Biso   1.000  H
  H11      1.0000 0.83110  0.79430  0.79330  Biso   1.000  H
  H12      1.0000 0.66890  0.29430  0.70670  Biso   1.000  H
  H13      1.0000 0.15400  0.37750  0.09580  Biso   1.000  H
  H14      1.0000 0.34600  0.87750  0.40420  Biso   1.000  H
  H15      1.0000 0.84600  0.62250  0.90420  Biso   1.000  H
  H16      1.0000 0.65400  0.12250  0.59580  Biso   1.000  H
  H17      1.0000 0.04460  0.20130  0.08300  Biso   1.000  H
  H18      1.0000 0.45540  0.70130  0.41700  Biso   1.000  H
  H19      1.0000 0.95540  0.79870  0.91700  Biso   1.000  H
  H20      1.0000 0.54460  0.29870  0.58300  Biso   1.000  H
  N1       1.0000 0.94940  0.72950  0.30370  Biso   1.000  N
  N2       1.0000 0.55060  0.22950  0.19630  Biso   1.000  N
  N3       1.0000 0.05060  0.27050  0.69630  Biso   1.000  N
  N4       1.0000 0.44940  0.77050  0.80370  Biso   1.000  N
  N5       1.0000 0.93940  0.30800  0.30090  Biso   1.000  N
  N6       1.0000 0.56060  0.80800  0.19910  Biso   1.000  N
  N7       1.0000 0.06060  0.69200  0.69910  Biso   1.000  N
  N8       1.0000 0.43940  0.19200  0.80090  Biso   1.000  N
  O1       1.0000 0.82960  0.93590  0.48900  Biso   1.000  O
  O2       1.0000 0.67040  0.43590  0.01100  Biso   1.000  O
  O3       1.0000 0.17040  0.06410  0.51100  Biso   1.000  O
  O4       1.0000 0.32960  0.56410  0.98900  Biso   1.000  O
  O5       1.0000 0.71270  0.65700  0.53250  Biso   1.000  O
  O6       1.0000 0.78730  0.15700  0.96750  Biso   1.000  O
  O7       1.0000 0.28730  0.34300  0.46750  Biso   1.000  O
  O8       1.0000 0.21270  0.84300  0.03250  Biso   1.000  O
