data_image0
_cell_length_a       6.7771
_cell_length_b       9.3452
_cell_length_c       12.1533
_cell_angle_alpha    90
_cell_angle_beta     90
_cell_angle_gamma    90

_symmetry_space_group_name_H-M    "P 1"
_symmetry_int_tables_number       1

loop_
  _symmetry_equiv_pos_as_xyz
  'x, y, z'

loop_
  _atom_site_label
  _atom_site_occupancy
  _atom_site_fract_x
  _atom_site_fract_y
  _atom_site_fract_z
  _atom_site_thermal_displace_type
  _atom_site_B_iso_or_equiv
  _atom_site_type_symbol
  Cu1      1.0000 0.59442  0.61666  0.49804  Biso   1.000  Cu
  Cu2      1.0000 0.90558  0.38334  0.99804  Biso   1.000  Cu
  Cu3      1.0000 0.40558  0.11666  0.00196  Biso   1.000  Cu
  Cu4      1.0000 0.09442  0.88334  0.50196  Biso   1.000  Cu
  Cl1      1.0000 0.74869  0.85294  0.51859  Biso   1.000  Cl
  Cl2      1.0000 0.75131  0.14706  0.01859  Biso   1.000  Cl
  Cl3      1.0000 0.25131  0.35294  0.98141  Biso   1.000  Cl
  Cl4      1.0000 0.24869  0.64706  0.48141  Biso   1.000  Cl
  N1       1.0000 0.69490  0.51850  0.63523  Biso   1.000  N
  N2       1.0000 0.80510  0.48150  0.13523  Biso   1.000  N
  N3       1.0000 0.30510  0.01850  0.86477  Biso   1.000  N
  N4       1.0000 0.19490  0.98150  0.36477  Biso   1.000  N
  N5       1.0000 0.82970  0.43160  0.84070  Biso   1.000  N
  N6       1.0000 0.67030  0.56840  0.34070  Biso   1.000  N
  N7       1.0000 0.17030  0.93160  0.65930  Biso   1.000  N
  N8       1.0000 0.32970  0.06840  0.15930  Biso   1.000  N
  C1       1.0000 0.59700  0.41970  0.69370  Biso   1.000  C
  C2       1.0000 0.90300  0.58030  0.19370  Biso   1.000  C
  C3       1.0000 0.40300  0.91970  0.80630  Biso   1.000  C
  C4       1.0000 0.09700  0.08030  0.30630  Biso   1.000  C
  C5       1.0000 0.66610  0.37930  0.79690  Biso   1.000  C
  C6       1.0000 0.83390  0.62070  0.29690  Biso   1.000  C
  C7       1.0000 0.33390  0.87930  0.70310  Biso   1.000  C
  C8       1.0000 0.16610  0.12070  0.20310  Biso   1.000  C
  H1       1.0000 0.59410  0.31240  0.83700  Biso   1.000  H
  H2       1.0000 0.90590  0.68760  0.33700  Biso   1.000  H
  H3       1.0000 0.40590  0.81240  0.66300  Biso   1.000  H
  H4       1.0000 0.09410  0.18760  0.16300  Biso   1.000  H
  C9       1.0000 0.93290  0.52410  0.77940  Biso   1.000  C
  C10      1.0000 0.56710  0.47590  0.27940  Biso   1.000  C
  C11      1.0000 0.06710  0.02410  0.72060  Biso   1.000  C
  C12      1.0000 0.43290  0.97590  0.22060  Biso   1.000  C
  H5       1.0000 0.05230  0.55940  0.80550  Biso   1.000  H
  H6       1.0000 0.44770  0.44060  0.30550  Biso   1.000  H
  H7       1.0000 0.94770  0.05940  0.69450  Biso   1.000  H
  H8       1.0000 0.55230  0.94060  0.19450  Biso   1.000  H
  C13      1.0000 0.86440  0.56760  0.67800  Biso   1.000  C
  C14      1.0000 0.63560  0.43240  0.17800  Biso   1.000  C
  C15      1.0000 0.13560  0.06760  0.82200  Biso   1.000  C
  C16      1.0000 0.36440  0.93240  0.32200  Biso   1.000  C
  H9       1.0000 0.93810  0.63330  0.63790  Biso   1.000  H
  H10      1.0000 0.56190  0.36670  0.13790  Biso   1.000  H
  H11      1.0000 0.06190  0.13330  0.86210  Biso   1.000  H
  H12      1.0000 0.43810  0.86670  0.36210  Biso   1.000  H
  C17      1.0000 0.41960  0.34790  0.64590  Biso   1.000  C
  C18      1.0000 0.08040  0.65210  0.14590  Biso   1.000  C
  C19      1.0000 0.58040  0.84790  0.85410  Biso   1.000  C
  C20      1.0000 0.91960  0.15210  0.35410  Biso   1.000  C
  H13      1.0000 0.34280  0.41740  0.60490  Biso   1.000  H
  H14      1.0000 0.15720  0.58260  0.10490  Biso   1.000  H
  H15      1.0000 0.65720  0.91740  0.89510  Biso   1.000  H
  H16      1.0000 0.84280  0.08260  0.39510  Biso   1.000  H
  H17      1.0000 0.33760  0.31150  0.70510  Biso   1.000  H
  H18      1.0000 0.16240  0.68850  0.20510  Biso   1.000  H
  H19      1.0000 0.66240  0.81150  0.79490  Biso   1.000  H
  H20      1.0000 0.83760  0.18850  0.29490  Biso   1.000  H
  C21      1.0000 0.47570  0.22610  0.57070  Biso   1.000  C
  C22      1.0000 0.02430  0.77390  0.07070  Biso   1.000  C
  C23      1.0000 0.52430  0.72610  0.92930  Biso   1.000  C
  C24      1.0000 0.97570  0.27390  0.42930  Biso   1.000  C
  H21      1.0000 0.35830  0.18240  0.54180  Biso   1.000  H
  H22      1.0000 0.14170  0.81760  0.04180  Biso   1.000  H
  H23      1.0000 0.64170  0.68240  0.95820  Biso   1.000  H
  H24      1.0000 0.85830  0.31760  0.45820  Biso   1.000  H
  H25      1.0000 0.55000  0.15640  0.61130  Biso   1.000  H
  H26      1.0000 0.95000  0.84360  0.11130  Biso   1.000  H
  H27      1.0000 0.45000  0.65640  0.88870  Biso   1.000  H
  H28      1.0000 0.05000  0.34360  0.38870  Biso   1.000  H
  H29      1.0000 0.55440  0.26200  0.51110  Biso   1.000  H
  H30      1.0000 0.94560  0.73800  0.01110  Biso   1.000  H
  H31      1.0000 0.44560  0.76200  0.98890  Biso   1.000  H
  H32      1.0000 0.05440  0.23800  0.48890  Biso   1.000  H
