data_image0
_cell_length_a       7.3626
_cell_length_b       9.024
_cell_length_c       12.963
_cell_angle_alpha    87.08
_cell_angle_beta     88.397
_cell_angle_gamma    89.79

_symmetry_space_group_name_H-M    "P 1"
_symmetry_int_tables_number       1

loop_
  _symmetry_equiv_pos_as_xyz
  'x, y, z'

loop_
  _atom_site_label
  _atom_site_occupancy
  _atom_site_fract_x
  _atom_site_fract_y
  _atom_site_fract_z
  _atom_site_thermal_displace_type
  _atom_site_B_iso_or_equiv
  _atom_site_type_symbol
  Cu1      1.0000 0.73010  0.04710  0.75247  Biso   1.000  Cu
  Cu2      1.0000 0.26990  0.95290  0.24753  Biso   1.000  Cu
  Cu3      1.0000 0.74619  0.73315  0.66362  Biso   1.000  Cu
  Cu4      1.0000 0.25381  0.26685  0.33638  Biso   1.000  Cu
  Cu5      1.0000 0.78404  0.70835  0.86202  Biso   1.000  Cu
  Cu6      1.0000 0.21596  0.29165  0.13798  Biso   1.000  Cu
  Cl1      1.0000 0.78770  0.51843  0.75759  Biso   1.000  Cl
  Cl2      1.0000 0.21230  0.48157  0.24241  Biso   1.000  Cl
  Cl3      1.0000 0.97450  0.90980  0.67309  Biso   1.000  Cl
  Cl4      1.0000 0.02550  0.09020  0.32691  Biso   1.000  Cl
  Cl5      1.0000 0.52951  0.86365  0.83350  Biso   1.000  Cl
  Cl6      1.0000 0.47049  0.13635  0.16650  Biso   1.000  Cl
  N1       1.0000 0.06770  0.23800  0.02300  Biso   1.000  N
  N2       1.0000 0.93230  0.76200  0.97700  Biso   1.000  N
  C1       1.0000 0.12960  0.24910  0.92480  Biso   1.000  C
  C2       1.0000 0.87040  0.75090  0.07520  Biso   1.000  C
  C3       1.0000 0.02300  0.19860  0.84760  Biso   1.000  C
  C4       1.0000 0.97700  0.80140  0.15240  Biso   1.000  C
  H1       1.0000 0.06720  0.20790  0.77970  Biso   1.000  H
  H2       1.0000 0.93280  0.79210  0.22030  Biso   1.000  H
  N3       1.0000 0.86040  0.13740  0.86590  Biso   1.000  N
  N4       1.0000 0.13960  0.86260  0.13410  Biso   1.000  N
  C5       1.0000 0.80200  0.12720  0.96340  Biso   1.000  C
  C6       1.0000 0.19800  0.87280  0.03660  Biso   1.000  C
  H3       1.0000 0.68870  0.08570  0.97960  Biso   1.000  H
  H4       1.0000 0.31130  0.91430  0.02040  Biso   1.000  H
  C7       1.0000 0.90530  0.17680  0.04090  Biso   1.000  C
  C8       1.0000 0.09470  0.82320  0.95910  Biso   1.000  C
  H5       1.0000 0.85990  0.16720  0.10860  Biso   1.000  H
  H6       1.0000 0.14010  0.83280  0.89140  Biso   1.000  H
  C9       1.0000 0.31310  0.31880  0.89990  Biso   1.000  C
  C10      1.0000 0.68690  0.68120  0.10010  Biso   1.000  C
  H7       1.0000 0.35580  0.29210  0.83180  Biso   1.000  H
  H8       1.0000 0.64420  0.70790  0.16820  Biso   1.000  H
  H9       1.0000 0.40040  0.28220  0.94980  Biso   1.000  H
  H10      1.0000 0.59960  0.71780  0.05020  Biso   1.000  H
  C11      1.0000 0.29760  0.48520  0.90280  Biso   1.000  C
  C12      1.0000 0.70240  0.51480  0.09720  Biso   1.000  C
  H11      1.0000 0.41430  0.52920  0.88720  Biso   1.000  H
  H12      1.0000 0.58570  0.47080  0.11280  Biso   1.000  H
  H13      1.0000 0.21240  0.52100  0.85260  Biso   1.000  H
  H14      1.0000 0.78760  0.47900  0.14740  Biso   1.000  H
  H15      1.0000 0.25610  0.51110  0.97040  Biso   1.000  H
  H16      1.0000 0.74390  0.48890  0.02960  Biso   1.000  H
  N5       1.0000 0.39710  0.22200  0.46130  Biso   1.000  N
  N6       1.0000 0.60290  0.77800  0.53870  Biso   1.000  N
  C13      1.0000 0.56790  0.26720  0.47450  Biso   1.000  C
  C14      1.0000 0.43210  0.73280  0.52550  Biso   1.000  C
  C15      1.0000 0.65750  0.22360  0.56360  Biso   1.000  C
  C16      1.0000 0.34250  0.77640  0.43640  Biso   1.000  C
  H17      1.0000 0.77510  0.25770  0.57150  Biso   1.000  H
  H18      1.0000 0.22490  0.74230  0.42850  Biso   1.000  H
  N7       1.0000 0.58350  0.13570  0.63820  Biso   1.000  N
  N8       1.0000 0.41650  0.86430  0.36180  Biso   1.000  N
  C17      1.0000 0.41280  0.09300  0.62420  Biso   1.000  C
  C18      1.0000 0.58720  0.90700  0.37580  Biso   1.000  C
  H19      1.0000 0.35430  0.03270  0.67510  Biso   1.000  H
  H20      1.0000 0.64570  0.96730  0.32490  Biso   1.000  H
  C19      1.0000 0.32170  0.13580  0.53670  Biso   1.000  C
  C20      1.0000 0.67830  0.86420  0.46330  Biso   1.000  C
  H21      1.0000 0.20310  0.10340  0.52990  Biso   1.000  H
  H22      1.0000 0.79690  0.89660  0.47010  Biso   1.000  H
  C21      1.0000 0.65340  0.36820  0.39090  Biso   1.000  C
  C22      1.0000 0.34660  0.63180  0.60910  Biso   1.000  C
  H23      1.0000 0.55930  0.43220  0.36230  Biso   1.000  H
  H24      1.0000 0.44070  0.56780  0.63770  Biso   1.000  H
  H25      1.0000 0.69850  0.30760  0.33600  Biso   1.000  H
  H26      1.0000 0.30150  0.69240  0.66400  Biso   1.000  H
  C23      1.0000 0.80090  0.46090  0.42140  Biso   1.000  C
  C24      1.0000 0.19910  0.53910  0.57860  Biso   1.000  C
  H27      1.0000 0.84630  0.51940  0.36240  Biso   1.000  H
  H28      1.0000 0.15370  0.48060  0.63760  Biso   1.000  H
  H29      1.0000 0.75740  0.52530  0.47340  Biso   1.000  H
  H30      1.0000 0.24260  0.47470  0.52660  Biso   1.000  H
  H31      1.0000 0.89670  0.39940  0.44860  Biso   1.000  H
  H32      1.0000 0.10330  0.60060  0.55140  Biso   1.000  H
