data_image0
_cell_length_a       3.8103
_cell_length_b       8.277
_cell_length_c       28.666
_cell_angle_alpha    90
_cell_angle_beta     91.008
_cell_angle_gamma    90

_symmetry_space_group_name_H-M    "P 1"
_symmetry_int_tables_number       1

loop_
  _symmetry_equiv_pos_as_xyz
  'x, y, z'

loop_
  _atom_site_label
  _atom_site_occupancy
  _atom_site_fract_x
  _atom_site_fract_y
  _atom_site_fract_z
  _atom_site_thermal_displace_type
  _atom_site_B_iso_or_equiv
  _atom_site_type_symbol
  Cu1      1.0000 0.40950  0.59482  0.12670  Biso   1.000  Cu
  Cu2      1.0000 0.40950  0.90518  0.62670  Biso   1.000  Cu
  Cu3      1.0000 0.59050  0.40518  0.87330  Biso   1.000  Cu
  Cu4      1.0000 0.59050  0.09482  0.37330  Biso   1.000  Cu
  Cu5      1.0000 0.94480  0.82530  0.07714  Biso   1.000  Cu
  Cu6      1.0000 0.94480  0.67470  0.57714  Biso   1.000  Cu
  Cu7      1.0000 0.05520  0.17470  0.92286  Biso   1.000  Cu
  Cu8      1.0000 0.05520  0.32530  0.42286  Biso   1.000  Cu
  Cl1      1.0000 0.89830  0.71160  0.16003  Biso   1.000  Cl
  Cl2      1.0000 0.89830  0.78840  0.66003  Biso   1.000  Cl
  Cl3      1.0000 0.10170  0.28840  0.83997  Biso   1.000  Cl
  Cl4      1.0000 0.10170  0.21160  0.33997  Biso   1.000  Cl
  Cl5      1.0000 0.46340  0.71150  0.04329  Biso   1.000  Cl
  Cl6      1.0000 0.46340  0.78850  0.54329  Biso   1.000  Cl
  Cl7      1.0000 0.53660  0.28850  0.95671  Biso   1.000  Cl
  Cl8      1.0000 0.53660  0.21150  0.45671  Biso   1.000  Cl
  N1       1.0000 0.29050  0.36490  0.11230  Biso   1.000  N
  N2       1.0000 0.29050  0.13510  0.61230  Biso   1.000  N
  N3       1.0000 0.70950  0.63510  0.88770  Biso   1.000  N
  N4       1.0000 0.70950  0.86490  0.38770  Biso   1.000  N
  C1       1.0000 0.32570  0.24540  0.14440  Biso   1.000  C
  C2       1.0000 0.32570  0.25460  0.64440  Biso   1.000  C
  C3       1.0000 0.67430  0.75460  0.85560  Biso   1.000  C
  C4       1.0000 0.67430  0.74540  0.35560  Biso   1.000  C
  C5       1.0000 0.22100  0.09040  0.13270  Biso   1.000  C
  C6       1.0000 0.22100  0.40960  0.63270  Biso   1.000  C
  C7       1.0000 0.77900  0.90960  0.86730  Biso   1.000  C
  C8       1.0000 0.77900  0.59040  0.36730  Biso   1.000  C
  H1       1.0000 0.25630  0.00860  0.15450  Biso   1.000  H
  H2       1.0000 0.25630  0.49140  0.65450  Biso   1.000  H
  H3       1.0000 0.74370  0.99140  0.84550  Biso   1.000  H
  H4       1.0000 0.74370  0.50860  0.34550  Biso   1.000  H
  N5       1.0000 0.07120  0.05220  0.09148  Biso   1.000  N
  N6       1.0000 0.07120  0.44780  0.59148  Biso   1.000  N
  N7       1.0000 0.92880  0.94780  0.90852  Biso   1.000  N
  N8       1.0000 0.92880  0.55220  0.40852  Biso   1.000  N
  C9       1.0000 0.04120  0.17300  0.06020  Biso   1.000  C
  C10      1.0000 0.04120  0.32700  0.56020  Biso   1.000  C
  C11      1.0000 0.95880  0.82700  0.93980  Biso   1.000  C
  C12      1.0000 0.95880  0.67300  0.43980  Biso   1.000  C
  H5       1.0000 0.94400  0.15180  0.03090  Biso   1.000  H
  H6       1.0000 0.94400  0.34820  0.53090  Biso   1.000  H
  H7       1.0000 0.05600  0.84820  0.96910  Biso   1.000  H
  H8       1.0000 0.05600  0.65180  0.46910  Biso   1.000  H
  C13      1.0000 0.15100  0.32610  0.07080  Biso   1.000  C
  C14      1.0000 0.15100  0.17390  0.57080  Biso   1.000  C
  C15      1.0000 0.84900  0.67390  0.92920  Biso   1.000  C
  C16      1.0000 0.84900  0.82610  0.42920  Biso   1.000  C
  H9       1.0000 0.12750  0.40620  0.04820  Biso   1.000  H
  H10      1.0000 0.12750  0.09380  0.54820  Biso   1.000  H
  H11      1.0000 0.87250  0.59380  0.95180  Biso   1.000  H
  H12      1.0000 0.87250  0.90620  0.45180  Biso   1.000  H
  C17      1.0000 0.47230  0.28970  0.19100  Biso   1.000  C
  C18      1.0000 0.47230  0.21030  0.69100  Biso   1.000  C
  C19      1.0000 0.52770  0.71030  0.80900  Biso   1.000  C
  C20      1.0000 0.52770  0.78970  0.30900  Biso   1.000  C
  H13      1.0000 0.30900  0.36280  0.20570  Biso   1.000  H
  H14      1.0000 0.30900  0.13720  0.70570  Biso   1.000  H
  H15      1.0000 0.69100  0.63720  0.79430  Biso   1.000  H
  H16      1.0000 0.69100  0.86280  0.29430  Biso   1.000  H
  H17      1.0000 0.68890  0.34880  0.18650  Biso   1.000  H
  H18      1.0000 0.68890  0.15120  0.68650  Biso   1.000  H
  H19      1.0000 0.31110  0.65120  0.81350  Biso   1.000  H
  H20      1.0000 0.31110  0.84880  0.31350  Biso   1.000  H
  C21      1.0000 0.54800  0.15220  0.22420  Biso   1.000  C
  C22      1.0000 0.54800  0.34780  0.72420  Biso   1.000  C
  C23      1.0000 0.45200  0.84780  0.77580  Biso   1.000  C
  C24      1.0000 0.45200  0.65220  0.27580  Biso   1.000  C
  H21      1.0000 0.64770  0.19410  0.25270  Biso   1.000  H
  H22      1.0000 0.64770  0.30590  0.75270  Biso   1.000  H
  H23      1.0000 0.35230  0.80590  0.74730  Biso   1.000  H
  H24      1.0000 0.35230  0.69410  0.24730  Biso   1.000  H
  H25      1.0000 0.71000  0.07860  0.21030  Biso   1.000  H
  H26      1.0000 0.71000  0.42140  0.71030  Biso   1.000  H
  H27      1.0000 0.29000  0.92140  0.78970  Biso   1.000  H
  H28      1.0000 0.29000  0.57860  0.28970  Biso   1.000  H
  H29      1.0000 0.33320  0.09650  0.23080  Biso   1.000  H
  H30      1.0000 0.33320  0.40350  0.73080  Biso   1.000  H
  H31      1.0000 0.66680  0.90350  0.76920  Biso   1.000  H
  H32      1.0000 0.66680  0.59650  0.26920  Biso   1.000  H
