data_image0
_cell_length_a       19.9156
_cell_length_b       19.9156
_cell_length_c       3.2237
_cell_angle_alpha    90
_cell_angle_beta     90
_cell_angle_gamma    90

_symmetry_space_group_name_H-M    "P 1"
_symmetry_int_tables_number       1

loop_
  _symmetry_equiv_pos_as_xyz
  'x, y, z'

loop_
  _atom_site_label
  _atom_site_occupancy
  _atom_site_fract_x
  _atom_site_fract_y
  _atom_site_fract_z
  _atom_site_thermal_displace_type
  _atom_site_B_iso_or_equiv
  _atom_site_type_symbol
  Cu1      1.0000 0.25000  0.13330  0.87500  Biso   1.000  Cu
  Cu2      1.0000 0.86670  0.75000  0.12500  Biso   1.000  Cu
  Cu3      1.0000 0.75000  0.86670  0.87500  Biso   1.000  Cu
  Cu4      1.0000 0.13330  0.25000  0.12500  Biso   1.000  Cu
  Cu5      1.0000 0.25000  0.36670  0.37500  Biso   1.000  Cu
  Cu6      1.0000 0.75000  0.63330  0.37500  Biso   1.000  Cu
  Cu7      1.0000 0.36670  0.25000  0.62500  Biso   1.000  Cu
  Cu8      1.0000 0.63330  0.75000  0.62500  Biso   1.000  Cu
  N1       1.0000 0.06710  0.06710  0.00000  Biso   1.000  N
  N2       1.0000 0.93290  0.56710  0.25000  Biso   1.000  N
  N3       1.0000 0.93290  0.93290  0.00000  Biso   1.000  N
  N4       1.0000 0.06710  0.43290  0.25000  Biso   1.000  N
  N5       1.0000 0.56710  0.56710  0.50000  Biso   1.000  N
  N6       1.0000 0.43290  0.06710  0.75000  Biso   1.000  N
  N7       1.0000 0.43290  0.43290  0.50000  Biso   1.000  N
  N8       1.0000 0.56710  0.93290  0.75000  Biso   1.000  N
  C1       1.0000 0.13560  0.04980  0.89200  Biso   1.000  C
  C2       1.0000 0.95020  0.63560  0.14200  Biso   1.000  C
  C3       1.0000 0.86440  0.95020  0.89200  Biso   1.000  C
  C4       1.0000 0.04980  0.36440  0.14200  Biso   1.000  C
  C5       1.0000 0.13560  0.45020  0.35800  Biso   1.000  C
  C6       1.0000 0.86440  0.54980  0.35800  Biso   1.000  C
  C7       1.0000 0.04980  0.13560  0.10800  Biso   1.000  C
  C8       1.0000 0.95020  0.86440  0.10800  Biso   1.000  C
  C9       1.0000 0.63560  0.54980  0.39200  Biso   1.000  C
  C10      1.0000 0.45020  0.13560  0.64200  Biso   1.000  C
  C11      1.0000 0.36440  0.45020  0.39200  Biso   1.000  C
  C12      1.0000 0.54980  0.86440  0.64200  Biso   1.000  C
  C13      1.0000 0.63560  0.95020  0.85800  Biso   1.000  C
  C14      1.0000 0.36440  0.04980  0.85800  Biso   1.000  C
  C15      1.0000 0.54980  0.63560  0.60800  Biso   1.000  C
  C16      1.0000 0.45020  0.36440  0.60800  Biso   1.000  C
  H1       1.0000 0.15590  0.00990  0.80890  Biso   1.000  H
  H2       1.0000 0.99010  0.65590  0.05890  Biso   1.000  H
  H3       1.0000 0.84410  0.99010  0.80890  Biso   1.000  H
  H4       1.0000 0.00990  0.34410  0.05890  Biso   1.000  H
  H5       1.0000 0.15590  0.49010  0.44110  Biso   1.000  H
  H6       1.0000 0.84410  0.50990  0.44110  Biso   1.000  H
  H7       1.0000 0.00990  0.15590  0.19110  Biso   1.000  H
  H8       1.0000 0.99010  0.84410  0.19110  Biso   1.000  H
  H9       1.0000 0.65590  0.50990  0.30890  Biso   1.000  H
  H10      1.0000 0.49010  0.15590  0.55890  Biso   1.000  H
  H11      1.0000 0.34410  0.49010  0.30890  Biso   1.000  H
  H12      1.0000 0.50990  0.84410  0.55890  Biso   1.000  H
  H13      1.0000 0.65590  0.99010  0.94110  Biso   1.000  H
  H14      1.0000 0.34410  0.00990  0.94110  Biso   1.000  H
  H15      1.0000 0.50990  0.65590  0.69110  Biso   1.000  H
  H16      1.0000 0.49010  0.34410  0.69110  Biso   1.000  H
  Cu9      1.0000 0.00000  0.00000  0.00000  Biso   1.000  Cu
  Cu10     1.0000 0.00000  0.50000  0.25000  Biso   1.000  Cu
  Cu11     1.0000 0.50000  0.50000  0.50000  Biso   1.000  Cu
  Cu12     1.0000 0.50000  0.00000  0.75000  Biso   1.000  Cu
  N9       1.0000 0.16140  0.11810  0.95900  Biso   1.000  N
  N10      1.0000 0.88190  0.66140  0.20900  Biso   1.000  N
  N11      1.0000 0.83860  0.88190  0.95900  Biso   1.000  N
  N12      1.0000 0.11810  0.33860  0.20900  Biso   1.000  N
  N13      1.0000 0.16140  0.38190  0.29100  Biso   1.000  N
  N14      1.0000 0.83860  0.61810  0.29100  Biso   1.000  N
  N15      1.0000 0.11810  0.16140  0.04100  Biso   1.000  N
  N16      1.0000 0.88190  0.83860  0.04100  Biso   1.000  N
  N17      1.0000 0.66140  0.61810  0.45900  Biso   1.000  N
  N18      1.0000 0.38190  0.16140  0.70900  Biso   1.000  N
  N19      1.0000 0.33860  0.38190  0.45900  Biso   1.000  N
  N20      1.0000 0.61810  0.83860  0.70900  Biso   1.000  N
  N21      1.0000 0.66140  0.88190  0.79100  Biso   1.000  N
  N22      1.0000 0.33860  0.11810  0.79100  Biso   1.000  N
  N23      1.0000 0.61810  0.66140  0.54100  Biso   1.000  N
  N24      1.0000 0.38190  0.33860  0.54100  Biso   1.000  N
