data_image0
_cell_length_a       7.438
_cell_length_b       10.841
_cell_length_c       10.05
_cell_angle_alpha    90
_cell_angle_beta     98.527
_cell_angle_gamma    90

_symmetry_space_group_name_H-M    "P 1"
_symmetry_int_tables_number       1

loop_
  _symmetry_equiv_pos_as_xyz
  'x, y, z'

loop_
  _atom_site_label
  _atom_site_occupancy
  _atom_site_fract_x
  _atom_site_fract_y
  _atom_site_fract_z
  _atom_site_thermal_displace_type
  _atom_site_B_iso_or_equiv
  _atom_site_type_symbol
  Cu1      1.0000 0.68357  0.07425  0.07739  Biso   1.000  Cu
  Cu2      1.0000 0.31643  0.57425  0.92261  Biso   1.000  Cu
  Cu3      1.0000 0.57153  0.80602  0.01871  Biso   1.000  Cu
  Cu4      1.0000 0.42847  0.30602  0.98129  Biso   1.000  Cu
  Cl1      1.0000 0.67392  0.89357  0.20211  Biso   1.000  Cl
  Cl2      1.0000 0.32608  0.39357  0.79789  Biso   1.000  Cl
  Cl3      1.0000 0.54659  0.23348  0.16925  Biso   1.000  Cl
  Cl4      1.0000 0.45341  0.73348  0.83075  Biso   1.000  Cl
  C1       1.0000 0.85190  0.07310  0.84070  Biso   1.000  C
  C2       1.0000 0.14810  0.57310  0.15930  Biso   1.000  C
  C3       1.0000 0.65760  0.06730  0.77970  Biso   1.000  C
  C4       1.0000 0.34240  0.56730  0.22030  Biso   1.000  C
  C5       1.0000 0.65690  0.06440  0.62870  Biso   1.000  C
  C6       1.0000 0.34310  0.56440  0.37130  Biso   1.000  C
  C7       1.0000 0.47380  0.09570  0.54530  Biso   1.000  C
  C8       1.0000 0.52620  0.59570  0.45470  Biso   1.000  C
  H1       1.0000 0.48470  0.09270  0.45140  Biso   1.000  H
  H2       1.0000 0.51530  0.59270  0.54860  Biso   1.000  H
  H3       1.0000 0.43740  0.17700  0.56810  Biso   1.000  H
  H4       1.0000 0.56260  0.67700  0.43190  Biso   1.000  H
  H5       1.0000 0.38420  0.03700  0.56420  Biso   1.000  H
  H6       1.0000 0.61580  0.53700  0.43580  Biso   1.000  H
  C9       1.0000 0.73930  0.93430  0.60670  Biso   1.000  C
  C10      1.0000 0.26070  0.43430  0.39330  Biso   1.000  C
  H7       1.0000 0.68080  0.87120  0.65370  Biso   1.000  H
  H8       1.0000 0.31920  0.37120  0.34630  Biso   1.000  H
  H9       1.0000 0.72400  0.91380  0.51170  Biso   1.000  H
  H10      1.0000 0.27600  0.41380  0.48830  Biso   1.000  H
  C11      1.0000 0.94100  0.94470  0.66410  Biso   1.000  C
  C12      1.0000 0.05900  0.44470  0.33590  Biso   1.000  C
  H11      1.0000 0.01640  0.93500  0.59390  Biso   1.000  H
  H12      1.0000 0.98360  0.43500  0.40610  Biso   1.000  H
  H13      1.0000 0.97530  0.88290  0.73300  Biso   1.000  H
  H14      1.0000 0.02470  0.38290  0.26700  Biso   1.000  H
  C13      1.0000 0.95900  0.07490  0.72390  Biso   1.000  C
  C14      1.0000 0.04100  0.57490  0.27610  Biso   1.000  C
  H15      1.0000 0.08270  0.10790  0.74310  Biso   1.000  H
  H16      1.0000 0.91730  0.60790  0.25690  Biso   1.000  H
  C15      1.0000 0.82270  0.14960  0.62000  Biso   1.000  C
  C16      1.0000 0.17730  0.64960  0.38000  Biso   1.000  C
  C17      1.0000 0.88640  0.15270  0.48010  Biso   1.000  C
  C18      1.0000 0.11360  0.65270  0.51990  Biso   1.000  C
  H17      1.0000 0.90300  0.06990  0.45040  Biso   1.000  H
  H18      1.0000 0.09700  0.56990  0.54960  Biso   1.000  H
  H19      1.0000 0.99940  0.19670  0.48640  Biso   1.000  H
  H20      1.0000 0.00060  0.69670  0.51360  Biso   1.000  H
  H21      1.0000 0.79630  0.19350  0.41690  Biso   1.000  H
  H22      1.0000 0.20370  0.69350  0.58310  Biso   1.000  H
  C19      1.0000 0.79990  0.28170  0.66380  Biso   1.000  C
  C20      1.0000 0.20010  0.78170  0.33620  Biso   1.000  C
  H23      1.0000 0.90770  0.32770  0.65490  Biso   1.000  H
  H24      1.0000 0.09230  0.82770  0.34510  Biso   1.000  H
  H25      1.0000 0.78010  0.28290  0.75600  Biso   1.000  H
  H26      1.0000 0.21990  0.78290  0.24400  Biso   1.000  H
  H27      1.0000 0.69750  0.31810  0.60830  Biso   1.000  H
  H28      1.0000 0.30250  0.81810  0.39170  Biso   1.000  H
  N1       1.0000 0.89050  0.08240  0.96830  Biso   1.000  N
  N2       1.0000 0.10950  0.58240  0.03170  Biso   1.000  N
  N3       1.0000 0.06870  0.08750  0.02930  Biso   1.000  N
  N4       1.0000 0.93130  0.58750  0.97070  Biso   1.000  N
  C21      1.0000 0.08000  0.10610  0.17500  Biso   1.000  C
  C22      1.0000 0.92000  0.60610  0.82500  Biso   1.000  C
  H29      1.0000 0.00280  0.17360  0.19180  Biso   1.000  H
  H30      1.0000 0.99720  0.67360  0.80820  Biso   1.000  H
  H31      1.0000 0.20320  0.12440  0.21280  Biso   1.000  H
  H32      1.0000 0.79680  0.62440  0.78720  Biso   1.000  H
  H33      1.0000 0.04110  0.03250  0.21560  Biso   1.000  H
  H34      1.0000 0.95890  0.53250  0.78440  Biso   1.000  H
  C23      1.0000 0.18380  0.98860  0.99680  Biso   1.000  C
  C24      1.0000 0.81620  0.48860  0.00320  Biso   1.000  C
  H35      1.0000 0.17180  0.97960  0.90090  Biso   1.000  H
  H36      1.0000 0.82820  0.47960  0.09910  Biso   1.000  H
  H37      1.0000 0.14850  0.91320  0.03590  Biso   1.000  H
  H38      1.0000 0.85150  0.41320  0.96410  Biso   1.000  H
  H39      1.0000 0.30800  0.00710  0.03210  Biso   1.000  H
  H40      1.0000 0.69200  0.50710  0.96790  Biso   1.000  H
  O1       1.0000 0.52830  0.06530  0.84220  Biso   1.000  O
  O2       1.0000 0.47170  0.56530  0.15780  Biso   1.000  O
