data_image0
_cell_length_a       7.9928
_cell_length_b       11.2136
_cell_length_c       17.3838
_cell_angle_alpha    90
_cell_angle_beta     90
_cell_angle_gamma    90

_symmetry_space_group_name_H-M    "P 1"
_symmetry_int_tables_number       1

loop_
  _symmetry_equiv_pos_as_xyz
  'x, y, z'

loop_
  _atom_site_label
  _atom_site_occupancy
  _atom_site_fract_x
  _atom_site_fract_y
  _atom_site_fract_z
  _atom_site_thermal_displace_type
  _atom_site_B_iso_or_equiv
  _atom_site_type_symbol
  Cu1      1.0000 0.86967  0.83318  0.22334  Biso   1.000  Cu
  Cu2      1.0000 0.63033  0.16682  0.72334  Biso   1.000  Cu
  Cu3      1.0000 0.36967  0.66682  0.77666  Biso   1.000  Cu
  Cu4      1.0000 0.13033  0.33318  0.27666  Biso   1.000  Cu
  Cu5      1.0000 0.03185  0.08887  0.23441  Biso   1.000  Cu
  Cu6      1.0000 0.46815  0.91113  0.73441  Biso   1.000  Cu
  Cu7      1.0000 0.53185  0.41113  0.76559  Biso   1.000  Cu
  Cu8      1.0000 0.96815  0.58887  0.26559  Biso   1.000  Cu
  Cl1      1.0000 0.96736  0.95062  0.13950  Biso   1.000  Cl
  Cl2      1.0000 0.53264  0.04938  0.63950  Biso   1.000  Cl
  Cl3      1.0000 0.46736  0.54938  0.86050  Biso   1.000  Cl
  Cl4      1.0000 0.03264  0.45062  0.36050  Biso   1.000  Cl
  Cl5      1.0000 0.23452  0.21779  0.19314  Biso   1.000  Cl
  Cl6      1.0000 0.26548  0.78221  0.69314  Biso   1.000  Cl
  Cl7      1.0000 0.73452  0.28221  0.80686  Biso   1.000  Cl
  Cl8      1.0000 0.76548  0.71779  0.30686  Biso   1.000  Cl
  N1       1.0000 0.87281  0.10016  0.32380  Biso   1.000  N
  N2       1.0000 0.62719  0.89984  0.82380  Biso   1.000  N
  N3       1.0000 0.37281  0.39984  0.67620  Biso   1.000  N
  N4       1.0000 0.12719  0.60016  0.17620  Biso   1.000  N
  N5       1.0000 0.71737  0.15533  0.32114  Biso   1.000  N
  N6       1.0000 0.78263  0.84467  0.82114  Biso   1.000  N
  N7       1.0000 0.21737  0.34467  0.67886  Biso   1.000  N
  N8       1.0000 0.28263  0.65533  0.17886  Biso   1.000  N
  C1       1.0000 0.57650  0.07710  0.33625  Biso   1.000  C
  C2       1.0000 0.92350  0.92290  0.83625  Biso   1.000  C
  C3       1.0000 0.07650  0.42290  0.66375  Biso   1.000  C
  C4       1.0000 0.42350  0.57710  0.16375  Biso   1.000  C
  H1       1.0000 0.57720  0.01240  0.30000  Biso   1.000  H
  H2       1.0000 0.92280  0.98760  0.80000  Biso   1.000  H
  H3       1.0000 0.07720  0.48760  0.70000  Biso   1.000  H
  H4       1.0000 0.42280  0.51240  0.20000  Biso   1.000  H
  H5       1.0000 0.47410  0.12110  0.33120  Biso   1.000  H
  H6       1.0000 0.02590  0.87890  0.83120  Biso   1.000  H
  H7       1.0000 0.97410  0.37890  0.66880  Biso   1.000  H
  H8       1.0000 0.52590  0.62110  0.16880  Biso   1.000  H
  H9       1.0000 0.58500  0.04590  0.38750  Biso   1.000  H
  H10      1.0000 0.91500  0.95410  0.88750  Biso   1.000  H
  H11      1.0000 0.08500  0.45410  0.61250  Biso   1.000  H
  H12      1.0000 0.41500  0.54590  0.11250  Biso   1.000  H
  C5       1.0000 0.69830  0.22150  0.24899  Biso   1.000  C
  C6       1.0000 0.80170  0.77850  0.74899  Biso   1.000  C
  C7       1.0000 0.19830  0.27850  0.75101  Biso   1.000  C
  C8       1.0000 0.30170  0.72150  0.25101  Biso   1.000  C
  H13      1.0000 0.78350  0.28170  0.24570  Biso   1.000  H
  H14      1.0000 0.71650  0.71830  0.74570  Biso   1.000  H
  H15      1.0000 0.28350  0.21830  0.75430  Biso   1.000  H
  H16      1.0000 0.21650  0.78170  0.25430  Biso   1.000  H
  H17      1.0000 0.59010  0.25860  0.24770  Biso   1.000  H
  H18      1.0000 0.90990  0.74140  0.74770  Biso   1.000  H
  H19      1.0000 0.09010  0.24140  0.75230  Biso   1.000  H
  H20      1.0000 0.40990  0.75860  0.25230  Biso   1.000  H
  H21      1.0000 0.70890  0.16770  0.20630  Biso   1.000  H
  H22      1.0000 0.79110  0.83230  0.70630  Biso   1.000  H
  H23      1.0000 0.20890  0.33230  0.79370  Biso   1.000  H
  H24      1.0000 0.29110  0.66770  0.29370  Biso   1.000  H
  O1       1.0000 0.18037  0.98226  0.33069  Biso   1.000  O
  O2       1.0000 0.31963  0.01774  0.83069  Biso   1.000  O
  O3       1.0000 0.68037  0.51774  0.66931  Biso   1.000  O
  O4       1.0000 0.81963  0.48226  0.16931  Biso   1.000  O
  C9       1.0000 0.92060  0.04889  0.38667  Biso   1.000  C
  C10      1.0000 0.57940  0.95111  0.88667  Biso   1.000  C
  C11      1.0000 0.42060  0.45111  0.61333  Biso   1.000  C
  C12      1.0000 0.07940  0.54889  0.11333  Biso   1.000  C
  C13      1.0000 0.85890  0.03899  0.46811  Biso   1.000  C
  C14      1.0000 0.64110  0.96101  0.96811  Biso   1.000  C
  C15      1.0000 0.35890  0.46101  0.53189  Biso   1.000  C
  C16      1.0000 0.14110  0.53899  0.03189  Biso   1.000  C
  H25      1.0000 0.76860  0.09390  0.48230  Biso   1.000  H
  H26      1.0000 0.73140  0.90610  0.98230  Biso   1.000  H
  H27      1.0000 0.26860  0.40610  0.51770  Biso   1.000  H
  H28      1.0000 0.23140  0.59390  0.01770  Biso   1.000  H
  C17      1.0000 0.82220  0.90488  0.48199  Biso   1.000  C
  C18      1.0000 0.67780  0.09512  0.98199  Biso   1.000  C
  C19      1.0000 0.32220  0.59512  0.51801  Biso   1.000  C
  C20      1.0000 0.17780  0.40488  0.01801  Biso   1.000  C
  H29      1.0000 0.76850  0.89240  0.53140  Biso   1.000  H
  H30      1.0000 0.73150  0.10760  0.03140  Biso   1.000  H
  H31      1.0000 0.26850  0.60760  0.46860  Biso   1.000  H
  H32      1.0000 0.23150  0.39240  0.96860  Biso   1.000  H
  H33      1.0000 0.75160  0.87240  0.44170  Biso   1.000  H
  H34      1.0000 0.74840  0.12760  0.94170  Biso   1.000  H
  H35      1.0000 0.25160  0.62760  0.55830  Biso   1.000  H
  H36      1.0000 0.24840  0.37240  0.05830  Biso   1.000  H
  C21      1.0000 0.99880  0.84798  0.48026  Biso   1.000  C
  C22      1.0000 0.50120  0.15202  0.98026  Biso   1.000  C
  C23      1.0000 0.49880  0.65202  0.51974  Biso   1.000  C
  C24      1.0000 0.00120  0.34798  0.01974  Biso   1.000  C
  H37      1.0000 0.00830  0.79160  0.43820  Biso   1.000  H
  H38      1.0000 0.49170  0.20840  0.93820  Biso   1.000  H
  H39      1.0000 0.50830  0.70840  0.56180  Biso   1.000  H
  H40      1.0000 0.99170  0.29160  0.06180  Biso   1.000  H
  H41      1.0000 0.02220  0.80690  0.52820  Biso   1.000  H
  H42      1.0000 0.47780  0.19310  0.02820  Biso   1.000  H
  H43      1.0000 0.52220  0.69310  0.47180  Biso   1.000  H
  H44      1.0000 0.97780  0.30690  0.97180  Biso   1.000  H
  C25      1.0000 0.12080  0.95455  0.46876  Biso   1.000  C
  C26      1.0000 0.37920  0.04545  0.96876  Biso   1.000  C
  C27      1.0000 0.62080  0.54545  0.53124  Biso   1.000  C
  C28      1.0000 0.87920  0.45455  0.03124  Biso   1.000  C
  C29      1.0000 0.09050  0.99272  0.38656  Biso   1.000  C
  C30      1.0000 0.40950  0.00728  0.88656  Biso   1.000  C
  C31      1.0000 0.59050  0.50728  0.61344  Biso   1.000  C
  C32      1.0000 0.90950  0.49272  0.11344  Biso   1.000  C
  C33      1.0000 0.30160  0.92860  0.48733  Biso   1.000  C
  C34      1.0000 0.19840  0.07140  0.98733  Biso   1.000  C
  C35      1.0000 0.80160  0.57140  0.51267  Biso   1.000  C
  C36      1.0000 0.69840  0.42860  0.01267  Biso   1.000  C
  H45      1.0000 0.34490  0.87180  0.45110  Biso   1.000  H
  H46      1.0000 0.15510  0.12820  0.95110  Biso   1.000  H
  H47      1.0000 0.84490  0.62820  0.54890  Biso   1.000  H
  H48      1.0000 0.65510  0.37180  0.04890  Biso   1.000  H
  H49      1.0000 0.30950  0.89650  0.53840  Biso   1.000  H
  H50      1.0000 0.19050  0.10350  0.03840  Biso   1.000  H
  H51      1.0000 0.80950  0.60350  0.46160  Biso   1.000  H
  H52      1.0000 0.69050  0.39650  0.96160  Biso   1.000  H
  H53      1.0000 0.36530  0.00100  0.48430  Biso   1.000  H
  H54      1.0000 0.13470  0.99900  0.98430  Biso   1.000  H
  H55      1.0000 0.86530  0.49900  0.51570  Biso   1.000  H
  H56      1.0000 0.63470  0.50100  0.01570  Biso   1.000  H
  C37      1.0000 0.02840  0.05727  0.51199  Biso   1.000  C
  C38      1.0000 0.47160  0.94273  0.01199  Biso   1.000  C
  C39      1.0000 0.52840  0.44273  0.48801  Biso   1.000  C
  C40      1.0000 0.97160  0.55727  0.98801  Biso   1.000  C
  C41      1.0000 0.10560  0.17991  0.49833  Biso   1.000  C
  C42      1.0000 0.39440  0.82009  0.99833  Biso   1.000  C
  C43      1.0000 0.60560  0.32009  0.50167  Biso   1.000  C
  C44      1.0000 0.89440  0.67991  0.00167  Biso   1.000  C
  H57      1.0000 0.21120  0.18480  0.52450  Biso   1.000  H
  H58      1.0000 0.28880  0.81520  0.02450  Biso   1.000  H
  H59      1.0000 0.71120  0.31520  0.47550  Biso   1.000  H
  H60      1.0000 0.78880  0.68480  0.97550  Biso   1.000  H
  H61      1.0000 0.03180  0.24040  0.51770  Biso   1.000  H
  H62      1.0000 0.46820  0.75960  0.01770  Biso   1.000  H
  H63      1.0000 0.53180  0.25960  0.48230  Biso   1.000  H
  H64      1.0000 0.96820  0.74040  0.98230  Biso   1.000  H
  H65      1.0000 0.12240  0.19170  0.44420  Biso   1.000  H
  H66      1.0000 0.37760  0.80830  0.94420  Biso   1.000  H
  H67      1.0000 0.62240  0.30830  0.55580  Biso   1.000  H
  H68      1.0000 0.87760  0.69170  0.05580  Biso   1.000  H
  C45      1.0000 0.01360  0.03848  0.59914  Biso   1.000  C
  C46      1.0000 0.48640  0.96152  0.09914  Biso   1.000  C
  C47      1.0000 0.51360  0.46152  0.40086  Biso   1.000  C
  C48      1.0000 0.98640  0.53848  0.90086  Biso   1.000  C
  H69      1.0000 0.12250  0.04380  0.62220  Biso   1.000  H
  H70      1.0000 0.37750  0.95620  0.12220  Biso   1.000  H
  H71      1.0000 0.62250  0.45620  0.37780  Biso   1.000  H
  H72      1.0000 0.87750  0.54380  0.87780  Biso   1.000  H
  H73      1.0000 0.96680  0.96120  0.60920  Biso   1.000  H
  H74      1.0000 0.53320  0.03880  0.10920  Biso   1.000  H
  H75      1.0000 0.46680  0.53880  0.39080  Biso   1.000  H
  H76      1.0000 0.03320  0.46120  0.89080  Biso   1.000  H
  H77      1.0000 0.94220  0.09870  0.62060  Biso   1.000  H
  H78      1.0000 0.55780  0.90130  0.12060  Biso   1.000  H
  H79      1.0000 0.44220  0.40130  0.37940  Biso   1.000  H
  H80      1.0000 0.05780  0.59870  0.87940  Biso   1.000  H
