data_image0
_cell_length_a       11.3102
_cell_length_b       17.6038
_cell_length_c       8.023
_cell_angle_alpha    90
_cell_angle_beta     90
_cell_angle_gamma    90

_symmetry_space_group_name_H-M    "P 1"
_symmetry_int_tables_number       1

loop_
  _symmetry_equiv_pos_as_xyz
  'x, y, z'

loop_
  _atom_site_label
  _atom_site_occupancy
  _atom_site_fract_x
  _atom_site_fract_y
  _atom_site_fract_z
  _atom_site_thermal_displace_type
  _atom_site_B_iso_or_equiv
  _atom_site_type_symbol
  Cu1      1.0000 0.83165  0.22221  0.87477  Biso   1.000  Cu
  Cu2      1.0000 0.66835  0.77779  0.37477  Biso   1.000  Cu
  Cu3      1.0000 0.33165  0.27779  0.12523  Biso   1.000  Cu
  Cu4      1.0000 0.16835  0.72221  0.62523  Biso   1.000  Cu
  Cu5      1.0000 0.08198  0.23375  0.03569  Biso   1.000  Cu
  Cu6      1.0000 0.41802  0.76625  0.53569  Biso   1.000  Cu
  Cu7      1.0000 0.58198  0.26625  0.96431  Biso   1.000  Cu
  Cu8      1.0000 0.91802  0.73375  0.46431  Biso   1.000  Cu
  Cl1      1.0000 0.94688  0.13927  0.97310  Biso   1.000  Cl
  Cl2      1.0000 0.55312  0.86073  0.47310  Biso   1.000  Cl
  Cl3      1.0000 0.44688  0.36073  0.02690  Biso   1.000  Cl
  Cl4      1.0000 0.05312  0.63927  0.52690  Biso   1.000  Cl
  Cl5      1.0000 0.21729  0.19596  0.23020  Biso   1.000  Cl
  Cl6      1.0000 0.28271  0.80404  0.73020  Biso   1.000  Cl
  Cl7      1.0000 0.71729  0.30404  0.76980  Biso   1.000  Cl
  Cl8      1.0000 0.78271  0.69596  0.26980  Biso   1.000  Cl
  N1       1.0000 0.09460  0.32149  0.87270  Biso   1.000  N
  N2       1.0000 0.40540  0.67851  0.37270  Biso   1.000  N
  N3       1.0000 0.59460  0.17851  0.12730  Biso   1.000  N
  N4       1.0000 0.90540  0.82149  0.62730  Biso   1.000  N
  N5       1.0000 0.14820  0.31670  0.71780  Biso   1.000  N
  N6       1.0000 0.35180  0.68330  0.21780  Biso   1.000  N
  N7       1.0000 0.64820  0.18330  0.28220  Biso   1.000  N
  N8       1.0000 0.85180  0.81670  0.78220  Biso   1.000  N
  C1       1.0000 0.07860  0.33850  0.57660  Biso   1.000  C
  C2       1.0000 0.42140  0.66150  0.07660  Biso   1.000  C
  C3       1.0000 0.57860  0.16150  0.42340  Biso   1.000  C
  C4       1.0000 0.92140  0.83850  0.92340  Biso   1.000  C
  H1       1.0000 0.00740  0.30890  0.57380  Biso   1.000  H
  H2       1.0000 0.49260  0.69110  0.07380  Biso   1.000  H
  H3       1.0000 0.50740  0.19110  0.42620  Biso   1.000  H
  H4       1.0000 0.99260  0.80890  0.92620  Biso   1.000  H
  H5       1.0000 0.12300  0.32990  0.47630  Biso   1.000  H
  H6       1.0000 0.37700  0.67010  0.97630  Biso   1.000  H
  H7       1.0000 0.62300  0.17010  0.52370  Biso   1.000  H
  H8       1.0000 0.87700  0.82990  0.02370  Biso   1.000  H
  H9       1.0000 0.05880  0.39140  0.58490  Biso   1.000  H
  H10      1.0000 0.44120  0.60860  0.08490  Biso   1.000  H
  H11      1.0000 0.55880  0.10860  0.41510  Biso   1.000  H
  H12      1.0000 0.94120  0.89140  0.91510  Biso   1.000  H
  C5       1.0000 0.21290  0.24500  0.70000  Biso   1.000  C
  C6       1.0000 0.28710  0.75500  0.20000  Biso   1.000  C
  C7       1.0000 0.71290  0.25500  0.30000  Biso   1.000  C
  C8       1.0000 0.78710  0.74500  0.80000  Biso   1.000  C
  H13      1.0000 0.27610  0.24330  0.77980  Biso   1.000  H
  H14      1.0000 0.22390  0.75670  0.27980  Biso   1.000  H
  H15      1.0000 0.77610  0.25670  0.22020  Biso   1.000  H
  H16      1.0000 0.72390  0.74330  0.72020  Biso   1.000  H
  H17      1.0000 0.24490  0.24150  0.58950  Biso   1.000  H
  H18      1.0000 0.25510  0.75850  0.08950  Biso   1.000  H
  H19      1.0000 0.74490  0.25850  0.41050  Biso   1.000  H
  H20      1.0000 0.75510  0.74150  0.91050  Biso   1.000  H
  H21      1.0000 0.16000  0.20320  0.71920  Biso   1.000  H
  H22      1.0000 0.34000  0.79680  0.21920  Biso   1.000  H
  H23      1.0000 0.66000  0.29680  0.28080  Biso   1.000  H
  H24      1.0000 0.84000  0.70320  0.78080  Biso   1.000  H
  O1       1.0000 0.97830  0.33057  0.17900  Biso   1.000  O
  O2       1.0000 0.52170  0.66943  0.67900  Biso   1.000  O
  O3       1.0000 0.47830  0.16943  0.82100  Biso   1.000  O
  O4       1.0000 0.02170  0.83057  0.32100  Biso   1.000  O
  C9       1.0000 0.04490  0.38420  0.92020  Biso   1.000  C
  C10      1.0000 0.45510  0.61580  0.42020  Biso   1.000  C
  C11      1.0000 0.54490  0.11580  0.07980  Biso   1.000  C
  C12      1.0000 0.95510  0.88420  0.57980  Biso   1.000  C
  C13      1.0000 0.03660  0.46490  0.85820  Biso   1.000  C
  C14      1.0000 0.46340  0.53510  0.35820  Biso   1.000  C
  C15      1.0000 0.53660  0.03510  0.14180  Biso   1.000  C
  C16      1.0000 0.96340  0.96490  0.64180  Biso   1.000  C
  H25      1.0000 0.09130  0.47830  0.76820  Biso   1.000  H
  H26      1.0000 0.40870  0.52170  0.26820  Biso   1.000  H
  H27      1.0000 0.59130  0.02170  0.23180  Biso   1.000  H
  H28      1.0000 0.90870  0.97830  0.73180  Biso   1.000  H
  C17      1.0000 0.90410  0.47960  0.82140  Biso   1.000  C
  C18      1.0000 0.59590  0.52040  0.32140  Biso   1.000  C
  C19      1.0000 0.40410  0.02040  0.17860  Biso   1.000  C
  C20      1.0000 0.09590  0.97960  0.67860  Biso   1.000  C
  H29      1.0000 0.89260  0.52840  0.76770  Biso   1.000  H
  H30      1.0000 0.60740  0.47160  0.26770  Biso   1.000  H
  H31      1.0000 0.39260  0.97160  0.23230  Biso   1.000  H
  H32      1.0000 0.10740  0.02840  0.73230  Biso   1.000  H
  H33      1.0000 0.87110  0.44000  0.75140  Biso   1.000  H
  H34      1.0000 0.62890  0.56000  0.25140  Biso   1.000  H
  H35      1.0000 0.37110  0.06000  0.24860  Biso   1.000  H
  H36      1.0000 0.12890  0.94000  0.74860  Biso   1.000  H
  C21      1.0000 0.84860  0.47850  0.99590  Biso   1.000  C
  C22      1.0000 0.65140  0.52150  0.49590  Biso   1.000  C
  C23      1.0000 0.34860  0.02150  0.00410  Biso   1.000  C
  C24      1.0000 0.15140  0.97850  0.50410  Biso   1.000  C
  H37      1.0000 0.79160  0.43760  0.00540  Biso   1.000  H
  H38      1.0000 0.70840  0.56240  0.50540  Biso   1.000  H
  H39      1.0000 0.29160  0.06240  0.99460  Biso   1.000  H
  H40      1.0000 0.20840  0.93760  0.49460  Biso   1.000  H
  H41      1.0000 0.80890  0.52630  0.01900  Biso   1.000  H
  H42      1.0000 0.69110  0.47370  0.51900  Biso   1.000  H
  H43      1.0000 0.30890  0.97370  0.98100  Biso   1.000  H
  H44      1.0000 0.19110  0.02630  0.48100  Biso   1.000  H
  C25      1.0000 0.95320  0.46620  0.11820  Biso   1.000  C
  C26      1.0000 0.54680  0.53380  0.61820  Biso   1.000  C
  C27      1.0000 0.45320  0.03380  0.88180  Biso   1.000  C
  C28      1.0000 0.04680  0.96620  0.38180  Biso   1.000  C
  C29      1.0000 0.98940  0.38510  0.08860  Biso   1.000  C
  C30      1.0000 0.51060  0.61490  0.58860  Biso   1.000  C
  C31      1.0000 0.48940  0.11490  0.91140  Biso   1.000  C
  C32      1.0000 0.01060  0.88510  0.41140  Biso   1.000  C
  C33      1.0000 0.92660  0.48540  0.29740  Biso   1.000  C
  C34      1.0000 0.57340  0.51460  0.79740  Biso   1.000  C
  C35      1.0000 0.42660  0.01460  0.70260  Biso   1.000  C
  C36      1.0000 0.07340  0.98540  0.20260  Biso   1.000  C
  H45      1.0000 0.86920  0.45040  0.34040  Biso   1.000  H
  H46      1.0000 0.63080  0.54960  0.84040  Biso   1.000  H
  H47      1.0000 0.36920  0.04960  0.65960  Biso   1.000  H
  H48      1.0000 0.13080  0.95040  0.15960  Biso   1.000  H
  H49      1.0000 0.89580  0.53620  0.30390  Biso   1.000  H
  H50      1.0000 0.60420  0.46380  0.80390  Biso   1.000  H
  H51      1.0000 0.39580  0.96380  0.69610  Biso   1.000  H
  H52      1.0000 0.10420  0.03620  0.19610  Biso   1.000  H
  H53      1.0000 0.99780  0.48200  0.36200  Biso   1.000  H
  H54      1.0000 0.50220  0.51800  0.86200  Biso   1.000  H
  H55      1.0000 0.49780  0.01800  0.63800  Biso   1.000  H
  H56      1.0000 0.00220  0.98200  0.13800  Biso   1.000  H
  C37      1.0000 0.05620  0.50810  0.02750  Biso   1.000  C
  C38      1.0000 0.44380  0.49190  0.52750  Biso   1.000  C
  C39      1.0000 0.55620  0.99190  0.97250  Biso   1.000  C
  C40      1.0000 0.94380  0.00810  0.47250  Biso   1.000  C
  C41      1.0000 0.17700  0.49300  0.10460  Biso   1.000  C
  C42      1.0000 0.32300  0.50700  0.60460  Biso   1.000  C
  C43      1.0000 0.67700  0.00700  0.89540  Biso   1.000  C
  C44      1.0000 0.82300  0.99300  0.39540  Biso   1.000  C
  H57      1.0000 0.18350  0.52010  0.20800  Biso   1.000  H
  H58      1.0000 0.31650  0.47990  0.70800  Biso   1.000  H
  H59      1.0000 0.68350  0.97990  0.79200  Biso   1.000  H
  H60      1.0000 0.81650  0.02010  0.29200  Biso   1.000  H
  H61      1.0000 0.23770  0.50990  0.02960  Biso   1.000  H
  H62      1.0000 0.26230  0.49010  0.52960  Biso   1.000  H
  H63      1.0000 0.73770  0.99010  0.97040  Biso   1.000  H
  H64      1.0000 0.76230  0.00990  0.47040  Biso   1.000  H
  H65      1.0000 0.18600  0.43960  0.12470  Biso   1.000  H
  H66      1.0000 0.31400  0.56040  0.62470  Biso   1.000  H
  H67      1.0000 0.68600  0.06040  0.87530  Biso   1.000  H
  H68      1.0000 0.81400  0.93960  0.37530  Biso   1.000  H
  C45      1.0000 0.03750  0.59430  0.01160  Biso   1.000  C
  C46      1.0000 0.46250  0.40570  0.51160  Biso   1.000  C
  C47      1.0000 0.53750  0.90570  0.98840  Biso   1.000  C
  C48      1.0000 0.96250  0.09430  0.48840  Biso   1.000  C
  H69      1.0000 0.04090  0.61720  0.12020  Biso   1.000  H
  H70      1.0000 0.45910  0.38280  0.62020  Biso   1.000  H
  H71      1.0000 0.54090  0.88280  0.87980  Biso   1.000  H
  H72      1.0000 0.95910  0.11720  0.37980  Biso   1.000  H
  H73      1.0000 0.96170  0.60410  0.96250  Biso   1.000  H
  H74      1.0000 0.53830  0.39590  0.46250  Biso   1.000  H
  H75      1.0000 0.46170  0.89590  0.03750  Biso   1.000  H
  H76      1.0000 0.03830  0.10410  0.53750  Biso   1.000  H
  H77      1.0000 0.09840  0.61550  0.94240  Biso   1.000  H
  H78      1.0000 0.40160  0.38450  0.44240  Biso   1.000  H
  H79      1.0000 0.59840  0.88450  0.05760  Biso   1.000  H
  H80      1.0000 0.90160  0.11550  0.55760  Biso   1.000  H
