data_image0
_cell_length_a       12.893
_cell_length_b       11.621
_cell_length_c       19.044
_cell_angle_alpha    90
_cell_angle_beta     90
_cell_angle_gamma    90

_symmetry_space_group_name_H-M    "P 1"
_symmetry_int_tables_number       1

loop_
  _symmetry_equiv_pos_as_xyz
  'x, y, z'

loop_
  _atom_site_label
  _atom_site_occupancy
  _atom_site_fract_x
  _atom_site_fract_y
  _atom_site_fract_z
  _atom_site_thermal_displace_type
  _atom_site_B_iso_or_equiv
  _atom_site_type_symbol
  Cu1      1.0000 0.21197  0.23077  0.48972  Biso   1.000  Cu
  Cu2      1.0000 0.71197  0.23077  0.01028  Biso   1.000  Cu
  Cu3      1.0000 0.28803  0.73077  0.48972  Biso   1.000  Cu
  Cu4      1.0000 0.21197  0.26923  0.98972  Biso   1.000  Cu
  Cu5      1.0000 0.78803  0.76923  0.51028  Biso   1.000  Cu
  Cu6      1.0000 0.28803  0.76923  0.98972  Biso   1.000  Cu
  Cu7      1.0000 0.71197  0.26923  0.51028  Biso   1.000  Cu
  Cu8      1.0000 0.78803  0.73077  0.01028  Biso   1.000  Cu
  S1       1.0000 0.36994  0.14247  0.47746  Biso   1.000  S
  S2       1.0000 0.86994  0.14247  0.02254  Biso   1.000  S
  S3       1.0000 0.13006  0.64247  0.47746  Biso   1.000  S
  S4       1.0000 0.36994  0.35753  0.97746  Biso   1.000  S
  S5       1.0000 0.63006  0.85753  0.52254  Biso   1.000  S
  S6       1.0000 0.13006  0.85753  0.97746  Biso   1.000  S
  S7       1.0000 0.86994  0.35753  0.52254  Biso   1.000  S
  S8       1.0000 0.63006  0.64247  0.02254  Biso   1.000  S
  S9       1.0000 0.25188  0.92061  0.45791  Biso   1.000  S
  S10      1.0000 0.75188  0.92061  0.04209  Biso   1.000  S
  S11      1.0000 0.24812  0.42061  0.45791  Biso   1.000  S
  S12      1.0000 0.25188  0.57939  0.95791  Biso   1.000  S
  S13      1.0000 0.74812  0.07939  0.54209  Biso   1.000  S
  S14      1.0000 0.24812  0.07939  0.95791  Biso   1.000  S
  S15      1.0000 0.75188  0.57939  0.54209  Biso   1.000  S
  S16      1.0000 0.74812  0.42061  0.04209  Biso   1.000  S
  F1       1.0000 0.29671  0.02435  0.68859  Biso   1.000  F
  F2       1.0000 0.79671  0.02435  0.81141  Biso   1.000  F
  F3       1.0000 0.20329  0.52435  0.68859  Biso   1.000  F
  F4       1.0000 0.29671  0.47565  0.18859  Biso   1.000  F
  F5       1.0000 0.70329  0.97565  0.31141  Biso   1.000  F
  F6       1.0000 0.20329  0.97565  0.18859  Biso   1.000  F
  F7       1.0000 0.79671  0.47565  0.31141  Biso   1.000  F
  F8       1.0000 0.70329  0.52435  0.81141  Biso   1.000  F
  F9       1.0000 0.43955  0.11275  0.64637  Biso   1.000  F
  F10      1.0000 0.93955  0.11275  0.85363  Biso   1.000  F
  F11      1.0000 0.06045  0.61275  0.64637  Biso   1.000  F
  F12      1.0000 0.43955  0.38725  0.14637  Biso   1.000  F
  F13      1.0000 0.56045  0.88725  0.35363  Biso   1.000  F
  F14      1.0000 0.06045  0.88725  0.14637  Biso   1.000  F
  F15      1.0000 0.93955  0.38725  0.35363  Biso   1.000  F
  F16      1.0000 0.56045  0.61275  0.85363  Biso   1.000  F
  F17      1.0000 0.35808  0.18558  0.74139  Biso   1.000  F
  F18      1.0000 0.85808  0.18558  0.75861  Biso   1.000  F
  F19      1.0000 0.14192  0.68558  0.74139  Biso   1.000  F
  F20      1.0000 0.35808  0.31442  0.24139  Biso   1.000  F
  F21      1.0000 0.64192  0.81442  0.25861  Biso   1.000  F
  F22      1.0000 0.14192  0.81442  0.24139  Biso   1.000  F
  F23      1.0000 0.85808  0.31442  0.25861  Biso   1.000  F
  F24      1.0000 0.64192  0.68558  0.75861  Biso   1.000  F
  F25      1.0000 0.44738  0.01914  0.74974  Biso   1.000  F
  F26      1.0000 0.94738  0.01914  0.75026  Biso   1.000  F
  F27      1.0000 0.05262  0.51914  0.74974  Biso   1.000  F
  F28      1.0000 0.44738  0.48086  0.24974  Biso   1.000  F
  F29      1.0000 0.55262  0.98086  0.25026  Biso   1.000  F
  F30      1.0000 0.05262  0.98086  0.24974  Biso   1.000  F
  F31      1.0000 0.94738  0.48086  0.25026  Biso   1.000  F
  F32      1.0000 0.55262  0.51914  0.75026  Biso   1.000  F
  N1       1.0000 0.08858  0.17541  0.43624  Biso   1.000  N
  N2       1.0000 0.58858  0.17541  0.06376  Biso   1.000  N
  N3       1.0000 0.41142  0.67541  0.43624  Biso   1.000  N
  N4       1.0000 0.08858  0.32459  0.93624  Biso   1.000  N
  N5       1.0000 0.91142  0.82459  0.56376  Biso   1.000  N
  N6       1.0000 0.41142  0.82459  0.93624  Biso   1.000  N
  N7       1.0000 0.58858  0.32459  0.56376  Biso   1.000  N
  N8       1.0000 0.91142  0.67541  0.06376  Biso   1.000  N
  N9       1.0000 0.16832  0.23498  0.58988  Biso   1.000  N
  N10      1.0000 0.66832  0.23498  0.91012  Biso   1.000  N
  N11      1.0000 0.33168  0.73498  0.58988  Biso   1.000  N
  N12      1.0000 0.16832  0.26502  0.08988  Biso   1.000  N
  N13      1.0000 0.83168  0.76502  0.41012  Biso   1.000  N
  N14      1.0000 0.33168  0.76502  0.08988  Biso   1.000  N
  N15      1.0000 0.66832  0.26502  0.41012  Biso   1.000  N
  N16      1.0000 0.83168  0.73498  0.91012  Biso   1.000  N
  C1       1.0000 0.35577  0.99251  0.50263  Biso   1.000  C
  C2       1.0000 0.85577  0.99251  0.99737  Biso   1.000  C
  C3       1.0000 0.14423  0.49251  0.50263  Biso   1.000  C
  C4       1.0000 0.35577  0.50749  0.00263  Biso   1.000  C
  C5       1.0000 0.64423  0.00749  0.49737  Biso   1.000  C
  C6       1.0000 0.14423  0.00749  0.00263  Biso   1.000  C
  C7       1.0000 0.85577  0.50749  0.49737  Biso   1.000  C
  C8       1.0000 0.64423  0.49251  0.99737  Biso   1.000  C
  H1       1.0000 0.42150  0.95160  0.49260  Biso   1.000  H
  H2       1.0000 0.92150  0.95160  0.00740  Biso   1.000  H
  H3       1.0000 0.07850  0.45160  0.49260  Biso   1.000  H
  H4       1.0000 0.42150  0.54840  0.99260  Biso   1.000  H
  H5       1.0000 0.57850  0.04840  0.50740  Biso   1.000  H
  H6       1.0000 0.07850  0.04840  0.99260  Biso   1.000  H
  H7       1.0000 0.92150  0.54840  0.50740  Biso   1.000  H
  H8       1.0000 0.57850  0.45160  0.00740  Biso   1.000  H
  H9       1.0000 0.34330  0.98830  0.55390  Biso   1.000  H
  H10      1.0000 0.84330  0.98830  0.94610  Biso   1.000  H
  H11      1.0000 0.15670  0.48830  0.55390  Biso   1.000  H
  H12      1.0000 0.34330  0.51170  0.05390  Biso   1.000  H
  H13      1.0000 0.65670  0.01170  0.44610  Biso   1.000  H
  H14      1.0000 0.15670  0.01170  0.05390  Biso   1.000  H
  H15      1.0000 0.84330  0.51170  0.44610  Biso   1.000  H
  H16      1.0000 0.65670  0.48830  0.94610  Biso   1.000  H
  C9       1.0000 0.29827  0.93510  0.36817  Biso   1.000  C
  C10      1.0000 0.79827  0.93510  0.13183  Biso   1.000  C
  C11      1.0000 0.20173  0.43510  0.36817  Biso   1.000  C
  C12      1.0000 0.29827  0.56490  0.86817  Biso   1.000  C
  C13      1.0000 0.70173  0.06490  0.63183  Biso   1.000  C
  C14      1.0000 0.20173  0.06490  0.86817  Biso   1.000  C
  C15      1.0000 0.79827  0.56490  0.63183  Biso   1.000  C
  C16      1.0000 0.70173  0.43510  0.13183  Biso   1.000  C
  H17      1.0000 0.36640  0.89640  0.36410  Biso   1.000  H
  H18      1.0000 0.86640  0.89640  0.13590  Biso   1.000  H
  H19      1.0000 0.13360  0.39640  0.36410  Biso   1.000  H
  H20      1.0000 0.36640  0.60360  0.86410  Biso   1.000  H
  H21      1.0000 0.63360  0.10360  0.63590  Biso   1.000  H
  H22      1.0000 0.13360  0.10360  0.86410  Biso   1.000  H
  H23      1.0000 0.86640  0.60360  0.63590  Biso   1.000  H
  H24      1.0000 0.63360  0.39640  0.13590  Biso   1.000  H
  H25      1.0000 0.24940  0.89530  0.33630  Biso   1.000  H
  H26      1.0000 0.74940  0.89530  0.16370  Biso   1.000  H
  H27      1.0000 0.25060  0.39530  0.33630  Biso   1.000  H
  H28      1.0000 0.24940  0.60470  0.83630  Biso   1.000  H
  H29      1.0000 0.75060  0.10470  0.66370  Biso   1.000  H
  H30      1.0000 0.25060  0.10470  0.83630  Biso   1.000  H
  H31      1.0000 0.74940  0.60470  0.66370  Biso   1.000  H
  H32      1.0000 0.75060  0.39530  0.16370  Biso   1.000  H
  C17      1.0000 0.30949  0.05990  0.34473  Biso   1.000  C
  C18      1.0000 0.80949  0.05990  0.15527  Biso   1.000  C
  C19      1.0000 0.19051  0.55990  0.34473  Biso   1.000  C
  C20      1.0000 0.30949  0.44010  0.84473  Biso   1.000  C
  C21      1.0000 0.69051  0.94010  0.65527  Biso   1.000  C
  C22      1.0000 0.19051  0.94010  0.84473  Biso   1.000  C
  C23      1.0000 0.80949  0.44010  0.65527  Biso   1.000  C
  C24      1.0000 0.69051  0.55990  0.15527  Biso   1.000  C
  H33      1.0000 0.32520  0.06150  0.29390  Biso   1.000  H
  H34      1.0000 0.82520  0.06150  0.20610  Biso   1.000  H
  H35      1.0000 0.17480  0.56150  0.29390  Biso   1.000  H
  H36      1.0000 0.32520  0.43850  0.79390  Biso   1.000  H
  H37      1.0000 0.67480  0.93850  0.70610  Biso   1.000  H
  H38      1.0000 0.17480  0.93850  0.79390  Biso   1.000  H
  H39      1.0000 0.82520  0.43850  0.70610  Biso   1.000  H
  H40      1.0000 0.67480  0.56150  0.20610  Biso   1.000  H
  H41      1.0000 0.24260  0.09990  0.35190  Biso   1.000  H
  H42      1.0000 0.74260  0.09990  0.14810  Biso   1.000  H
  H43      1.0000 0.25740  0.59990  0.35190  Biso   1.000  H
  H44      1.0000 0.24260  0.40010  0.85190  Biso   1.000  H
  H45      1.0000 0.75740  0.90010  0.64810  Biso   1.000  H
  H46      1.0000 0.25740  0.90010  0.85190  Biso   1.000  H
  H47      1.0000 0.74260  0.40010  0.64810  Biso   1.000  H
  H48      1.0000 0.75740  0.59990  0.14810  Biso   1.000  H
  C25      1.0000 0.39383  0.12440  0.38386  Biso   1.000  C
  C26      1.0000 0.89383  0.12440  0.11614  Biso   1.000  C
  C27      1.0000 0.10617  0.62440  0.38386  Biso   1.000  C
  C28      1.0000 0.39383  0.37560  0.88386  Biso   1.000  C
  C29      1.0000 0.60617  0.87560  0.61614  Biso   1.000  C
  C30      1.0000 0.10617  0.87560  0.88386  Biso   1.000  C
  C31      1.0000 0.89383  0.37560  0.61614  Biso   1.000  C
  C32      1.0000 0.60617  0.62440  0.11614  Biso   1.000  C
  H49      1.0000 0.40190  0.20150  0.36230  Biso   1.000  H
  H50      1.0000 0.90190  0.20150  0.13770  Biso   1.000  H
  H51      1.0000 0.09810  0.70150  0.36230  Biso   1.000  H
  H52      1.0000 0.40190  0.29850  0.86230  Biso   1.000  H
  H53      1.0000 0.59810  0.79850  0.63770  Biso   1.000  H
  H54      1.0000 0.09810  0.79850  0.86230  Biso   1.000  H
  H55      1.0000 0.90190  0.29850  0.63770  Biso   1.000  H
  H56      1.0000 0.59810  0.70150  0.13770  Biso   1.000  H
  H57      1.0000 0.46020  0.08280  0.37770  Biso   1.000  H
  H58      1.0000 0.96020  0.08280  0.12230  Biso   1.000  H
  H59      1.0000 0.03980  0.58280  0.37770  Biso   1.000  H
  H60      1.0000 0.46020  0.41720  0.87770  Biso   1.000  H
  H61      1.0000 0.53980  0.91720  0.62230  Biso   1.000  H
  H62      1.0000 0.03980  0.91720  0.87770  Biso   1.000  H
  H63      1.0000 0.96020  0.41720  0.62230  Biso   1.000  H
  H64      1.0000 0.53980  0.58280  0.12230  Biso   1.000  H
  C33      1.0000 0.01482  0.14250  0.41026  Biso   1.000  C
  C34      1.0000 0.51482  0.14250  0.08974  Biso   1.000  C
  C35      1.0000 0.48518  0.64250  0.41026  Biso   1.000  C
  C36      1.0000 0.01482  0.35750  0.91026  Biso   1.000  C
  C37      1.0000 0.98518  0.85750  0.58974  Biso   1.000  C
  C38      1.0000 0.48518  0.85750  0.91026  Biso   1.000  C
  C39      1.0000 0.51482  0.35750  0.58974  Biso   1.000  C
  C40      1.0000 0.98518  0.64250  0.08974  Biso   1.000  C
  C41      1.0000 0.92061  0.09960  0.37728  Biso   1.000  C
  C42      1.0000 0.42061  0.09960  0.12272  Biso   1.000  C
  C43      1.0000 0.57939  0.59960  0.37728  Biso   1.000  C
  C44      1.0000 0.92061  0.40040  0.87728  Biso   1.000  C
  C45      1.0000 0.07939  0.90040  0.62272  Biso   1.000  C
  C46      1.0000 0.57939  0.90040  0.87728  Biso   1.000  C
  C47      1.0000 0.42061  0.40040  0.62272  Biso   1.000  C
  C48      1.0000 0.07939  0.59960  0.12272  Biso   1.000  C
  H65      1.0000 0.93880  0.05360  0.33590  Biso   1.000  H
  H66      1.0000 0.43880  0.05360  0.16410  Biso   1.000  H
  H67      1.0000 0.56120  0.55360  0.33590  Biso   1.000  H
  H68      1.0000 0.93880  0.44640  0.83590  Biso   1.000  H
  H69      1.0000 0.06120  0.94640  0.66410  Biso   1.000  H
  H70      1.0000 0.56120  0.94640  0.83590  Biso   1.000  H
  H71      1.0000 0.43880  0.44640  0.66410  Biso   1.000  H
  H72      1.0000 0.06120  0.55360  0.16410  Biso   1.000  H
  H73      1.0000 0.87710  0.16460  0.36290  Biso   1.000  H
  H74      1.0000 0.37710  0.16460  0.13710  Biso   1.000  H
  H75      1.0000 0.62290  0.66460  0.36290  Biso   1.000  H
  H76      1.0000 0.87710  0.33540  0.86290  Biso   1.000  H
  H77      1.0000 0.12290  0.83540  0.63710  Biso   1.000  H
  H78      1.0000 0.62290  0.83540  0.86290  Biso   1.000  H
  H79      1.0000 0.37710  0.33540  0.63710  Biso   1.000  H
  H80      1.0000 0.12290  0.66460  0.13710  Biso   1.000  H
  H81      1.0000 0.88240  0.05150  0.41080  Biso   1.000  H
  H82      1.0000 0.38240  0.05150  0.08920  Biso   1.000  H
  H83      1.0000 0.61760  0.55150  0.41080  Biso   1.000  H
  H84      1.0000 0.88240  0.44850  0.91080  Biso   1.000  H
  H85      1.0000 0.11760  0.94850  0.58920  Biso   1.000  H
  H86      1.0000 0.61760  0.94850  0.91080  Biso   1.000  H
  H87      1.0000 0.38240  0.44850  0.58920  Biso   1.000  H
  H88      1.0000 0.11760  0.55150  0.08920  Biso   1.000  H
  C49      1.0000 0.14592  0.24010  0.64741  Biso   1.000  C
  C50      1.0000 0.64592  0.24010  0.85259  Biso   1.000  C
  C51      1.0000 0.35408  0.74010  0.64741  Biso   1.000  C
  C52      1.0000 0.14592  0.25990  0.14741  Biso   1.000  C
  C53      1.0000 0.85408  0.75990  0.35259  Biso   1.000  C
  C54      1.0000 0.35408  0.75990  0.14741  Biso   1.000  C
  C55      1.0000 0.64592  0.25990  0.35259  Biso   1.000  C
  C56      1.0000 0.85408  0.74010  0.85259  Biso   1.000  C
  C57      1.0000 0.11700  0.24640  0.72119  Biso   1.000  C
  C58      1.0000 0.61700  0.24640  0.77881  Biso   1.000  C
  C59      1.0000 0.38300  0.74640  0.72119  Biso   1.000  C
  C60      1.0000 0.11700  0.25360  0.22119  Biso   1.000  C
  C61      1.0000 0.88300  0.75360  0.27881  Biso   1.000  C
  C62      1.0000 0.38300  0.75360  0.22119  Biso   1.000  C
  C63      1.0000 0.61700  0.25360  0.27881  Biso   1.000  C
  C64      1.0000 0.88300  0.74640  0.77881  Biso   1.000  C
  H89      1.0000 0.07800  0.31750  0.72970  Biso   1.000  H
  H90      1.0000 0.57800  0.31750  0.77030  Biso   1.000  H
  H91      1.0000 0.42200  0.81750  0.72970  Biso   1.000  H
  H92      1.0000 0.07800  0.18250  0.22970  Biso   1.000  H
  H93      1.0000 0.92200  0.68250  0.27030  Biso   1.000  H
  H94      1.0000 0.42200  0.68250  0.22970  Biso   1.000  H
  H95      1.0000 0.57800  0.18250  0.27030  Biso   1.000  H
  H96      1.0000 0.92200  0.81750  0.77030  Biso   1.000  H
  H97      1.0000 0.17970  0.24610  0.75020  Biso   1.000  H
  H98      1.0000 0.67970  0.24610  0.74980  Biso   1.000  H
  H99      1.0000 0.32030  0.74610  0.75020  Biso   1.000  H
  H100     1.0000 0.17970  0.25390  0.25020  Biso   1.000  H
  H101     1.0000 0.82030  0.75390  0.24980  Biso   1.000  H
  H102     1.0000 0.32030  0.75390  0.25020  Biso   1.000  H
  H103     1.0000 0.67970  0.25390  0.24980  Biso   1.000  H
  H104     1.0000 0.82030  0.74610  0.74980  Biso   1.000  H
  H105     1.0000 0.07380  0.18000  0.73330  Biso   1.000  H
  H106     1.0000 0.57380  0.18000  0.76670  Biso   1.000  H
  H107     1.0000 0.42620  0.68000  0.73330  Biso   1.000  H
  H108     1.0000 0.07380  0.32000  0.23330  Biso   1.000  H
  H109     1.0000 0.92620  0.82000  0.26670  Biso   1.000  H
  H110     1.0000 0.42620  0.82000  0.23330  Biso   1.000  H
  H111     1.0000 0.57380  0.32000  0.26670  Biso   1.000  H
  H112     1.0000 0.92620  0.68000  0.76670  Biso   1.000  H
  B1       1.0000 0.38480  0.08540  0.70657  Biso   1.000  B
  B2       1.0000 0.88480  0.08540  0.79343  Biso   1.000  B
  B3       1.0000 0.11520  0.58540  0.70657  Biso   1.000  B
  B4       1.0000 0.38480  0.41460  0.20657  Biso   1.000  B
  B5       1.0000 0.61520  0.91460  0.29343  Biso   1.000  B
  B6       1.0000 0.11520  0.91460  0.20657  Biso   1.000  B
  B7       1.0000 0.88480  0.41460  0.29343  Biso   1.000  B
  B8       1.0000 0.61520  0.58540  0.79343  Biso   1.000  B
