data_image0
_cell_length_a       6.671
_cell_length_b       16.939
_cell_length_c       12.941
_cell_angle_alpha    90
_cell_angle_beta     93.88
_cell_angle_gamma    90

_symmetry_space_group_name_H-M    "P 1"
_symmetry_int_tables_number       1

loop_
  _symmetry_equiv_pos_as_xyz
  'x, y, z'

loop_
  _atom_site_label
  _atom_site_occupancy
  _atom_site_fract_x
  _atom_site_fract_y
  _atom_site_fract_z
  _atom_site_thermal_displace_type
  _atom_site_B_iso_or_equiv
  _atom_site_type_symbol
  Cu1      1.0000 0.60580  0.87919  0.77735  Biso   1.000  Cu
  Cu2      1.0000 0.39420  0.37919  0.22265  Biso   1.000  Cu
  S1       1.0000 0.81560  0.88182  0.92547  Biso   1.000  S
  S2       1.0000 0.18440  0.38182  0.07453  Biso   1.000  S
  F1       1.0000 0.71950  0.08150  0.95330  Biso   1.000  F
  F2       1.0000 0.28050  0.58150  0.04670  Biso   1.000  F
  N1       1.0000 0.50930  0.77230  0.73250  Biso   1.000  N
  N2       1.0000 0.49070  0.27230  0.26750  Biso   1.000  N
  C1       1.0000 0.64590  0.89110  0.02720  Biso   1.000  C
  C2       1.0000 0.35410  0.39110  0.97280  Biso   1.000  C
  H1       1.0000 0.54930  0.84820  0.02210  Biso   1.000  H
  H2       1.0000 0.45070  0.34820  0.97790  Biso   1.000  H
  H3       1.0000 0.57250  0.94040  0.01900  Biso   1.000  H
  H4       1.0000 0.42750  0.44040  0.98100  Biso   1.000  H
  B1       1.0000 0.59540  0.12870  0.00710  Biso   1.000  B
  B2       1.0000 0.40460  0.62870  0.99290  Biso   1.000  B
  Cu3      1.0000 0.55016  0.89077  0.27789  Biso   1.000  Cu
  Cu4      1.0000 0.44984  0.39077  0.72211  Biso   1.000  Cu
  S3       1.0000 0.78040  0.88882  0.15278  Biso   1.000  S
  S4       1.0000 0.21960  0.38882  0.84722  Biso   1.000  S
  F3       1.0000 0.50770  0.17960  0.93700  Biso   1.000  F
  F4       1.0000 0.49230  0.67960  0.06300  Biso   1.000  F
  N3       1.0000 0.38220  0.95280  0.79720  Biso   1.000  N
  N4       1.0000 0.61780  0.45280  0.20280  Biso   1.000  N
  C3       1.0000 0.87660  0.78950  0.14880  Biso   1.000  C
  C4       1.0000 0.12340  0.28950  0.85120  Biso   1.000  C
  H5       1.0000 0.95030  0.77820  0.21430  Biso   1.000  H
  H6       1.0000 0.04970  0.27820  0.78570  Biso   1.000  H
  H7       1.0000 0.76420  0.75320  0.14150  Biso   1.000  H
  H8       1.0000 0.23580  0.25320  0.85850  Biso   1.000  H
  B3       1.0000 0.81890  0.63800  0.49150  Biso   1.000  B
  B4       1.0000 0.18110  0.13800  0.50850  Biso   1.000  B
  S5       1.0000 0.76100  0.93592  0.41596  Biso   1.000  S
  S6       1.0000 0.23900  0.43592  0.58404  Biso   1.000  S
  F5       1.0000 0.70170  0.16800  0.08220  Biso   1.000  F
  F6       1.0000 0.29830  0.66800  0.91780  Biso   1.000  F
  N5       1.0000 0.44440  0.78280  0.30110  Biso   1.000  N
  N6       1.0000 0.55560  0.28280  0.69890  Biso   1.000  N
  C5       1.0000 0.01510  0.77410  0.06080  Biso   1.000  C
  C6       1.0000 0.98490  0.27410  0.93920  Biso   1.000  C
  H9       1.0000 0.12720  0.81070  0.06720  Biso   1.000  H
  H10      1.0000 0.87280  0.31070  0.93280  Biso   1.000  H
  H11      1.0000 0.06880  0.72100  0.06760  Biso   1.000  H
  H12      1.0000 0.93120  0.22100  0.93240  Biso   1.000  H
  S7       1.0000 0.79330  0.92786  0.64716  Biso   1.000  S
  S8       1.0000 0.20670  0.42786  0.35284  Biso   1.000  S
  F7       1.0000 0.45270  0.08020  0.04540  Biso   1.000  F
  F8       1.0000 0.54730  0.58020  0.95460  Biso   1.000  F
  N7       1.0000 0.32820  0.96400  0.24090  Biso   1.000  N
  N8       1.0000 0.67180  0.46400  0.75910  Biso   1.000  N
  C7       1.0000 0.90790  0.78320  0.95440  Biso   1.000  C
  C8       1.0000 0.09210  0.28320  0.04560  Biso   1.000  C
  H13      1.0000 0.79540  0.74680  0.94870  Biso   1.000  H
  H14      1.0000 0.20460  0.24680  0.05130  Biso   1.000  H
  H15      1.0000 0.99960  0.76830  0.90270  Biso   1.000  H
  H16      1.0000 0.00040  0.26830  0.09730  Biso   1.000  H
  F9       1.0000 0.72400  0.56730  0.48890  Biso   1.000  F
  F10      1.0000 0.27600  0.06730  0.51110  Biso   1.000  F
  C9       1.0000 0.63360  0.91170  0.53040  Biso   1.000  C
  C10      1.0000 0.36640  0.41170  0.46960  Biso   1.000  C
  H17      1.0000 0.59230  0.85680  0.52720  Biso   1.000  H
  H18      1.0000 0.40770  0.35680  0.47280  Biso   1.000  H
  H19      1.0000 0.51370  0.94390  0.53260  Biso   1.000  H
  H20      1.0000 0.48630  0.44390  0.46740  Biso   1.000  H
  F11      1.0000 0.88700  0.64730  0.40100  Biso   1.000  F
  F12      1.0000 0.11300  0.14730  0.59900  Biso   1.000  F
  C11      1.0000 0.98100  0.85240  0.62470  Biso   1.000  C
  C12      1.0000 0.01900  0.35240  0.37530  Biso   1.000  C
  H21      1.0000 0.07830  0.85020  0.68380  Biso   1.000  H
  H22      1.0000 0.92170  0.35020  0.31620  Biso   1.000  H
  H23      1.0000 0.91570  0.80130  0.61810  Biso   1.000  H
  H24      1.0000 0.08430  0.30130  0.38190  Biso   1.000  H
  F13      1.0000 0.67920  0.69750  0.50390  Biso   1.000  F
  F14      1.0000 0.32080  0.19750  0.49610  Biso   1.000  F
  C13      1.0000 0.08680  0.86890  0.52950  Biso   1.000  C
  C14      1.0000 0.91320  0.36890  0.47050  Biso   1.000  C
  H25      1.0000 0.19940  0.83280  0.52730  Biso   1.000  H
  H26      1.0000 0.80060  0.33280  0.47270  Biso   1.000  H
  H27      1.0000 0.14100  0.92200  0.53430  Biso   1.000  H
  H28      1.0000 0.85900  0.42200  0.46570  Biso   1.000  H
  F15      1.0000 0.95010  0.64090  0.56500  Biso   1.000  F
  F16      1.0000 0.04990  0.14090  0.43500  Biso   1.000  F
  C15      1.0000 0.95700  0.86150  0.42780  Biso   1.000  C
  C16      1.0000 0.04300  0.36150  0.57220  Biso   1.000  C
  H29      1.0000 0.89590  0.80950  0.42410  Biso   1.000  H
  H30      1.0000 0.10410  0.30950  0.57590  Biso   1.000  H
  H31      1.0000 0.04180  0.86650  0.37010  Biso   1.000  H
  H32      1.0000 0.95820  0.36650  0.62990  Biso   1.000  H
  C17      1.0000 0.46060  0.71170  0.70780  Biso   1.000  C
  C18      1.0000 0.53940  0.21170  0.29220  Biso   1.000  C
  C19      1.0000 0.38780  0.63320  0.67380  Biso   1.000  C
  C20      1.0000 0.61220  0.13320  0.32620  Biso   1.000  C
  H33      1.0000 0.36560  0.60140  0.73330  Biso   1.000  H
  H34      1.0000 0.63440  0.10140  0.26670  Biso   1.000  H
  H35      1.0000 0.48620  0.60830  0.63390  Biso   1.000  H
  H36      1.0000 0.51380  0.10830  0.36610  Biso   1.000  H
  H37      1.0000 0.26400  0.63880  0.63210  Biso   1.000  H
  H38      1.0000 0.73600  0.13880  0.36790  Biso   1.000  H
  C21      1.0000 0.26970  0.00110  0.81230  Biso   1.000  C
  C22      1.0000 0.73030  0.50110  0.18770  Biso   1.000  C
  C23      1.0000 0.12920  0.06420  0.83230  Biso   1.000  C
  C24      1.0000 0.87080  0.56420  0.16770  Biso   1.000  C
  H39      1.0000 0.18970  0.09940  0.88360  Biso   1.000  H
  H40      1.0000 0.81030  0.59940  0.11640  Biso   1.000  H
  H41      1.0000 0.00910  0.04200  0.85720  Biso   1.000  H
  H42      1.0000 0.99090  0.54200  0.14280  Biso   1.000  H
  H43      1.0000 0.09610  0.09280  0.76950  Biso   1.000  H
  H44      1.0000 0.90390  0.59280  0.23050  Biso   1.000  H
  C25      1.0000 0.40190  0.71950  0.31040  Biso   1.000  C
  C26      1.0000 0.59810  0.21950  0.68960  Biso   1.000  C
  C27      1.0000 0.34910  0.63600  0.31710  Biso   1.000  C
  C28      1.0000 0.65090  0.13600  0.68290  Biso   1.000  C
  H45      1.0000 0.30940  0.61640  0.24920  Biso   1.000  H
  H46      1.0000 0.69060  0.11640  0.75080  Biso   1.000  H
  H47      1.0000 0.23990  0.63000  0.36120  Biso   1.000  H
  H48      1.0000 0.76010  0.13000  0.63880  Biso   1.000  H
  H49      1.0000 0.46330  0.60680  0.34540  Biso   1.000  H
  H50      1.0000 0.53670  0.10680  0.65460  Biso   1.000  H
  C29      1.0000 0.21800  0.01220  0.21540  Biso   1.000  C
  C30      1.0000 0.78200  0.51220  0.78460  Biso   1.000  C
  C31      1.0000 0.08030  0.07500  0.18310  Biso   1.000  C
  C32      1.0000 0.91970  0.57500  0.81690  Biso   1.000  C
  H51      1.0000 0.13830  0.10670  0.13130  Biso   1.000  H
  H52      1.0000 0.86170  0.60670  0.86870  Biso   1.000  H
  H53      1.0000 0.05500  0.10740  0.24170  Biso   1.000  H
  H54      1.0000 0.94500  0.60740  0.75830  Biso   1.000  H
  H55      1.0000 0.95620  0.05270  0.15480  Biso   1.000  H
  H56      1.0000 0.04380  0.55270  0.84520  Biso   1.000  H
