data_image0
_cell_length_a       6.6496
_cell_length_b       14.856
_cell_length_c       17.325
_cell_angle_alpha    90
_cell_angle_beta     90
_cell_angle_gamma    90

_symmetry_space_group_name_H-M    "P 1"
_symmetry_int_tables_number       1

loop_
  _symmetry_equiv_pos_as_xyz
  'x, y, z'

loop_
  _atom_site_label
  _atom_site_occupancy
  _atom_site_fract_x
  _atom_site_fract_y
  _atom_site_fract_z
  _atom_site_thermal_displace_type
  _atom_site_B_iso_or_equiv
  _atom_site_type_symbol
  Cu1      1.0000 0.78603  0.98779  0.57455  Biso   1.000  Cu
  Cu2      1.0000 0.71397  0.01221  0.07455  Biso   1.000  Cu
  Cu3      1.0000 0.28603  0.51221  0.42545  Biso   1.000  Cu
  Cu4      1.0000 0.21397  0.48779  0.92545  Biso   1.000  Cu
  S1       1.0000 0.74156  0.83606  0.58003  Biso   1.000  S
  S2       1.0000 0.75844  0.16394  0.08003  Biso   1.000  S
  S3       1.0000 0.24156  0.66394  0.41997  Biso   1.000  S
  S4       1.0000 0.25844  0.33606  0.91997  Biso   1.000  S
  F1       1.0000 0.07290  0.86100  0.86780  Biso   1.000  F
  F2       1.0000 0.42710  0.13900  0.36780  Biso   1.000  F
  F3       1.0000 0.57290  0.63900  0.13220  Biso   1.000  F
  F4       1.0000 0.92710  0.36100  0.63220  Biso   1.000  F
  N1       1.0000 0.80390  0.01180  0.45950  Biso   1.000  N
  N2       1.0000 0.69610  0.98820  0.95950  Biso   1.000  N
  N3       1.0000 0.30390  0.48820  0.54050  Biso   1.000  N
  N4       1.0000 0.19610  0.51180  0.04050  Biso   1.000  N
  C1       1.0000 0.78980  0.00890  0.39460  Biso   1.000  C
  C2       1.0000 0.71020  0.99110  0.89460  Biso   1.000  C
  C3       1.0000 0.28980  0.49110  0.60540  Biso   1.000  C
  C4       1.0000 0.21020  0.50890  0.10540  Biso   1.000  C
  B1       1.0000 0.20430  0.84090  0.81120  Biso   1.000  B
  B2       1.0000 0.29570  0.15910  0.31120  Biso   1.000  B
  B3       1.0000 0.70430  0.65910  0.18880  Biso   1.000  B
  B4       1.0000 0.79570  0.34090  0.68880  Biso   1.000  B
  S5       1.0000 0.93200  0.65447  0.58407  Biso   1.000  S
  S6       1.0000 0.56800  0.34553  0.08407  Biso   1.000  S
  S7       1.0000 0.43200  0.84553  0.41593  Biso   1.000  S
  S8       1.0000 0.06800  0.15447  0.91593  Biso   1.000  S
  F5       1.0000 0.39500  0.84340  0.83600  Biso   1.000  F
  F6       1.0000 0.10500  0.15660  0.33600  Biso   1.000  F
  F7       1.0000 0.89500  0.65660  0.16400  Biso   1.000  F
  F8       1.0000 0.60500  0.34340  0.66400  Biso   1.000  F
  C5       1.0000 0.77460  0.00380  0.31020  Biso   1.000  C
  C6       1.0000 0.72540  0.99620  0.81020  Biso   1.000  C
  C7       1.0000 0.27460  0.49620  0.68980  Biso   1.000  C
  C8       1.0000 0.22540  0.50380  0.18980  Biso   1.000  C
  H1       1.0000 0.90080  0.02460  0.28700  Biso   1.000  H
  H2       1.0000 0.59920  0.97540  0.78700  Biso   1.000  H
  H3       1.0000 0.40080  0.47540  0.71300  Biso   1.000  H
  H4       1.0000 0.09920  0.52460  0.21300  Biso   1.000  H
  H5       1.0000 0.66370  0.04210  0.29260  Biso   1.000  H
  H6       1.0000 0.83630  0.95790  0.79260  Biso   1.000  H
  H7       1.0000 0.16370  0.45790  0.70740  Biso   1.000  H
  H8       1.0000 0.33630  0.54210  0.20740  Biso   1.000  H
  H9       1.0000 0.74910  0.94140  0.29470  Biso   1.000  H
  H10      1.0000 0.75090  0.05860  0.79470  Biso   1.000  H
  H11      1.0000 0.24910  0.55860  0.70530  Biso   1.000  H
  H12      1.0000 0.25090  0.44140  0.20530  Biso   1.000  H
  S9       1.0000 0.06075  0.05942  0.62665  Biso   1.000  S
  S10      1.0000 0.43925  0.94058  0.12665  Biso   1.000  S
  S11      1.0000 0.56075  0.44058  0.37335  Biso   1.000  S
  S12      1.0000 0.93925  0.55942  0.87335  Biso   1.000  S
  F9       1.0000 0.18350  0.75200  0.79080  Biso   1.000  F
  F10      1.0000 0.31650  0.24800  0.29080  Biso   1.000  F
  F11      1.0000 0.68350  0.74800  0.20920  Biso   1.000  F
  F12      1.0000 0.81650  0.25200  0.70920  Biso   1.000  F
  C9       1.0000 0.97590  0.77450  0.58560  Biso   1.000  C
  C10      1.0000 0.52410  0.22550  0.08560  Biso   1.000  C
  C11      1.0000 0.47590  0.72550  0.41440  Biso   1.000  C
  C12      1.0000 0.02410  0.27450  0.91440  Biso   1.000  C
  H13      1.0000 0.06270  0.79130  0.54150  Biso   1.000  H
  H14      1.0000 0.43730  0.20870  0.04150  Biso   1.000  H
  H15      1.0000 0.56270  0.70870  0.45850  Biso   1.000  H
  H16      1.0000 0.93730  0.29130  0.95850  Biso   1.000  H
  H17      1.0000 0.04720  0.79090  0.63380  Biso   1.000  H
  H18      1.0000 0.45280  0.20910  0.13380  Biso   1.000  H
  H19      1.0000 0.54720  0.70910  0.36620  Biso   1.000  H
  H20      1.0000 0.95280  0.29090  0.86620  Biso   1.000  H
  S13      1.0000 0.50840  0.05991  0.62469  Biso   1.000  S
  S14      1.0000 0.99160  0.94009  0.12469  Biso   1.000  S
  S15      1.0000 0.00840  0.44009  0.37531  Biso   1.000  S
  S16      1.0000 0.49160  0.55991  0.87531  Biso   1.000  S
  F13      1.0000 0.18690  0.89720  0.74960  Biso   1.000  F
  F14      1.0000 0.31310  0.10280  0.24960  Biso   1.000  F
  F15      1.0000 0.68690  0.60280  0.25040  Biso   1.000  F
  F16      1.0000 0.81310  0.39720  0.75040  Biso   1.000  F
  C13      1.0000 0.78520  0.64440  0.67230  Biso   1.000  C
  C14      1.0000 0.71480  0.35560  0.17230  Biso   1.000  C
  C15      1.0000 0.28520  0.85560  0.32770  Biso   1.000  C
  C16      1.0000 0.21480  0.14440  0.82770  Biso   1.000  C
  H21      1.0000 0.74990  0.58030  0.68000  Biso   1.000  H
  H22      1.0000 0.75010  0.41970  0.18000  Biso   1.000  H
  H23      1.0000 0.24990  0.91970  0.32000  Biso   1.000  H
  H24      1.0000 0.25010  0.08030  0.82000  Biso   1.000  H
  H25      1.0000 0.87020  0.66310  0.71640  Biso   1.000  H
  H26      1.0000 0.62980  0.33690  0.21640  Biso   1.000  H
  H27      1.0000 0.37020  0.83690  0.28360  Biso   1.000  H
  H28      1.0000 0.12980  0.16310  0.78360  Biso   1.000  H
  C17      1.0000 0.59630  0.69870  0.67340  Biso   1.000  C
  C18      1.0000 0.90370  0.30130  0.17340  Biso   1.000  C
  C19      1.0000 0.09630  0.80130  0.32660  Biso   1.000  C
  C20      1.0000 0.40370  0.19870  0.82660  Biso   1.000  C
  H29      1.0000 0.51830  0.68360  0.72030  Biso   1.000  H
  H30      1.0000 0.98170  0.31640  0.22030  Biso   1.000  H
  H31      1.0000 0.01830  0.81640  0.27970  Biso   1.000  H
  H32      1.0000 0.48170  0.18360  0.77970  Biso   1.000  H
  H33      1.0000 0.51350  0.68260  0.62790  Biso   1.000  H
  H34      1.0000 0.98650  0.31740  0.12790  Biso   1.000  H
  H35      1.0000 0.01350  0.81740  0.37210  Biso   1.000  H
  H36      1.0000 0.48650  0.18260  0.87210  Biso   1.000  H
  C21      1.0000 0.63730  0.80090  0.67220  Biso   1.000  C
  C22      1.0000 0.86270  0.19910  0.17220  Biso   1.000  C
  C23      1.0000 0.13730  0.69910  0.32780  Biso   1.000  C
  C24      1.0000 0.36270  0.30090  0.82780  Biso   1.000  C
  H37      1.0000 0.73280  0.81630  0.71400  Biso   1.000  H
  H38      1.0000 0.76720  0.18370  0.21400  Biso   1.000  H
  H39      1.0000 0.23280  0.68370  0.28600  Biso   1.000  H
  H40      1.0000 0.26720  0.31630  0.78600  Biso   1.000  H
  H41      1.0000 0.51030  0.83380  0.68190  Biso   1.000  H
  H42      1.0000 0.98970  0.16620  0.18190  Biso   1.000  H
  H43      1.0000 0.01030  0.66620  0.31810  Biso   1.000  H
  H44      1.0000 0.48970  0.33380  0.81810  Biso   1.000  H
  C25      1.0000 0.28290  0.99950  0.59570  Biso   1.000  C
  C26      1.0000 0.21710  0.00050  0.09570  Biso   1.000  C
  C27      1.0000 0.78290  0.50050  0.40430  Biso   1.000  C
  C28      1.0000 0.71710  0.49950  0.90430  Biso   1.000  C
  H45      1.0000 0.28100  0.99290  0.53880  Biso   1.000  H
  H46      1.0000 0.21900  0.00710  0.03880  Biso   1.000  H
  H47      1.0000 0.78100  0.50710  0.46120  Biso   1.000  H
  H48      1.0000 0.71900  0.49290  0.96120  Biso   1.000  H
  H49      1.0000 0.28370  0.93860  0.61880  Biso   1.000  H
  H50      1.0000 0.21630  0.06140  0.11880  Biso   1.000  H
  H51      1.0000 0.78370  0.56140  0.38120  Biso   1.000  H
  H52      1.0000 0.71630  0.43860  0.88120  Biso   1.000  H
  C29      1.0000 0.47430  0.16090  0.56640  Biso   1.000  C
  C30      1.0000 0.02570  0.83910  0.06640  Biso   1.000  C
  C31      1.0000 0.97430  0.33910  0.43360  Biso   1.000  C
  C32      1.0000 0.52570  0.66090  0.93360  Biso   1.000  C
  H53      1.0000 0.59070  0.20150  0.57410  Biso   1.000  H
  H54      1.0000 0.90930  0.79850  0.07410  Biso   1.000  H
  H55      1.0000 0.09070  0.29850  0.42590  Biso   1.000  H
  H56      1.0000 0.40930  0.70150  0.92590  Biso   1.000  H
  H57      1.0000 0.47030  0.14400  0.51120  Biso   1.000  H
  H58      1.0000 0.02970  0.85600  0.01120  Biso   1.000  H
  H59      1.0000 0.97030  0.35600  0.48880  Biso   1.000  H
  H60      1.0000 0.52970  0.64400  0.98880  Biso   1.000  H
  C33      1.0000 0.28130  0.21100  0.58710  Biso   1.000  C
  C34      1.0000 0.21870  0.78900  0.08710  Biso   1.000  C
  C35      1.0000 0.78130  0.28900  0.41290  Biso   1.000  C
  C36      1.0000 0.71870  0.71100  0.91290  Biso   1.000  C
  H61      1.0000 0.28200  0.22430  0.64310  Biso   1.000  H
  H62      1.0000 0.21800  0.77570  0.14310  Biso   1.000  H
  H63      1.0000 0.78200  0.27570  0.35690  Biso   1.000  H
  H64      1.0000 0.71800  0.72430  0.85690  Biso   1.000  H
  H65      1.0000 0.27900  0.26920  0.55920  Biso   1.000  H
  H66      1.0000 0.22100  0.73080  0.05920  Biso   1.000  H
  H67      1.0000 0.77900  0.23080  0.44080  Biso   1.000  H
  H68      1.0000 0.72100  0.76920  0.94080  Biso   1.000  H
  C37      1.0000 0.09190  0.15920  0.56770  Biso   1.000  C
  C38      1.0000 0.40810  0.84080  0.06770  Biso   1.000  C
  C39      1.0000 0.59190  0.34080  0.43230  Biso   1.000  C
  C40      1.0000 0.90810  0.65920  0.93230  Biso   1.000  C
  H69      1.0000 0.09620  0.14130  0.51270  Biso   1.000  H
  H70      1.0000 0.40380  0.85870  0.01270  Biso   1.000  H
  H71      1.0000 0.59620  0.35870  0.48730  Biso   1.000  H
  H72      1.0000 0.90380  0.64130  0.98730  Biso   1.000  H
  H73      1.0000 0.97400  0.19900  0.57500  Biso   1.000  H
  H74      1.0000 0.52600  0.80100  0.07500  Biso   1.000  H
  H75      1.0000 0.47400  0.30100  0.42500  Biso   1.000  H
  H76      1.0000 0.02600  0.69900  0.92500  Biso   1.000  H
