data_image0
_cell_length_a       12.1164
_cell_length_b       16.379
_cell_length_c       19.486
_cell_angle_alpha    90
_cell_angle_beta     90
_cell_angle_gamma    90

_symmetry_space_group_name_H-M    "P 1"
_symmetry_int_tables_number       1

loop_
  _symmetry_equiv_pos_as_xyz
  'x, y, z'

loop_
  _atom_site_label
  _atom_site_occupancy
  _atom_site_fract_x
  _atom_site_fract_y
  _atom_site_fract_z
  _atom_site_thermal_displace_type
  _atom_site_B_iso_or_equiv
  _atom_site_type_symbol
  Cu1      1.0000 0.30431  0.01502  0.74780  Biso   1.000  Cu
  Cu2      1.0000 0.19569  0.98498  0.24780  Biso   1.000  Cu
  Cu3      1.0000 0.80431  0.48498  0.25220  Biso   1.000  Cu
  Cu4      1.0000 0.69569  0.51502  0.75220  Biso   1.000  Cu
  Cu5      1.0000 0.43706  0.82603  0.81718  Biso   1.000  Cu
  Cu6      1.0000 0.06294  0.17397  0.31718  Biso   1.000  Cu
  Cu7      1.0000 0.93706  0.67397  0.18282  Biso   1.000  Cu
  Cu8      1.0000 0.56294  0.32603  0.68282  Biso   1.000  Cu
  Cu9      1.0000 0.44220  0.20206  0.82962  Biso   1.000  Cu
  Cu10     1.0000 0.05780  0.79794  0.32962  Biso   1.000  Cu
  Cu11     1.0000 0.94220  0.29794  0.17038  Biso   1.000  Cu
  Cu12     1.0000 0.55780  0.70206  0.67038  Biso   1.000  Cu
  Cl1      1.0000 0.34840  0.50310  0.07130  Biso   1.000  Cl
  Cl2      1.0000 0.15160  0.49690  0.57130  Biso   1.000  Cl
  Cl3      1.0000 0.84840  0.99690  0.92870  Biso   1.000  Cl
  Cl4      1.0000 0.65160  0.00310  0.42870  Biso   1.000  Cl
  Cl5      1.0000 0.52230  0.62210  0.04590  Biso   1.000  Cl
  Cl6      1.0000 0.97770  0.37790  0.54590  Biso   1.000  Cl
  Cl7      1.0000 0.02230  0.87790  0.95410  Biso   1.000  Cl
  Cl8      1.0000 0.47770  0.12210  0.45410  Biso   1.000  Cl
  Cl9      1.0000 0.51220  0.57840  0.00710  Biso   1.000  Cl
  Cl10     1.0000 0.98780  0.42160  0.50710  Biso   1.000  Cl
  Cl11     1.0000 0.01220  0.92160  0.99290  Biso   1.000  Cl
  Cl12     1.0000 0.48780  0.07840  0.49290  Biso   1.000  Cl
  Cl13     1.0000 0.55110  0.65500  0.13850  Biso   1.000  Cl
  Cl14     1.0000 0.94890  0.34500  0.63850  Biso   1.000  Cl
  Cl15     1.0000 0.05110  0.84500  0.86150  Biso   1.000  Cl
  Cl16     1.0000 0.44890  0.15500  0.36150  Biso   1.000  Cl
  S1       1.0000 0.39960  0.96005  0.83882  Biso   1.000  S
  S2       1.0000 0.10040  0.03995  0.33882  Biso   1.000  S
  S3       1.0000 0.89960  0.53995  0.16118  Biso   1.000  S
  S4       1.0000 0.60040  0.46005  0.66118  Biso   1.000  S
  S5       1.0000 0.51127  0.10710  0.90527  Biso   1.000  S
  S6       1.0000 0.98873  0.89290  0.40527  Biso   1.000  S
  S7       1.0000 0.01127  0.39290  0.09473  Biso   1.000  S
  S8       1.0000 0.48873  0.60710  0.59473  Biso   1.000  S
  S9       1.0000 0.41917  0.79034  0.70390  Biso   1.000  S
  S10      1.0000 0.08083  0.20966  0.20390  Biso   1.000  S
  S11      1.0000 0.91917  0.70966  0.29610  Biso   1.000  S
  S12      1.0000 0.58083  0.29034  0.79610  Biso   1.000  S
  S13      1.0000 0.31752  0.94697  0.64545  Biso   1.000  S
  S14      1.0000 0.18248  0.05303  0.14545  Biso   1.000  S
  S15      1.0000 0.81752  0.55303  0.35455  Biso   1.000  S
  S16      1.0000 0.68248  0.44697  0.85455  Biso   1.000  S
  S17      1.0000 0.40138  0.28031  0.63013  Biso   1.000  S
  S18      1.0000 0.09862  0.71969  0.13013  Biso   1.000  S
  S19      1.0000 0.90138  0.21969  0.36987  Biso   1.000  S
  S20      1.0000 0.59862  0.78031  0.86987  Biso   1.000  S
  S21      1.0000 0.34221  0.15327  0.73834  Biso   1.000  S
  S22      1.0000 0.15779  0.84673  0.23834  Biso   1.000  S
  S23      1.0000 0.84221  0.34673  0.26166  Biso   1.000  S
  S24      1.0000 0.65779  0.65327  0.76166  Biso   1.000  S
  F1       1.0000 0.36920  0.92880  0.10800  Biso   1.000  F
  F2       1.0000 0.13080  0.07120  0.60800  Biso   1.000  F
  F3       1.0000 0.86920  0.57120  0.89200  Biso   1.000  F
  F4       1.0000 0.63080  0.42880  0.39200  Biso   1.000  F
  F5       1.0000 0.48630  0.82740  0.12180  Biso   1.000  F
  F6       1.0000 0.01370  0.17260  0.62180  Biso   1.000  F
  F7       1.0000 0.98630  0.67260  0.87820  Biso   1.000  F
  F8       1.0000 0.51370  0.32740  0.37820  Biso   1.000  F
  F9       1.0000 0.34860  0.82240  0.04780  Biso   1.000  F
  F10      1.0000 0.15140  0.17760  0.54780  Biso   1.000  F
  F11      1.0000 0.84860  0.67760  0.95220  Biso   1.000  F
  F12      1.0000 0.65140  0.32240  0.45220  Biso   1.000  F
  F13      1.0000 0.49050  0.90120  0.02340  Biso   1.000  F
  F14      1.0000 0.00950  0.09880  0.52340  Biso   1.000  F
  F15      1.0000 0.99050  0.59880  0.97660  Biso   1.000  F
  F16      1.0000 0.50950  0.40120  0.47660  Biso   1.000  F
  F17      1.0000 0.60750  0.09260  0.73270  Biso   1.000  F
  F18      1.0000 0.89250  0.90740  0.23270  Biso   1.000  F
  F19      1.0000 0.10750  0.40740  0.26730  Biso   1.000  F
  F20      1.0000 0.39250  0.59260  0.76730  Biso   1.000  F
  F21      1.0000 0.62040  0.95600  0.72500  Biso   1.000  F
  F22      1.0000 0.87960  0.04400  0.22500  Biso   1.000  F
  F23      1.0000 0.12040  0.54400  0.27500  Biso   1.000  F
  F24      1.0000 0.37960  0.45600  0.77500  Biso   1.000  F
  F25      1.0000 0.58170  0.03200  0.63260  Biso   1.000  F
  F26      1.0000 0.91830  0.96800  0.13260  Biso   1.000  F
  F27      1.0000 0.08170  0.46800  0.36740  Biso   1.000  F
  F28      1.0000 0.41830  0.53200  0.86740  Biso   1.000  F
  F29      1.0000 0.74940  0.03530  0.67220  Biso   1.000  F
  F30      1.0000 0.75060  0.96470  0.17220  Biso   1.000  F
  F31      1.0000 0.24940  0.46470  0.32780  Biso   1.000  F
  F32      1.0000 0.25060  0.53530  0.82780  Biso   1.000  F
  F33      1.0000 0.58880  0.78700  0.43900  Biso   1.000  F
  F34      1.0000 0.91120  0.21300  0.93900  Biso   1.000  F
  F35      1.0000 0.08880  0.71300  0.56100  Biso   1.000  F
  F36      1.0000 0.41120  0.28700  0.06100  Biso   1.000  F
  F37      1.0000 0.45480  0.71870  0.39130  Biso   1.000  F
  F38      1.0000 0.04520  0.28130  0.89130  Biso   1.000  F
  F39      1.0000 0.95480  0.78130  0.60870  Biso   1.000  F
  F40      1.0000 0.54520  0.21870  0.10870  Biso   1.000  F
  F41      1.0000 0.43670  0.84100  0.39060  Biso   1.000  F
  F42      1.0000 0.06330  0.15900  0.89060  Biso   1.000  F
  F43      1.0000 0.93670  0.65900  0.60940  Biso   1.000  F
  F44      1.0000 0.56330  0.34100  0.10940  Biso   1.000  F
  F45      1.0000 0.42140  0.77950  0.49130  Biso   1.000  F
  F46      1.0000 0.07860  0.22050  0.99130  Biso   1.000  F
  F47      1.0000 0.92140  0.72050  0.50870  Biso   1.000  F
  F48      1.0000 0.57860  0.27950  0.00870  Biso   1.000  F
  N1       1.0000 0.14550  0.01620  0.77300  Biso   1.000  N
  N2       1.0000 0.35450  0.98380  0.27300  Biso   1.000  N
  N3       1.0000 0.64550  0.48380  0.22700  Biso   1.000  N
  N4       1.0000 0.85450  0.51620  0.72700  Biso   1.000  N
  N5       1.0000 0.33430  0.75690  0.87030  Biso   1.000  N
  N6       1.0000 0.16570  0.24310  0.37030  Biso   1.000  N
  N7       1.0000 0.83430  0.74310  0.12970  Biso   1.000  N
  N8       1.0000 0.66570  0.25690  0.62970  Biso   1.000  N
  N9       1.0000 0.34160  0.27200  0.88510  Biso   1.000  N
  N10      1.0000 0.15840  0.72800  0.38510  Biso   1.000  N
  N11      1.0000 0.84160  0.22800  0.11490  Biso   1.000  N
  N12      1.0000 0.65840  0.77200  0.61490  Biso   1.000  N
  C1       1.0000 0.05500  0.03510  0.77430  Biso   1.000  C
  C2       1.0000 0.44500  0.96490  0.27430  Biso   1.000  C
  C3       1.0000 0.55500  0.46490  0.22570  Biso   1.000  C
  C4       1.0000 0.94500  0.53510  0.72570  Biso   1.000  C
  C5       1.0000 0.93890  0.05990  0.77180  Biso   1.000  C
  C6       1.0000 0.56110  0.94010  0.27180  Biso   1.000  C
  C7       1.0000 0.43890  0.44010  0.22820  Biso   1.000  C
  C8       1.0000 0.06110  0.55990  0.72820  Biso   1.000  C
  H1       1.0000 0.93070  0.10640  0.74060  Biso   1.000  H
  H2       1.0000 0.56930  0.89360  0.24060  Biso   1.000  H
  H3       1.0000 0.43070  0.39360  0.25940  Biso   1.000  H
  H4       1.0000 0.06930  0.60640  0.75940  Biso   1.000  H
  H5       1.0000 0.91440  0.07570  0.81790  Biso   1.000  H
  H6       1.0000 0.58560  0.92430  0.31790  Biso   1.000  H
  H7       1.0000 0.41440  0.42430  0.18210  Biso   1.000  H
  H8       1.0000 0.08560  0.57570  0.68210  Biso   1.000  H
  H9       1.0000 0.89390  0.01420  0.75540  Biso   1.000  H
  H10      1.0000 0.60610  0.98580  0.25540  Biso   1.000  H
  H11      1.0000 0.39390  0.48580  0.24460  Biso   1.000  H
  H12      1.0000 0.10610  0.51420  0.74460  Biso   1.000  H
  C9       1.0000 0.28680  0.71780  0.90640  Biso   1.000  C
  C10      1.0000 0.21320  0.28220  0.40640  Biso   1.000  C
  C11      1.0000 0.78680  0.78220  0.09360  Biso   1.000  C
  C12      1.0000 0.71320  0.21780  0.59360  Biso   1.000  C
  C13      1.0000 0.22900  0.66250  0.95330  Biso   1.000  C
  C14      1.0000 0.27100  0.33750  0.45330  Biso   1.000  C
  C15      1.0000 0.72900  0.83750  0.04670  Biso   1.000  C
  C16      1.0000 0.77100  0.16250  0.54670  Biso   1.000  C
  H13      1.0000 0.17900  0.62730  0.92710  Biso   1.000  H
  H14      1.0000 0.32100  0.37270  0.42710  Biso   1.000  H
  H15      1.0000 0.67900  0.87270  0.07290  Biso   1.000  H
  H16      1.0000 0.82100  0.12730  0.57290  Biso   1.000  H
  H17      1.0000 0.18630  0.69450  0.98650  Biso   1.000  H
  H18      1.0000 0.31370  0.30550  0.48650  Biso   1.000  H
  H19      1.0000 0.68630  0.80550  0.01350  Biso   1.000  H
  H20      1.0000 0.81370  0.19450  0.51350  Biso   1.000  H
  H21      1.0000 0.28290  0.62870  0.97770  Biso   1.000  H
  H22      1.0000 0.21710  0.37130  0.47770  Biso   1.000  H
  H23      1.0000 0.78290  0.87130  0.02230  Biso   1.000  H
  H24      1.0000 0.71710  0.12870  0.52230  Biso   1.000  H
  C17      1.0000 0.29200  0.31820  0.91530  Biso   1.000  C
  C18      1.0000 0.20800  0.68180  0.41530  Biso   1.000  C
  C19      1.0000 0.79200  0.18180  0.08470  Biso   1.000  C
  C20      1.0000 0.70800  0.81820  0.58470  Biso   1.000  C
  C21      1.0000 0.23090  0.37660  0.95290  Biso   1.000  C
  C22      1.0000 0.26910  0.62340  0.45290  Biso   1.000  C
  C23      1.0000 0.73090  0.12340  0.04710  Biso   1.000  C
  C24      1.0000 0.76910  0.87660  0.54710  Biso   1.000  C
  H25      1.0000 0.24580  0.36990  0.00200  Biso   1.000  H
  H26      1.0000 0.25420  0.63010  0.50200  Biso   1.000  H
  H27      1.0000 0.74580  0.13010  0.99800  Biso   1.000  H
  H28      1.0000 0.75420  0.86990  0.49800  Biso   1.000  H
  H29      1.0000 0.15190  0.36880  0.94420  Biso   1.000  H
  H30      1.0000 0.34810  0.63120  0.44420  Biso   1.000  H
  H31      1.0000 0.65190  0.13120  0.05580  Biso   1.000  H
  H32      1.0000 0.84810  0.86880  0.55580  Biso   1.000  H
  H33      1.0000 0.25260  0.43160  0.93840  Biso   1.000  H
  H34      1.0000 0.24740  0.56840  0.43840  Biso   1.000  H
  H35      1.0000 0.75260  0.06840  0.06160  Biso   1.000  H
  H36      1.0000 0.74740  0.93160  0.56160  Biso   1.000  H
  C25      1.0000 0.52570  0.00540  0.87250  Biso   1.000  C
  C26      1.0000 0.97430  0.99460  0.37250  Biso   1.000  C
  C27      1.0000 0.02570  0.49460  0.12750  Biso   1.000  C
  C28      1.0000 0.47430  0.50540  0.62750  Biso   1.000  C
  H37      1.0000 0.55400  0.97000  0.90980  Biso   1.000  H
  H38      1.0000 0.94600  0.03000  0.40980  Biso   1.000  H
  H39      1.0000 0.05400  0.53000  0.09020  Biso   1.000  H
  H40      1.0000 0.44600  0.47000  0.59020  Biso   1.000  H
  H41      1.0000 0.58170  0.00590  0.83560  Biso   1.000  H
  H42      1.0000 0.91830  0.99410  0.33560  Biso   1.000  H
  H43      1.0000 0.08170  0.49410  0.16440  Biso   1.000  H
  H44      1.0000 0.41830  0.50590  0.66440  Biso   1.000  H
  C29      1.0000 0.40400  0.09100  0.96890  Biso   1.000  C
  C30      1.0000 0.09600  0.90900  0.46890  Biso   1.000  C
  C31      1.0000 0.90400  0.40900  0.03110  Biso   1.000  C
  C32      1.0000 0.59600  0.59100  0.53110  Biso   1.000  C
  H45      1.0000 0.43260  0.05400  0.00490  Biso   1.000  H
  H46      1.0000 0.06740  0.94600  0.50490  Biso   1.000  H
  H47      1.0000 0.93260  0.44600  0.99510  Biso   1.000  H
  H48      1.0000 0.56740  0.55400  0.49510  Biso   1.000  H
  H49      1.0000 0.38650  0.14390  0.99090  Biso   1.000  H
  H50      1.0000 0.11350  0.85610  0.49090  Biso   1.000  H
  H51      1.0000 0.88650  0.35610  0.00910  Biso   1.000  H
  H52      1.0000 0.61350  0.64390  0.50910  Biso   1.000  H
  C33      1.0000 0.29920  0.05520  0.94010  Biso   1.000  C
  C34      1.0000 0.20080  0.94480  0.44010  Biso   1.000  C
  C35      1.0000 0.79920  0.44480  0.05990  Biso   1.000  C
  C36      1.0000 0.70080  0.55520  0.55990  Biso   1.000  C
  H53      1.0000 0.27360  0.09000  0.90170  Biso   1.000  H
  H54      1.0000 0.22640  0.91000  0.40170  Biso   1.000  H
  H55      1.0000 0.77360  0.41000  0.09830  Biso   1.000  H
  H56      1.0000 0.72640  0.59000  0.59830  Biso   1.000  H
  H57      1.0000 0.24160  0.05650  0.97610  Biso   1.000  H
  H58      1.0000 0.25840  0.94350  0.47610  Biso   1.000  H
  H59      1.0000 0.74160  0.44350  0.02390  Biso   1.000  H
  H60      1.0000 0.75840  0.55650  0.52390  Biso   1.000  H
  C37      1.0000 0.31140  0.96810  0.91440  Biso   1.000  C
  C38      1.0000 0.18860  0.03190  0.41440  Biso   1.000  C
  C39      1.0000 0.81140  0.53190  0.08560  Biso   1.000  C
  C40      1.0000 0.68860  0.46810  0.58560  Biso   1.000  C
  H61      1.0000 0.23740  0.94620  0.90320  Biso   1.000  H
  H62      1.0000 0.26260  0.05380  0.40320  Biso   1.000  H
  H63      1.0000 0.73740  0.55380  0.09680  Biso   1.000  H
  H64      1.0000 0.76260  0.44620  0.59680  Biso   1.000  H
  H65      1.0000 0.34280  0.93410  0.95160  Biso   1.000  H
  H66      1.0000 0.15720  0.06590  0.45160  Biso   1.000  H
  H67      1.0000 0.84280  0.56590  0.04840  Biso   1.000  H
  H68      1.0000 0.65720  0.43410  0.54840  Biso   1.000  H
  C41      1.0000 0.42420  0.87120  0.64110  Biso   1.000  C
  C42      1.0000 0.07580  0.12880  0.14110  Biso   1.000  C
  C43      1.0000 0.92420  0.62880  0.35890  Biso   1.000  C
  C44      1.0000 0.57580  0.37120  0.85890  Biso   1.000  C
  H69      1.0000 0.49620  0.89930  0.64550  Biso   1.000  H
  H70      1.0000 0.00380  0.10070  0.14550  Biso   1.000  H
  H71      1.0000 0.99620  0.60070  0.35450  Biso   1.000  H
  H72      1.0000 0.50380  0.39930  0.85450  Biso   1.000  H
  H73      1.0000 0.42190  0.84610  0.59490  Biso   1.000  H
  H74      1.0000 0.07810  0.15390  0.09490  Biso   1.000  H
  H75      1.0000 0.92190  0.65390  0.40510  Biso   1.000  H
  H76      1.0000 0.57810  0.34610  0.90510  Biso   1.000  H
  C45      1.0000 0.19600  0.88040  0.64160  Biso   1.000  C
  C46      1.0000 0.30400  0.11960  0.14160  Biso   1.000  C
  C47      1.0000 0.69600  0.61960  0.35840  Biso   1.000  C
  C48      1.0000 0.80400  0.38040  0.85840  Biso   1.000  C
  H77      1.0000 0.12900  0.91460  0.64560  Biso   1.000  H
  H78      1.0000 0.37100  0.08540  0.14560  Biso   1.000  H
  H79      1.0000 0.62900  0.58540  0.35440  Biso   1.000  H
  H80      1.0000 0.87100  0.41460  0.85440  Biso   1.000  H
  H81      1.0000 0.19410  0.85370  0.59600  Biso   1.000  H
  H82      1.0000 0.30590  0.14630  0.09600  Biso   1.000  H
  H83      1.0000 0.69410  0.64630  0.40400  Biso   1.000  H
  H84      1.0000 0.80590  0.35370  0.90400  Biso   1.000  H
  C49      1.0000 0.19180  0.81530  0.69600  Biso   1.000  C
  C50      1.0000 0.30820  0.18470  0.19600  Biso   1.000  C
  C51      1.0000 0.69180  0.68470  0.30400  Biso   1.000  C
  C52      1.0000 0.80820  0.31530  0.80400  Biso   1.000  C
  H85      1.0000 0.11850  0.78870  0.69460  Biso   1.000  H
  H86      1.0000 0.38150  0.21130  0.19460  Biso   1.000  H
  H87      1.0000 0.61850  0.71130  0.30540  Biso   1.000  H
  H88      1.0000 0.88150  0.28870  0.80540  Biso   1.000  H
  H89      1.0000 0.20000  0.84140  0.74160  Biso   1.000  H
  H90      1.0000 0.30000  0.15860  0.24160  Biso   1.000  H
  H91      1.0000 0.70000  0.65860  0.25840  Biso   1.000  H
  H92      1.0000 0.80000  0.34140  0.75840  Biso   1.000  H
  C53      1.0000 0.28210  0.74920  0.68790  Biso   1.000  C
  C54      1.0000 0.21790  0.25080  0.18790  Biso   1.000  C
  C55      1.0000 0.78210  0.75080  0.31210  Biso   1.000  C
  C56      1.0000 0.71790  0.24920  0.81210  Biso   1.000  C
  H93      1.0000 0.27910  0.72650  0.64090  Biso   1.000  H
  H94      1.0000 0.22090  0.27350  0.14090  Biso   1.000  H
  H95      1.0000 0.77910  0.77350  0.35910  Biso   1.000  H
  H96      1.0000 0.72090  0.22650  0.85910  Biso   1.000  H
  H97      1.0000 0.26740  0.70410  0.72050  Biso   1.000  H
  H98      1.0000 0.23260  0.29590  0.22050  Biso   1.000  H
  H99      1.0000 0.76740  0.79590  0.27950  Biso   1.000  H
  H100     1.0000 0.73260  0.20410  0.77950  Biso   1.000  H
  C57      1.0000 0.38470  0.17330  0.65010  Biso   1.000  C
  C58      1.0000 0.11530  0.82670  0.15010  Biso   1.000  C
  C59      1.0000 0.88470  0.32670  0.34990  Biso   1.000  C
  C60      1.0000 0.61530  0.67330  0.84990  Biso   1.000  C
  H101     1.0000 0.45550  0.14500  0.64140  Biso   1.000  H
  H102     1.0000 0.04450  0.85500  0.14140  Biso   1.000  H
  H103     1.0000 0.95550  0.35500  0.35860  Biso   1.000  H
  H104     1.0000 0.54450  0.64500  0.85860  Biso   1.000  H
  H105     1.0000 0.32900  0.14980  0.61860  Biso   1.000  H
  H106     1.0000 0.17100  0.85020  0.11860  Biso   1.000  H
  H107     1.0000 0.82900  0.35020  0.38140  Biso   1.000  H
  H108     1.0000 0.67100  0.64980  0.88140  Biso   1.000  H
  C61      1.0000 0.21330  0.20840  0.74110  Biso   1.000  C
  C62      1.0000 0.28670  0.79160  0.24110  Biso   1.000  C
  C63      1.0000 0.71330  0.29160  0.25890  Biso   1.000  C
  C64      1.0000 0.78670  0.70840  0.75890  Biso   1.000  C
  H109     1.0000 0.16240  0.18520  0.70650  Biso   1.000  H
  H110     1.0000 0.33760  0.81480  0.20650  Biso   1.000  H
  H111     1.0000 0.66240  0.31480  0.29350  Biso   1.000  H
  H112     1.0000 0.83760  0.68520  0.79350  Biso   1.000  H
  H113     1.0000 0.17930  0.20110  0.78690  Biso   1.000  H
  H114     1.0000 0.32070  0.79890  0.28690  Biso   1.000  H
  H115     1.0000 0.67930  0.29890  0.21310  Biso   1.000  H
  H116     1.0000 0.82070  0.70110  0.71310  Biso   1.000  H
  C65      1.0000 0.22860  0.30130  0.72680  Biso   1.000  C
  C66      1.0000 0.27140  0.69870  0.22680  Biso   1.000  C
  C67      1.0000 0.72860  0.19870  0.27320  Biso   1.000  C
  C68      1.0000 0.77140  0.80130  0.77320  Biso   1.000  C
  H117     1.0000 0.15790  0.32960  0.73570  Biso   1.000  H
  H118     1.0000 0.34210  0.67040  0.23570  Biso   1.000  H
  H119     1.0000 0.65790  0.17040  0.26430  Biso   1.000  H
  H120     1.0000 0.84210  0.82960  0.76430  Biso   1.000  H
  H121     1.0000 0.28400  0.32330  0.75930  Biso   1.000  H
  H122     1.0000 0.21600  0.67670  0.25930  Biso   1.000  H
  H123     1.0000 0.78400  0.17670  0.24070  Biso   1.000  H
  H124     1.0000 0.71600  0.82330  0.74070  Biso   1.000  H
  C69      1.0000 0.26530  0.31990  0.65430  Biso   1.000  C
  C70      1.0000 0.23470  0.68010  0.15430  Biso   1.000  C
  C71      1.0000 0.76530  0.18010  0.34570  Biso   1.000  C
  C72      1.0000 0.73470  0.81990  0.84570  Biso   1.000  C
  H125     1.0000 0.26580  0.37990  0.64820  Biso   1.000  H
  H126     1.0000 0.23420  0.62010  0.14820  Biso   1.000  H
  H127     1.0000 0.76580  0.12010  0.35180  Biso   1.000  H
  H128     1.0000 0.73420  0.87990  0.85180  Biso   1.000  H
  H129     1.0000 0.20990  0.29730  0.62220  Biso   1.000  H
  H130     1.0000 0.29010  0.70270  0.12220  Biso   1.000  H
  H131     1.0000 0.70990  0.20270  0.37780  Biso   1.000  H
  H132     1.0000 0.79010  0.79730  0.87780  Biso   1.000  H
  C73      1.0000 0.47680  0.51910  0.03010  Biso   1.000  C
  C74      1.0000 0.02320  0.48090  0.53010  Biso   1.000  C
  C75      1.0000 0.97680  0.98090  0.96990  Biso   1.000  C
  C76      1.0000 0.52320  0.01910  0.46990  Biso   1.000  C
  H133     1.0000 0.46890  0.51000  0.98010  Biso   1.000  H
  H134     1.0000 0.03110  0.49000  0.48010  Biso   1.000  H
  H135     1.0000 0.96890  0.99000  0.01990  Biso   1.000  H
  H136     1.0000 0.53110  0.01000  0.51990  Biso   1.000  H
  H137     1.0000 0.53210  0.48000  0.04790  Biso   1.000  H
  H138     1.0000 0.96790  0.52000  0.54790  Biso   1.000  H
  H139     1.0000 0.03210  0.02000  0.95210  Biso   1.000  H
  H140     1.0000 0.46790  0.98000  0.45210  Biso   1.000  H
  C77      1.0000 0.56200  0.66580  0.04890  Biso   1.000  C
  C78      1.0000 0.93800  0.33420  0.54890  Biso   1.000  C
  C79      1.0000 0.06200  0.83420  0.95110  Biso   1.000  C
  C80      1.0000 0.43800  0.16580  0.45110  Biso   1.000  C
  H141     1.0000 0.51910  0.71400  0.03380  Biso   1.000  H
  H142     1.0000 0.98090  0.28600  0.53380  Biso   1.000  H
  H143     1.0000 0.01910  0.78600  0.96620  Biso   1.000  H
  H144     1.0000 0.48090  0.21400  0.46620  Biso   1.000  H
  H145     1.0000 0.64020  0.67470  0.03620  Biso   1.000  H
  H146     1.0000 0.85980  0.32530  0.53620  Biso   1.000  H
  H147     1.0000 0.14020  0.82530  0.96380  Biso   1.000  H
  H148     1.0000 0.35980  0.17470  0.46380  Biso   1.000  H
  B1       1.0000 0.42820  0.87430  0.07440  Biso   1.000  B
  B2       1.0000 0.07180  0.12570  0.57440  Biso   1.000  B
  B3       1.0000 0.92820  0.62570  0.92560  Biso   1.000  B
  B4       1.0000 0.57180  0.37430  0.42560  Biso   1.000  B
  B5       1.0000 0.64670  0.02800  0.69400  Biso   1.000  B
  B6       1.0000 0.85330  0.97200  0.19400  Biso   1.000  B
  B7       1.0000 0.14670  0.47200  0.30600  Biso   1.000  B
  B8       1.0000 0.35330  0.52800  0.80600  Biso   1.000  B
  B9       1.0000 0.47880  0.79100  0.43570  Biso   1.000  B
  B10      1.0000 0.02120  0.20900  0.93570  Biso   1.000  B
  B11      1.0000 0.97880  0.70900  0.56430  Biso   1.000  B
  B12      1.0000 0.52120  0.29100  0.06430  Biso   1.000  B
