data_image0
_cell_length_a       17.622
_cell_length_b       17.622
_cell_length_c       15.842
_cell_angle_alpha    90
_cell_angle_beta     90
_cell_angle_gamma    90

_symmetry_space_group_name_H-M    "P 1"
_symmetry_int_tables_number       1

loop_
  _symmetry_equiv_pos_as_xyz
  'x, y, z'

loop_
  _atom_site_label
  _atom_site_occupancy
  _atom_site_fract_x
  _atom_site_fract_y
  _atom_site_fract_z
  _atom_site_thermal_displace_type
  _atom_site_B_iso_or_equiv
  _atom_site_type_symbol
  Cu1      1.0000 0.42959  0.53438  0.06455  Biso   1.000  Cu
  Cu2      1.0000 0.07041  0.46562  0.56455  Biso   1.000  Cu
  Cu3      1.0000 0.21562  0.67959  0.31455  Biso   1.000  Cu
  Cu4      1.0000 0.28438  0.32041  0.81455  Biso   1.000  Cu
  Cu5      1.0000 0.92959  0.03438  0.56455  Biso   1.000  Cu
  Cu6      1.0000 0.57041  0.96562  0.06455  Biso   1.000  Cu
  Cu7      1.0000 0.71562  0.17959  0.81455  Biso   1.000  Cu
  Cu8      1.0000 0.78438  0.82041  0.31455  Biso   1.000  Cu
  Cu9      1.0000 0.57041  0.46562  0.93545  Biso   1.000  Cu
  Cu10     1.0000 0.92959  0.53438  0.43545  Biso   1.000  Cu
  Cu11     1.0000 0.28438  0.82041  0.18545  Biso   1.000  Cu
  Cu12     1.0000 0.21562  0.17959  0.68545  Biso   1.000  Cu
  Cu13     1.0000 0.07041  0.96562  0.43545  Biso   1.000  Cu
  Cu14     1.0000 0.42959  0.03438  0.93545  Biso   1.000  Cu
  Cu15     1.0000 0.78438  0.32041  0.68545  Biso   1.000  Cu
  Cu16     1.0000 0.71562  0.67959  0.18545  Biso   1.000  Cu
  C1       1.0000 0.36870  0.64490  0.80770  Biso   1.000  C
  C2       1.0000 0.13130  0.35510  0.30770  Biso   1.000  C
  C3       1.0000 0.10510  0.61870  0.05770  Biso   1.000  C
  C4       1.0000 0.39490  0.38130  0.55770  Biso   1.000  C
  C5       1.0000 0.86870  0.14490  0.30770  Biso   1.000  C
  C6       1.0000 0.63130  0.85510  0.80770  Biso   1.000  C
  C7       1.0000 0.60510  0.11870  0.55770  Biso   1.000  C
  C8       1.0000 0.89490  0.88130  0.05770  Biso   1.000  C
  C9       1.0000 0.63130  0.35510  0.19230  Biso   1.000  C
  C10      1.0000 0.86870  0.64490  0.69230  Biso   1.000  C
  C11      1.0000 0.39490  0.88130  0.44230  Biso   1.000  C
  C12      1.0000 0.10510  0.11870  0.94230  Biso   1.000  C
  C13      1.0000 0.13130  0.85510  0.69230  Biso   1.000  C
  C14      1.0000 0.36870  0.14490  0.19230  Biso   1.000  C
  C15      1.0000 0.89490  0.38130  0.94230  Biso   1.000  C
  C16      1.0000 0.60510  0.61870  0.44230  Biso   1.000  C
  H1       1.0000 0.32360  0.61800  0.82400  Biso   1.000  H
  H2       1.0000 0.17640  0.38200  0.32400  Biso   1.000  H
  H3       1.0000 0.13200  0.57360  0.07400  Biso   1.000  H
  H4       1.0000 0.36800  0.42640  0.57400  Biso   1.000  H
  H5       1.0000 0.82360  0.11800  0.32400  Biso   1.000  H
  H6       1.0000 0.67640  0.88200  0.82400  Biso   1.000  H
  H7       1.0000 0.63200  0.07360  0.57400  Biso   1.000  H
  H8       1.0000 0.86800  0.92640  0.07400  Biso   1.000  H
  H9       1.0000 0.67640  0.38200  0.17600  Biso   1.000  H
  H10      1.0000 0.82360  0.61800  0.67600  Biso   1.000  H
  H11      1.0000 0.36800  0.92640  0.42600  Biso   1.000  H
  H12      1.0000 0.13200  0.07360  0.92600  Biso   1.000  H
  H13      1.0000 0.17640  0.88200  0.67600  Biso   1.000  H
  H14      1.0000 0.32360  0.11800  0.17600  Biso   1.000  H
  H15      1.0000 0.86800  0.42640  0.92600  Biso   1.000  H
  H16      1.0000 0.63200  0.57360  0.42600  Biso   1.000  H
  H17      1.0000 0.40890  0.60930  0.79760  Biso   1.000  H
  H18      1.0000 0.09110  0.39070  0.29760  Biso   1.000  H
  H19      1.0000 0.14070  0.65890  0.04760  Biso   1.000  H
  H20      1.0000 0.35930  0.34110  0.54760  Biso   1.000  H
  H21      1.0000 0.90890  0.10930  0.29760  Biso   1.000  H
  H22      1.0000 0.59110  0.89070  0.79760  Biso   1.000  H
  H23      1.0000 0.64070  0.15890  0.54760  Biso   1.000  H
  H24      1.0000 0.85930  0.84110  0.04760  Biso   1.000  H
  H25      1.0000 0.59110  0.39070  0.20240  Biso   1.000  H
  H26      1.0000 0.90890  0.60930  0.70240  Biso   1.000  H
  H27      1.0000 0.35930  0.84110  0.45240  Biso   1.000  H
  H28      1.0000 0.14070  0.15890  0.95240  Biso   1.000  H
  H29      1.0000 0.09110  0.89070  0.70240  Biso   1.000  H
  H30      1.0000 0.40890  0.10930  0.20240  Biso   1.000  H
  H31      1.0000 0.85930  0.34110  0.95240  Biso   1.000  H
  H32      1.0000 0.64070  0.65890  0.45240  Biso   1.000  H
  H33      1.0000 0.35900  0.67330  0.75720  Biso   1.000  H
  H34      1.0000 0.14100  0.32670  0.25720  Biso   1.000  H
  H35      1.0000 0.07670  0.60900  0.00720  Biso   1.000  H
  H36      1.0000 0.42330  0.39100  0.50720  Biso   1.000  H
  H37      1.0000 0.85900  0.17330  0.25720  Biso   1.000  H
  H38      1.0000 0.64100  0.82670  0.75720  Biso   1.000  H
  H39      1.0000 0.57670  0.10900  0.50720  Biso   1.000  H
  H40      1.0000 0.92330  0.89100  0.00720  Biso   1.000  H
  H41      1.0000 0.64100  0.32670  0.24280  Biso   1.000  H
  H42      1.0000 0.85900  0.67330  0.74280  Biso   1.000  H
  H43      1.0000 0.42330  0.89100  0.49280  Biso   1.000  H
  H44      1.0000 0.07670  0.10900  0.99280  Biso   1.000  H
  H45      1.0000 0.14100  0.82670  0.74280  Biso   1.000  H
  H46      1.0000 0.35900  0.17330  0.24280  Biso   1.000  H
  H47      1.0000 0.92330  0.39100  0.99280  Biso   1.000  H
  H48      1.0000 0.57670  0.60900  0.49280  Biso   1.000  H
  C17      1.0000 0.39060  0.69600  0.87440  Biso   1.000  C
  C18      1.0000 0.10940  0.30400  0.37440  Biso   1.000  C
  C19      1.0000 0.05400  0.64060  0.12440  Biso   1.000  C
  C20      1.0000 0.44600  0.35940  0.62440  Biso   1.000  C
  C21      1.0000 0.89060  0.19600  0.37440  Biso   1.000  C
  C22      1.0000 0.60940  0.80400  0.87440  Biso   1.000  C
  C23      1.0000 0.55400  0.14060  0.62440  Biso   1.000  C
  C24      1.0000 0.94600  0.85940  0.12440  Biso   1.000  C
  C25      1.0000 0.60940  0.30400  0.12560  Biso   1.000  C
  C26      1.0000 0.89060  0.69600  0.62560  Biso   1.000  C
  C27      1.0000 0.44600  0.85940  0.37560  Biso   1.000  C
  C28      1.0000 0.05400  0.14060  0.87560  Biso   1.000  C
  C29      1.0000 0.10940  0.80400  0.62560  Biso   1.000  C
  C30      1.0000 0.39060  0.19600  0.12560  Biso   1.000  C
  C31      1.0000 0.94600  0.35940  0.87560  Biso   1.000  C
  C32      1.0000 0.55400  0.64060  0.37560  Biso   1.000  C
  H49      1.0000 0.44460  0.69130  0.88520  Biso   1.000  H
  H50      1.0000 0.05540  0.30870  0.38520  Biso   1.000  H
  H51      1.0000 0.05870  0.69460  0.13520  Biso   1.000  H
  H52      1.0000 0.44130  0.30540  0.63520  Biso   1.000  H
  H53      1.0000 0.94460  0.19130  0.38520  Biso   1.000  H
  H54      1.0000 0.55540  0.80870  0.88520  Biso   1.000  H
  H55      1.0000 0.55870  0.19460  0.63520  Biso   1.000  H
  H56      1.0000 0.94130  0.80540  0.13520  Biso   1.000  H
  H57      1.0000 0.55540  0.30870  0.11480  Biso   1.000  H
  H58      1.0000 0.94460  0.69130  0.61480  Biso   1.000  H
  H59      1.0000 0.44130  0.80540  0.36480  Biso   1.000  H
  H60      1.0000 0.05870  0.19460  0.86480  Biso   1.000  H
  H61      1.0000 0.05540  0.80870  0.61480  Biso   1.000  H
  H62      1.0000 0.44460  0.19130  0.11480  Biso   1.000  H
  H63      1.0000 0.94130  0.30540  0.86480  Biso   1.000  H
  H64      1.0000 0.55870  0.69460  0.36480  Biso   1.000  H
  H65      1.0000 0.38040  0.74790  0.85750  Biso   1.000  H
  H66      1.0000 0.11960  0.25210  0.35750  Biso   1.000  H
  H67      1.0000 0.00210  0.63040  0.10750  Biso   1.000  H
  H68      1.0000 0.49790  0.36960  0.60750  Biso   1.000  H
  H69      1.0000 0.88040  0.24790  0.35750  Biso   1.000  H
  H70      1.0000 0.61960  0.75210  0.85750  Biso   1.000  H
  H71      1.0000 0.50210  0.13040  0.60750  Biso   1.000  H
  H72      1.0000 0.99790  0.86960  0.10750  Biso   1.000  H
  H73      1.0000 0.61960  0.25210  0.14250  Biso   1.000  H
  H74      1.0000 0.88040  0.74790  0.64250  Biso   1.000  H
  H75      1.0000 0.49790  0.86960  0.39250  Biso   1.000  H
  H76      1.0000 0.00210  0.13040  0.89250  Biso   1.000  H
  H77      1.0000 0.11960  0.75210  0.64250  Biso   1.000  H
  H78      1.0000 0.38040  0.24790  0.14250  Biso   1.000  H
  H79      1.0000 0.99790  0.36960  0.89250  Biso   1.000  H
  H80      1.0000 0.50210  0.63040  0.39250  Biso   1.000  H
  C33      1.0000 0.34920  0.67860  0.94920  Biso   1.000  C
  C34      1.0000 0.15080  0.32140  0.44920  Biso   1.000  C
  C35      1.0000 0.07140  0.59920  0.19920  Biso   1.000  C
  C36      1.0000 0.42860  0.40080  0.69920  Biso   1.000  C
  C37      1.0000 0.84920  0.17860  0.44920  Biso   1.000  C
  C38      1.0000 0.65080  0.82140  0.94920  Biso   1.000  C
  C39      1.0000 0.57140  0.09920  0.69920  Biso   1.000  C
  C40      1.0000 0.92860  0.90080  0.19920  Biso   1.000  C
  C41      1.0000 0.65080  0.32140  0.05080  Biso   1.000  C
  C42      1.0000 0.84920  0.67860  0.55080  Biso   1.000  C
  C43      1.0000 0.42860  0.90080  0.30080  Biso   1.000  C
  C44      1.0000 0.07140  0.09920  0.80080  Biso   1.000  C
  C45      1.0000 0.15080  0.82140  0.55080  Biso   1.000  C
  C46      1.0000 0.34920  0.17860  0.05080  Biso   1.000  C
  C47      1.0000 0.92860  0.40080  0.80080  Biso   1.000  C
  C48      1.0000 0.57140  0.59920  0.30080  Biso   1.000  C
  H81      1.0000 0.34520  0.62390  0.95430  Biso   1.000  H
  H82      1.0000 0.15480  0.37610  0.45430  Biso   1.000  H
  H83      1.0000 0.12610  0.59520  0.20430  Biso   1.000  H
  H84      1.0000 0.37390  0.40480  0.70430  Biso   1.000  H
  H85      1.0000 0.84520  0.12390  0.45430  Biso   1.000  H
  H86      1.0000 0.65480  0.87610  0.95430  Biso   1.000  H
  H87      1.0000 0.62610  0.09520  0.70430  Biso   1.000  H
  H88      1.0000 0.87390  0.90480  0.20430  Biso   1.000  H
  H89      1.0000 0.65480  0.37610  0.04570  Biso   1.000  H
  H90      1.0000 0.84520  0.62390  0.54570  Biso   1.000  H
  H91      1.0000 0.37390  0.90480  0.29570  Biso   1.000  H
  H92      1.0000 0.12610  0.09520  0.79570  Biso   1.000  H
  H93      1.0000 0.15480  0.87610  0.54570  Biso   1.000  H
  H94      1.0000 0.34520  0.12390  0.04570  Biso   1.000  H
  H95      1.0000 0.87390  0.40480  0.79570  Biso   1.000  H
  H96      1.0000 0.62610  0.59520  0.29570  Biso   1.000  H
  H97      1.0000 0.29820  0.69860  0.94360  Biso   1.000  H
  H98      1.0000 0.20180  0.30140  0.44360  Biso   1.000  H
  H99      1.0000 0.05140  0.54820  0.19360  Biso   1.000  H
  H100     1.0000 0.44860  0.45180  0.69360  Biso   1.000  H
  H101     1.0000 0.79820  0.19860  0.44360  Biso   1.000  H
  H102     1.0000 0.70180  0.80140  0.94360  Biso   1.000  H
  H103     1.0000 0.55140  0.04820  0.69360  Biso   1.000  H
  H104     1.0000 0.94860  0.95180  0.19360  Biso   1.000  H
  H105     1.0000 0.70180  0.30140  0.05640  Biso   1.000  H
  H106     1.0000 0.79820  0.69860  0.55640  Biso   1.000  H
  H107     1.0000 0.44860  0.95180  0.30640  Biso   1.000  H
  H108     1.0000 0.05140  0.04820  0.80640  Biso   1.000  H
  H109     1.0000 0.20180  0.80140  0.55640  Biso   1.000  H
  H110     1.0000 0.29820  0.19860  0.05640  Biso   1.000  H
  H111     1.0000 0.94860  0.45180  0.80640  Biso   1.000  H
  H112     1.0000 0.55140  0.54820  0.30640  Biso   1.000  H
  C49      1.0000 0.38590  0.71150  0.03440  Biso   1.000  C
  C50      1.0000 0.11410  0.28850  0.53440  Biso   1.000  C
  C51      1.0000 0.03850  0.63590  0.28440  Biso   1.000  C
  C52      1.0000 0.46150  0.36410  0.78440  Biso   1.000  C
  C53      1.0000 0.88590  0.21150  0.53440  Biso   1.000  C
  C54      1.0000 0.61410  0.78850  0.03440  Biso   1.000  C
  C55      1.0000 0.53850  0.13590  0.78440  Biso   1.000  C
  C56      1.0000 0.96150  0.86410  0.28440  Biso   1.000  C
  C57      1.0000 0.61410  0.28850  0.96560  Biso   1.000  C
  C58      1.0000 0.88590  0.71150  0.46560  Biso   1.000  C
  C59      1.0000 0.46150  0.86410  0.21560  Biso   1.000  C
  C60      1.0000 0.03850  0.13590  0.71560  Biso   1.000  C
  C61      1.0000 0.11410  0.78850  0.46560  Biso   1.000  C
  C62      1.0000 0.38590  0.21150  0.96560  Biso   1.000  C
  C63      1.0000 0.96150  0.36410  0.71560  Biso   1.000  C
  C64      1.0000 0.53850  0.63590  0.21560  Biso   1.000  C
  H113     1.0000 0.44010  0.70190  0.03450  Biso   1.000  H
  H114     1.0000 0.05990  0.29810  0.53450  Biso   1.000  H
  H115     1.0000 0.04810  0.69010  0.28450  Biso   1.000  H
  H116     1.0000 0.45190  0.30990  0.78450  Biso   1.000  H
  H117     1.0000 0.94010  0.20190  0.53450  Biso   1.000  H
  H118     1.0000 0.55990  0.79810  0.03450  Biso   1.000  H
  H119     1.0000 0.54810  0.19010  0.78450  Biso   1.000  H
  H120     1.0000 0.95190  0.80990  0.28450  Biso   1.000  H
  H121     1.0000 0.55990  0.29810  0.96550  Biso   1.000  H
  H122     1.0000 0.94010  0.70190  0.46550  Biso   1.000  H
  H123     1.0000 0.45190  0.80990  0.21550  Biso   1.000  H
  H124     1.0000 0.04810  0.19010  0.71550  Biso   1.000  H
  H125     1.0000 0.05990  0.79810  0.46550  Biso   1.000  H
  H126     1.0000 0.44010  0.20190  0.96550  Biso   1.000  H
  H127     1.0000 0.95190  0.30990  0.71550  Biso   1.000  H
  H128     1.0000 0.54810  0.69010  0.21550  Biso   1.000  H
  H129     1.0000 0.37820  0.76600  0.03680  Biso   1.000  H
  H130     1.0000 0.12180  0.23400  0.53680  Biso   1.000  H
  H131     1.0000 0.98400  0.62820  0.28680  Biso   1.000  H
  H132     1.0000 0.51600  0.37180  0.78680  Biso   1.000  H
  H133     1.0000 0.87820  0.26600  0.53680  Biso   1.000  H
  H134     1.0000 0.62180  0.73400  0.03680  Biso   1.000  H
  H135     1.0000 0.48400  0.12820  0.78680  Biso   1.000  H
  H136     1.0000 0.01600  0.87180  0.28680  Biso   1.000  H
  H137     1.0000 0.62180  0.23400  0.96320  Biso   1.000  H
  H138     1.0000 0.87820  0.76600  0.46320  Biso   1.000  H
  H139     1.0000 0.51600  0.87180  0.21320  Biso   1.000  H
  H140     1.0000 0.98400  0.12820  0.71320  Biso   1.000  H
  H141     1.0000 0.12180  0.73400  0.46320  Biso   1.000  H
  H142     1.0000 0.37820  0.26600  0.96320  Biso   1.000  H
  H143     1.0000 0.01600  0.37180  0.71320  Biso   1.000  H
  H144     1.0000 0.48400  0.62820  0.21320  Biso   1.000  H
  C65      1.0000 0.35070  0.67550  0.10930  Biso   1.000  C
  C66      1.0000 0.14930  0.32450  0.60930  Biso   1.000  C
  C67      1.0000 0.07450  0.60070  0.35930  Biso   1.000  C
  C68      1.0000 0.42550  0.39930  0.85930  Biso   1.000  C
  C69      1.0000 0.85070  0.17550  0.60930  Biso   1.000  C
  C70      1.0000 0.64930  0.82450  0.10930  Biso   1.000  C
  C71      1.0000 0.57450  0.10070  0.85930  Biso   1.000  C
  C72      1.0000 0.92550  0.89930  0.35930  Biso   1.000  C
  C73      1.0000 0.64930  0.32450  0.89070  Biso   1.000  C
  C74      1.0000 0.85070  0.67550  0.39070  Biso   1.000  C
  C75      1.0000 0.42550  0.89930  0.14070  Biso   1.000  C
  C76      1.0000 0.07450  0.10070  0.64070  Biso   1.000  C
  C77      1.0000 0.14930  0.82450  0.39070  Biso   1.000  C
  C78      1.0000 0.35070  0.17550  0.89070  Biso   1.000  C
  C79      1.0000 0.92550  0.39930  0.64070  Biso   1.000  C
  C80      1.0000 0.57450  0.60070  0.14070  Biso   1.000  C
  C81      1.0000 0.31570  0.59160  0.19690  Biso   1.000  C
  C82      1.0000 0.18430  0.40840  0.69690  Biso   1.000  C
  C83      1.0000 0.15840  0.56570  0.44690  Biso   1.000  C
  C84      1.0000 0.34160  0.43430  0.94690  Biso   1.000  C
  C85      1.0000 0.81570  0.09160  0.69690  Biso   1.000  C
  C86      1.0000 0.68430  0.90840  0.19690  Biso   1.000  C
  C87      1.0000 0.65840  0.06570  0.94690  Biso   1.000  C
  C88      1.0000 0.84160  0.93430  0.44690  Biso   1.000  C
  C89      1.0000 0.68430  0.40840  0.80310  Biso   1.000  C
  C90      1.0000 0.81570  0.59160  0.30310  Biso   1.000  C
  C91      1.0000 0.34160  0.93430  0.05310  Biso   1.000  C
  C92      1.0000 0.15840  0.06570  0.55310  Biso   1.000  C
  C93      1.0000 0.18430  0.90840  0.30310  Biso   1.000  C
  C94      1.0000 0.31570  0.09160  0.80310  Biso   1.000  C
  C95      1.0000 0.84160  0.43430  0.55310  Biso   1.000  C
  C96      1.0000 0.65840  0.56570  0.05310  Biso   1.000  C
  C97      1.0000 0.30390  0.51710  0.23970  Biso   1.000  C
  C98      1.0000 0.19610  0.48290  0.73970  Biso   1.000  C
  C99      1.0000 0.23290  0.55390  0.48970  Biso   1.000  C
  C100     1.0000 0.26710  0.44610  0.98970  Biso   1.000  C
  C101     1.0000 0.80390  0.01710  0.73970  Biso   1.000  C
  C102     1.0000 0.69610  0.98290  0.23970  Biso   1.000  C
  C103     1.0000 0.73290  0.05390  0.98970  Biso   1.000  C
  C104     1.0000 0.76710  0.94610  0.48970  Biso   1.000  C
  C105     1.0000 0.69610  0.48290  0.76030  Biso   1.000  C
  C106     1.0000 0.80390  0.51710  0.26030  Biso   1.000  C
  C107     1.0000 0.26710  0.94610  0.01030  Biso   1.000  C
  C108     1.0000 0.23290  0.05390  0.51030  Biso   1.000  C
  C109     1.0000 0.19610  0.98290  0.26030  Biso   1.000  C
  C110     1.0000 0.30390  0.01710  0.76030  Biso   1.000  C
  C111     1.0000 0.76710  0.44610  0.51030  Biso   1.000  C
  C112     1.0000 0.73290  0.55390  0.01030  Biso   1.000  C
  H145     1.0000 0.27130  0.52460  0.28830  Biso   1.000  H
  H146     1.0000 0.22870  0.47540  0.78830  Biso   1.000  H
  H147     1.0000 0.22540  0.52130  0.53830  Biso   1.000  H
  H148     1.0000 0.27460  0.47870  0.03830  Biso   1.000  H
  H149     1.0000 0.77130  0.02460  0.78830  Biso   1.000  H
  H150     1.0000 0.72870  0.97540  0.28830  Biso   1.000  H
  H151     1.0000 0.72540  0.02130  0.03830  Biso   1.000  H
  H152     1.0000 0.77460  0.97870  0.53830  Biso   1.000  H
  H153     1.0000 0.72870  0.47540  0.71170  Biso   1.000  H
  H154     1.0000 0.77130  0.52460  0.21170  Biso   1.000  H
  H155     1.0000 0.27460  0.97870  0.96170  Biso   1.000  H
  H156     1.0000 0.22540  0.02130  0.46170  Biso   1.000  H
  H157     1.0000 0.22870  0.97540  0.21170  Biso   1.000  H
  H158     1.0000 0.27130  0.02460  0.71170  Biso   1.000  H
  H159     1.0000 0.77460  0.47870  0.46170  Biso   1.000  H
  H160     1.0000 0.72540  0.52130  0.96170  Biso   1.000  H
  H161     1.0000 0.27790  0.48310  0.20120  Biso   1.000  H
  H162     1.0000 0.22210  0.51690  0.70120  Biso   1.000  H
  H163     1.0000 0.26690  0.52790  0.45120  Biso   1.000  H
  H164     1.0000 0.23310  0.47210  0.95120  Biso   1.000  H
  H165     1.0000 0.77790  0.98310  0.70120  Biso   1.000  H
  H166     1.0000 0.72210  0.01690  0.20120  Biso   1.000  H
  H167     1.0000 0.76690  0.02790  0.95120  Biso   1.000  H
  H168     1.0000 0.73310  0.97210  0.45120  Biso   1.000  H
  H169     1.0000 0.72210  0.51690  0.79880  Biso   1.000  H
  H170     1.0000 0.77790  0.48310  0.29880  Biso   1.000  H
  H171     1.0000 0.23310  0.97210  0.04880  Biso   1.000  H
  H172     1.0000 0.26690  0.02790  0.54880  Biso   1.000  H
  H173     1.0000 0.22210  0.01690  0.29880  Biso   1.000  H
  H174     1.0000 0.27790  0.98310  0.79880  Biso   1.000  H
  H175     1.0000 0.73310  0.47210  0.54880  Biso   1.000  H
  H176     1.0000 0.76690  0.52790  0.04880  Biso   1.000  H
  C113     1.0000 0.37520  0.48090  0.26770  Biso   1.000  C
  C114     1.0000 0.12480  0.51910  0.76770  Biso   1.000  C
  C115     1.0000 0.26910  0.62520  0.51770  Biso   1.000  C
  C116     1.0000 0.23090  0.37480  0.01770  Biso   1.000  C
  C117     1.0000 0.87520  0.98090  0.76770  Biso   1.000  C
  C118     1.0000 0.62480  0.01910  0.26770  Biso   1.000  C
  C119     1.0000 0.76910  0.12520  0.01770  Biso   1.000  C
  C120     1.0000 0.73090  0.87480  0.51770  Biso   1.000  C
  C121     1.0000 0.62480  0.51910  0.73230  Biso   1.000  C
  C122     1.0000 0.87520  0.48090  0.23230  Biso   1.000  C
  C123     1.0000 0.23090  0.87480  0.98230  Biso   1.000  C
  C124     1.0000 0.26910  0.12520  0.48230  Biso   1.000  C
  C125     1.0000 0.12480  0.01910  0.23230  Biso   1.000  C
  C126     1.0000 0.37520  0.98090  0.73230  Biso   1.000  C
  C127     1.0000 0.73090  0.37480  0.48230  Biso   1.000  C
  C128     1.0000 0.76910  0.62520  0.98230  Biso   1.000  C
  H177     1.0000 0.39820  0.51230  0.31090  Biso   1.000  H
  H178     1.0000 0.10180  0.48770  0.81090  Biso   1.000  H
  H179     1.0000 0.23770  0.64820  0.56090  Biso   1.000  H
  H180     1.0000 0.26230  0.35180  0.06090  Biso   1.000  H
  H181     1.0000 0.89820  0.01230  0.81090  Biso   1.000  H
  H182     1.0000 0.60180  0.98770  0.31090  Biso   1.000  H
  H183     1.0000 0.73770  0.14820  0.06090  Biso   1.000  H
  H184     1.0000 0.76230  0.85180  0.56090  Biso   1.000  H
  H185     1.0000 0.60180  0.48770  0.68910  Biso   1.000  H
  H186     1.0000 0.89820  0.51230  0.18910  Biso   1.000  H
  H187     1.0000 0.26230  0.85180  0.93910  Biso   1.000  H
  H188     1.0000 0.23770  0.14820  0.43910  Biso   1.000  H
  H189     1.0000 0.10180  0.98770  0.18910  Biso   1.000  H
  H190     1.0000 0.39820  0.01230  0.68910  Biso   1.000  H
  H191     1.0000 0.76230  0.35180  0.43910  Biso   1.000  H
  H192     1.0000 0.73770  0.64820  0.93910  Biso   1.000  H
  H193     1.0000 0.41000  0.47900  0.22030  Biso   1.000  H
  H194     1.0000 0.09000  0.52100  0.72030  Biso   1.000  H
  H195     1.0000 0.27100  0.66000  0.47030  Biso   1.000  H
  H196     1.0000 0.22900  0.34000  0.97030  Biso   1.000  H
  H197     1.0000 0.91000  0.97900  0.72030  Biso   1.000  H
  H198     1.0000 0.59000  0.02100  0.22030  Biso   1.000  H
  H199     1.0000 0.77100  0.16000  0.97030  Biso   1.000  H
  H200     1.0000 0.72900  0.84000  0.47030  Biso   1.000  H
  H201     1.0000 0.59000  0.52100  0.77970  Biso   1.000  H
  H202     1.0000 0.91000  0.47900  0.27970  Biso   1.000  H
  H203     1.0000 0.22900  0.84000  0.02970  Biso   1.000  H
  H204     1.0000 0.27100  0.16000  0.52970  Biso   1.000  H
  H205     1.0000 0.09000  0.02100  0.27970  Biso   1.000  H
  H206     1.0000 0.41000  0.97900  0.77970  Biso   1.000  H
  H207     1.0000 0.72900  0.34000  0.52970  Biso   1.000  H
  H208     1.0000 0.77100  0.66000  0.02970  Biso   1.000  H
  C129     1.0000 0.36550  0.40090  0.30260  Biso   1.000  C
  C130     1.0000 0.13450  0.59910  0.80260  Biso   1.000  C
  C131     1.0000 0.34910  0.61550  0.55260  Biso   1.000  C
  C132     1.0000 0.15090  0.38450  0.05260  Biso   1.000  C
  C133     1.0000 0.86550  0.90090  0.80260  Biso   1.000  C
  C134     1.0000 0.63450  0.09910  0.30260  Biso   1.000  C
  C135     1.0000 0.84910  0.11550  0.05260  Biso   1.000  C
  C136     1.0000 0.65090  0.88450  0.55260  Biso   1.000  C
  C137     1.0000 0.63450  0.59910  0.69740  Biso   1.000  C
  C138     1.0000 0.86550  0.40090  0.19740  Biso   1.000  C
  C139     1.0000 0.15090  0.88450  0.94740  Biso   1.000  C
  C140     1.0000 0.34910  0.11550  0.44740  Biso   1.000  C
  C141     1.0000 0.13450  0.09910  0.19740  Biso   1.000  C
  C142     1.0000 0.36550  0.90090  0.69740  Biso   1.000  C
  C143     1.0000 0.65090  0.38450  0.44740  Biso   1.000  C
  C144     1.0000 0.84910  0.61550  0.94740  Biso   1.000  C
  H209     1.0000 0.34050  0.40410  0.35700  Biso   1.000  H
  H210     1.0000 0.15950  0.59590  0.85700  Biso   1.000  H
  H211     1.0000 0.34590  0.59050  0.60700  Biso   1.000  H
  H212     1.0000 0.15410  0.40950  0.10700  Biso   1.000  H
  H213     1.0000 0.84050  0.90410  0.85700  Biso   1.000  H
  H214     1.0000 0.65950  0.09590  0.35700  Biso   1.000  H
  H215     1.0000 0.84590  0.09050  0.10700  Biso   1.000  H
  H216     1.0000 0.65410  0.90950  0.60700  Biso   1.000  H
  H217     1.0000 0.65950  0.59590  0.64300  Biso   1.000  H
  H218     1.0000 0.84050  0.40410  0.14300  Biso   1.000  H
  H219     1.0000 0.15410  0.90950  0.89300  Biso   1.000  H
  H220     1.0000 0.34590  0.09050  0.39300  Biso   1.000  H
  H221     1.0000 0.15950  0.09590  0.14300  Biso   1.000  H
  H222     1.0000 0.34050  0.90410  0.64300  Biso   1.000  H
  H223     1.0000 0.65410  0.40950  0.39300  Biso   1.000  H
  H224     1.0000 0.84590  0.59050  0.89300  Biso   1.000  H
  H225     1.0000 0.33250  0.37260  0.26500  Biso   1.000  H
  H226     1.0000 0.16750  0.62740  0.76500  Biso   1.000  H
  H227     1.0000 0.37740  0.58250  0.51500  Biso   1.000  H
  H228     1.0000 0.12260  0.41750  0.01500  Biso   1.000  H
  H229     1.0000 0.83250  0.87260  0.76500  Biso   1.000  H
  H230     1.0000 0.66750  0.12740  0.26500  Biso   1.000  H
  H231     1.0000 0.87740  0.08250  0.01500  Biso   1.000  H
  H232     1.0000 0.62260  0.91750  0.51500  Biso   1.000  H
  H233     1.0000 0.66750  0.62740  0.73500  Biso   1.000  H
  H234     1.0000 0.83250  0.37260  0.23500  Biso   1.000  H
  H235     1.0000 0.12260  0.91750  0.98500  Biso   1.000  H
  H236     1.0000 0.37740  0.08250  0.48500  Biso   1.000  H
  H237     1.0000 0.16750  0.12740  0.23500  Biso   1.000  H
  H238     1.0000 0.33250  0.87260  0.73500  Biso   1.000  H
  H239     1.0000 0.62260  0.41750  0.48500  Biso   1.000  H
  H240     1.0000 0.87740  0.58250  0.98500  Biso   1.000  H
  C145     1.0000 0.42900  0.36310  0.31200  Biso   1.000  C
  C146     1.0000 0.07100  0.63690  0.81200  Biso   1.000  C
  C147     1.0000 0.38690  0.67900  0.56200  Biso   1.000  C
  C148     1.0000 0.11310  0.32100  0.06200  Biso   1.000  C
  C149     1.0000 0.92900  0.86310  0.81200  Biso   1.000  C
  C150     1.0000 0.57100  0.13690  0.31200  Biso   1.000  C
  C151     1.0000 0.88690  0.17900  0.06200  Biso   1.000  C
  C152     1.0000 0.61310  0.82100  0.56200  Biso   1.000  C
  C153     1.0000 0.57100  0.63690  0.68800  Biso   1.000  C
  C154     1.0000 0.92900  0.36310  0.18800  Biso   1.000  C
  C155     1.0000 0.11310  0.82100  0.93800  Biso   1.000  C
  C156     1.0000 0.38690  0.17900  0.43800  Biso   1.000  C
  C157     1.0000 0.07100  0.13690  0.18800  Biso   1.000  C
  C158     1.0000 0.42900  0.86310  0.68800  Biso   1.000  C
  C159     1.0000 0.61310  0.32100  0.43800  Biso   1.000  C
  C160     1.0000 0.88690  0.67900  0.93800  Biso   1.000  C
  H241     1.0000 0.46070  0.37120  0.26320  Biso   1.000  H
  H242     1.0000 0.03930  0.62880  0.76320  Biso   1.000  H
  H243     1.0000 0.37880  0.71070  0.51320  Biso   1.000  H
  H244     1.0000 0.12120  0.28930  0.01320  Biso   1.000  H
  H245     1.0000 0.96070  0.87120  0.76320  Biso   1.000  H
  H246     1.0000 0.53930  0.12880  0.26320  Biso   1.000  H
  H247     1.0000 0.87880  0.21070  0.01320  Biso   1.000  H
  H248     1.0000 0.62120  0.78930  0.51320  Biso   1.000  H
  H249     1.0000 0.53930  0.62880  0.73680  Biso   1.000  H
  H250     1.0000 0.96070  0.37120  0.23680  Biso   1.000  H
  H251     1.0000 0.12120  0.78930  0.98680  Biso   1.000  H
  H252     1.0000 0.37880  0.21070  0.48680  Biso   1.000  H
  H253     1.0000 0.03930  0.12880  0.23680  Biso   1.000  H
  H254     1.0000 0.46070  0.87120  0.73680  Biso   1.000  H
  H255     1.0000 0.62120  0.28930  0.48680  Biso   1.000  H
  H256     1.0000 0.87880  0.71070  0.98680  Biso   1.000  H
  H257     1.0000 0.41800  0.31000  0.31720  Biso   1.000  H
  H258     1.0000 0.08200  0.69000  0.81720  Biso   1.000  H
  H259     1.0000 0.44000  0.66800  0.56720  Biso   1.000  H
  H260     1.0000 0.06000  0.33200  0.06720  Biso   1.000  H
  H261     1.0000 0.91800  0.81000  0.81720  Biso   1.000  H
  H262     1.0000 0.58200  0.19000  0.31720  Biso   1.000  H
  H263     1.0000 0.94000  0.16800  0.06720  Biso   1.000  H
  H264     1.0000 0.56000  0.83200  0.56720  Biso   1.000  H
  H265     1.0000 0.58200  0.69000  0.68280  Biso   1.000  H
  H266     1.0000 0.91800  0.31000  0.18280  Biso   1.000  H
  H267     1.0000 0.06000  0.83200  0.93280  Biso   1.000  H
  H268     1.0000 0.44000  0.16800  0.43280  Biso   1.000  H
  H269     1.0000 0.08200  0.19000  0.18280  Biso   1.000  H
  H270     1.0000 0.41800  0.81000  0.68280  Biso   1.000  H
  H271     1.0000 0.56000  0.33200  0.43280  Biso   1.000  H
  H272     1.0000 0.94000  0.66800  0.93280  Biso   1.000  H
  H273     1.0000 0.45490  0.38060  0.36140  Biso   1.000  H
  H274     1.0000 0.04510  0.61940  0.86140  Biso   1.000  H
  H275     1.0000 0.36940  0.70490  0.61140  Biso   1.000  H
  H276     1.0000 0.13060  0.29510  0.11140  Biso   1.000  H
  H277     1.0000 0.95490  0.88060  0.86140  Biso   1.000  H
  H278     1.0000 0.54510  0.11940  0.36140  Biso   1.000  H
  H279     1.0000 0.86940  0.20490  0.11140  Biso   1.000  H
  H280     1.0000 0.63060  0.79510  0.61140  Biso   1.000  H
  H281     1.0000 0.54510  0.61940  0.63860  Biso   1.000  H
  H282     1.0000 0.95490  0.38060  0.13860  Biso   1.000  H
  H283     1.0000 0.13060  0.79510  0.88860  Biso   1.000  H
  H284     1.0000 0.36940  0.20490  0.38860  Biso   1.000  H
  H285     1.0000 0.04510  0.11940  0.13860  Biso   1.000  H
  H286     1.0000 0.45490  0.88060  0.63860  Biso   1.000  H
  H287     1.0000 0.63060  0.29510  0.38860  Biso   1.000  H
  H288     1.0000 0.86940  0.70490  0.88860  Biso   1.000  H
  N1       1.0000 0.35705  0.60087  0.12600  Biso   1.000  N
  N2       1.0000 0.14295  0.39913  0.62600  Biso   1.000  N
  N3       1.0000 0.14913  0.60705  0.37600  Biso   1.000  N
  N4       1.0000 0.35087  0.39295  0.87600  Biso   1.000  N
  N5       1.0000 0.85705  0.10087  0.62600  Biso   1.000  N
  N6       1.0000 0.64295  0.89913  0.12600  Biso   1.000  N
  N7       1.0000 0.64913  0.10705  0.87600  Biso   1.000  N
  N8       1.0000 0.85087  0.89295  0.37600  Biso   1.000  N
  N9       1.0000 0.64295  0.39913  0.87400  Biso   1.000  N
  N10      1.0000 0.85705  0.60087  0.37400  Biso   1.000  N
  N11      1.0000 0.35087  0.89295  0.12400  Biso   1.000  N
  N12      1.0000 0.14913  0.10705  0.62400  Biso   1.000  N
  N13      1.0000 0.14295  0.89913  0.37400  Biso   1.000  N
  N14      1.0000 0.35705  0.10087  0.87400  Biso   1.000  N
  N15      1.0000 0.85087  0.39295  0.62400  Biso   1.000  N
  N16      1.0000 0.64913  0.60705  0.12400  Biso   1.000  N
  N17      1.0000 0.30890  0.71110  0.16620  Biso   1.000  N
  N18      1.0000 0.19110  0.28890  0.66620  Biso   1.000  N
  N19      1.0000 0.03890  0.55890  0.41620  Biso   1.000  N
  N20      1.0000 0.46110  0.44110  0.91620  Biso   1.000  N
  N21      1.0000 0.80890  0.21110  0.66620  Biso   1.000  N
  N22      1.0000 0.69110  0.78890  0.16620  Biso   1.000  N
  N23      1.0000 0.53890  0.05890  0.91620  Biso   1.000  N
  N24      1.0000 0.96110  0.94110  0.41620  Biso   1.000  N
  N25      1.0000 0.69110  0.28890  0.83380  Biso   1.000  N
  N26      1.0000 0.80890  0.71110  0.33380  Biso   1.000  N
  N27      1.0000 0.46110  0.94110  0.08380  Biso   1.000  N
  N28      1.0000 0.03890  0.05890  0.58380  Biso   1.000  N
  N29      1.0000 0.19110  0.78890  0.33380  Biso   1.000  N
  N30      1.0000 0.30890  0.21110  0.83380  Biso   1.000  N
  N31      1.0000 0.96110  0.44110  0.58380  Biso   1.000  N
  N32      1.0000 0.53890  0.55890  0.08380  Biso   1.000  N
  N33      1.0000 0.28620  0.65630  0.22340  Biso   1.000  N
  N34      1.0000 0.21380  0.34370  0.72340  Biso   1.000  N
  N35      1.0000 0.09370  0.53620  0.47340  Biso   1.000  N
  N36      1.0000 0.40630  0.46380  0.97340  Biso   1.000  N
  N37      1.0000 0.78620  0.15630  0.72340  Biso   1.000  N
  N38      1.0000 0.71380  0.84370  0.22340  Biso   1.000  N
  N39      1.0000 0.59370  0.03620  0.97340  Biso   1.000  N
  N40      1.0000 0.90630  0.96380  0.47340  Biso   1.000  N
  N41      1.0000 0.71380  0.34370  0.77660  Biso   1.000  N
  N42      1.0000 0.78620  0.65630  0.27660  Biso   1.000  N
  N43      1.0000 0.40630  0.96380  0.02660  Biso   1.000  N
  N44      1.0000 0.09370  0.03620  0.52660  Biso   1.000  N
  N45      1.0000 0.21380  0.84370  0.27660  Biso   1.000  N
  N46      1.0000 0.28620  0.15630  0.77660  Biso   1.000  N
  N47      1.0000 0.90630  0.46380  0.52660  Biso   1.000  N
  N48      1.0000 0.59370  0.53620  0.02660  Biso   1.000  N
