data_image0
_cell_length_a       7.4069
_cell_length_b       7.7788
_cell_length_c       21.614
_cell_angle_alpha    86.456
_cell_angle_beta     87.677
_cell_angle_gamma    65.171

_symmetry_space_group_name_H-M    "P 1"
_symmetry_int_tables_number       1

loop_
  _symmetry_equiv_pos_as_xyz
  'x, y, z'

loop_
  _atom_site_label
  _atom_site_occupancy
  _atom_site_fract_x
  _atom_site_fract_y
  _atom_site_fract_z
  _atom_site_thermal_displace_type
  _atom_site_B_iso_or_equiv
  _atom_site_type_symbol
  Tb1      1.0000 0.25481  0.26003  0.49043  Biso   1.000  Tb
  Tb2      1.0000 0.74519  0.73997  0.50957  Biso   1.000  Tb
  Cu1      1.0000 0.99960  0.10990  0.05652  Biso   1.000  Cu
  Cu2      1.0000 0.00040  0.89010  0.94348  Biso   1.000  Cu
  Cu3      1.0000 0.98430  0.63770  0.03902  Biso   1.000  Cu
  Cu4      1.0000 0.01570  0.36230  0.96098  Biso   1.000  Cu
  Br1      1.0000 0.22064  0.28421  0.05323  Biso   1.000  Br
  Br2      1.0000 0.77936  0.71579  0.94677  Biso   1.000  Br
  Br3      1.0000 0.22455  0.78266  0.04229  Biso   1.000  Br
  Br4      1.0000 0.77545  0.21734  0.95771  Biso   1.000  Br
  O1       1.0000 0.55130  0.04790  0.44490  Biso   1.000  O
  O2       1.0000 0.44870  0.95210  0.55510  Biso   1.000  O
  O3       1.0000 0.85080  0.86180  0.41200  Biso   1.000  O
  O4       1.0000 0.14920  0.13820  0.58800  Biso   1.000  O
  O5       1.0000 0.92860  0.47190  0.44800  Biso   1.000  O
  O6       1.0000 0.07140  0.52810  0.55200  Biso   1.000  O
  O7       1.0000 0.15880  0.31380  0.37980  Biso   1.000  O
  O8       1.0000 0.84120  0.68620  0.62020  Biso   1.000  O
  O9       1.0000 0.33810  0.50580  0.44350  Biso   1.000  O
  O10      1.0000 0.66190  0.49420  0.55650  Biso   1.000  O
  O11      1.0000 0.49560  0.69160  0.45330  Biso   1.000  O
  O12      1.0000 0.50440  0.30840  0.54670  Biso   1.000  O
  O13      1.0000 0.14080  0.03040  0.45910  Biso   1.000  O
  O14      1.0000 0.85920  0.96960  0.54090  Biso   1.000  O
  H1       1.0000 0.18900  0.97700  0.42700  Biso   1.000  H
  H2       1.0000 0.81100  0.02300  0.57300  Biso   1.000  H
  H3       1.0000 0.02300  0.05400  0.46600  Biso   1.000  H
  H4       1.0000 0.97700  0.94600  0.53400  Biso   1.000  H
  N1       1.0000 0.80600  0.19690  0.12790  Biso   1.000  N
  N2       1.0000 0.19400  0.80310  0.87210  Biso   1.000  N
  N3       1.0000 0.81590  0.69450  0.11690  Biso   1.000  N
  N4       1.0000 0.18410  0.30550  0.88310  Biso   1.000  N
  C1       1.0000 0.83890  0.11750  0.18560  Biso   1.000  C
  C2       1.0000 0.16110  0.88250  0.81440  Biso   1.000  C
  H5       1.0000 0.95590  0.00950  0.19280  Biso   1.000  H
  H6       1.0000 0.04410  0.99050  0.80720  Biso   1.000  H
  C3       1.0000 0.70970  0.18660  0.23470  Biso   1.000  C
  C4       1.0000 0.29030  0.81340  0.76530  Biso   1.000  C
  C5       1.0000 0.53350  0.34420  0.22400  Biso   1.000  C
  C6       1.0000 0.46650  0.65580  0.77600  Biso   1.000  C
  H7       1.0000 0.44190  0.39350  0.25610  Biso   1.000  H
  H8       1.0000 0.55810  0.60650  0.74390  Biso   1.000  H
  C7       1.0000 0.49540  0.42790  0.16470  Biso   1.000  C
  C8       1.0000 0.50460  0.57210  0.83530  Biso   1.000  C
  H9       1.0000 0.37810  0.53480  0.15650  Biso   1.000  H
  H10      1.0000 0.62190  0.46520  0.84350  Biso   1.000  H
  C9       1.0000 0.63270  0.35120  0.11810  Biso   1.000  C
  C10      1.0000 0.36730  0.64880  0.88190  Biso   1.000  C
  H11      1.0000 0.60560  0.40760  0.07840  Biso   1.000  H
  H12      1.0000 0.39440  0.59240  0.92160  Biso   1.000  H
  C11      1.0000 0.76070  0.08470  0.29580  Biso   1.000  C
  C12      1.0000 0.23930  0.91530  0.70420  Biso   1.000  C
  H13      1.0000 0.88530  0.98370  0.29960  Biso   1.000  H
  H14      1.0000 0.11470  0.01630  0.70040  Biso   1.000  H
  C13      1.0000 0.64550  0.12490  0.34470  Biso   1.000  C
  C14      1.0000 0.35450  0.87510  0.65530  Biso   1.000  C
  H15      1.0000 0.52740  0.23430  0.34290  Biso   1.000  H
  H16      1.0000 0.47260  0.76570  0.65710  Biso   1.000  H
  C15      1.0000 0.69100  0.00770  0.40270  Biso   1.000  C
  C16      1.0000 0.30900  0.99230  0.59730  Biso   1.000  C
  C17      1.0000 0.89590  0.60120  0.17070  Biso   1.000  C
  C18      1.0000 0.10410  0.39880  0.82930  Biso   1.000  C
  H17      1.0000 0.02480  0.50630  0.16960  Biso   1.000  H
  H18      1.0000 0.97520  0.49370  0.83040  Biso   1.000  H
  C19      1.0000 0.79590  0.63930  0.22790  Biso   1.000  C
  C20      1.0000 0.20410  0.36070  0.77210  Biso   1.000  C
  C21      1.0000 0.60760  0.77720  0.22890  Biso   1.000  C
  C22      1.0000 0.39240  0.22280  0.77110  Biso   1.000  C
  H19      1.0000 0.53630  0.80570  0.26620  Biso   1.000  H
  H20      1.0000 0.46370  0.19430  0.73380  Biso   1.000  H
  C23      1.0000 0.52320  0.87370  0.17550  Biso   1.000  C
  C24      1.0000 0.47680  0.12630  0.82450  Biso   1.000  C
  H21      1.0000 0.39330  0.96680  0.17570  Biso   1.000  H
  H22      1.0000 0.60670  0.03320  0.82430  Biso   1.000  H
  C25      1.0000 0.63230  0.83210  0.12110  Biso   1.000  C
  C26      1.0000 0.36770  0.16790  0.87890  Biso   1.000  C
  H23      1.0000 0.57500  0.90360  0.08520  Biso   1.000  H
  H24      1.0000 0.42500  0.09640  0.91480  Biso   1.000  H
  C27      1.0000 0.90840  0.53050  0.28240  Biso   1.000  C
  C28      1.0000 0.09160  0.46950  0.71760  Biso   1.000  C
  H25      1.0000 0.03760  0.44230  0.27460  Biso   1.000  H
  H26      1.0000 0.96240  0.55770  0.72540  Biso   1.000  H
  C29      1.0000 0.84920  0.54250  0.34070  Biso   1.000  C
  C30      1.0000 0.15080  0.45750  0.65930  Biso   1.000  C
  H27      1.0000 0.71790  0.62050  0.35080  Biso   1.000  H
  H28      1.0000 0.28210  0.37950  0.64920  Biso   1.000  H
  C31      1.0000 0.98890  0.43300  0.39080  Biso   1.000  C
  C32      1.0000 0.01110  0.56700  0.60920  Biso   1.000  C
  C33      1.0000 0.45130  0.55630  0.46970  Biso   1.000  C
  C34      1.0000 0.54870  0.44370  0.53030  Biso   1.000  C
  O15      1.0000 0.22500  0.73700  0.33110  Biso   1.000  O
  O16      1.0000 0.77500  0.26300  0.66890  Biso   1.000  O
  O17      1.0000 0.23000  0.85700  0.35040  Biso   1.000  O
  O18      1.0000 0.77000  0.14300  0.64960  Biso   1.000  O
