data_image0
_cell_length_a       11.691
_cell_length_b       13.492
_cell_length_c       20.615
_cell_angle_alpha    89.274
_cell_angle_beta     76.749
_cell_angle_gamma    66.93

_symmetry_space_group_name_H-M    "P 1"
_symmetry_int_tables_number       1

loop_
  _symmetry_equiv_pos_as_xyz
  'x, y, z'

loop_
  _atom_site_label
  _atom_site_occupancy
  _atom_site_fract_x
  _atom_site_fract_y
  _atom_site_fract_z
  _atom_site_thermal_displace_type
  _atom_site_B_iso_or_equiv
  _atom_site_type_symbol
  Mo1      1.0000 0.00318  0.73687  0.47230  Biso   1.000  Mo
  Mo2      1.0000 0.99682  0.26313  0.52770  Biso   1.000  Mo
  Mo3      1.0000 0.73584  0.94053  0.58372  Biso   1.000  Mo
  Mo4      1.0000 0.26416  0.05947  0.41628  Biso   1.000  Mo
  Mo5      1.0000 0.79362  0.96588  0.40969  Biso   1.000  Mo
  Mo6      1.0000 0.20638  0.03412  0.59031  Biso   1.000  Mo
  Mo7      1.0000 0.77365  0.23151  0.44623  Biso   1.000  Mo
  Mo8      1.0000 0.22635  0.76849  0.55377  Biso   1.000  Mo
  Mo9      1.0000 0.95693  0.95393  0.67253  Biso   1.000  Mo
  Mo10     1.0000 0.04307  0.04607  0.32747  Biso   1.000  Mo
  Mo11     1.0000 0.74360  0.19599  0.61967  Biso   1.000  Mo
  Mo12     1.0000 0.25640  0.80401  0.38033  Biso   1.000  Mo
  P1       1.0000 0.00000  0.00000  0.50000  Biso   1.000  P
  O1       1.0000 0.91300  0.93460  0.49280  Biso   1.000  O
  O2       1.0000 0.08700  0.06540  0.50720  Biso   1.000  O
  O3       1.0000 0.90290  0.01710  0.56730  Biso   1.000  O
  O4       1.0000 0.09710  0.98290  0.43270  Biso   1.000  O
  O5       1.0000 0.85610  0.79730  0.54320  Biso   1.000  O
  O6       1.0000 0.14390  0.20270  0.45680  Biso   1.000  O
  O7       1.0000 0.61960  0.28670  0.67440  Biso   1.000  O
  O8       1.0000 0.38040  0.71330  0.32560  Biso   1.000  O
  O9       1.0000 0.91910  0.98330  0.34130  Biso   1.000  O
  O10      1.0000 0.08090  0.01670  0.65870  Biso   1.000  O
  O11      1.0000 0.94340  0.93270  0.75330  Biso   1.000  O
  O12      1.0000 0.05660  0.06730  0.24670  Biso   1.000  O
  O13      1.0000 0.61610  0.90830  0.62290  Biso   1.000  O
  O14      1.0000 0.38390  0.09170  0.37710  Biso   1.000  O
  O15      1.0000 0.71900  0.98200  0.50380  Biso   1.000  O
  O16      1.0000 0.28100  0.01800  0.49620  Biso   1.000  O
  O17      1.0000 0.83560  0.91270  0.64950  Biso   1.000  O
  O18      1.0000 0.16440  0.08730  0.35050  Biso   1.000  O
  O19      1.0000 0.14220  0.73840  0.39750  Biso   1.000  O
  O20      1.0000 0.85780  0.26160  0.60250  Biso   1.000  O
  O21      1.0000 0.89700  0.81900  0.41340  Biso   1.000  O
  O22      1.0000 0.10300  0.18100  0.58660  Biso   1.000  O
  O23      1.0000 0.90720  0.17900  0.36510  Biso   1.000  O
  O24      1.0000 0.09280  0.82100  0.63490  Biso   1.000  O
  O25      1.0000 0.83730  0.10060  0.67510  Biso   1.000  O
  O26      1.0000 0.16270  0.89940  0.32490  Biso   1.000  O
  O27      1.0000 0.66930  0.08950  0.61000  Biso   1.000  O
  O28      1.0000 0.33070  0.91050  0.39000  Biso   1.000  O
  O29      1.0000 0.93520  0.04610  0.44470  Biso   1.000  O
  O30      1.0000 0.06480  0.95390  0.55530  Biso   1.000  O
  O31      1.0000 0.11760  0.70890  0.52780  Biso   1.000  O
  O32      1.0000 0.88240  0.29110  0.47220  Biso   1.000  O
  O33      1.0000 0.69540  0.23780  0.53750  Biso   1.000  O
  O34      1.0000 0.30460  0.76220  0.46250  Biso   1.000  O
  O35      1.0000 0.71860  0.12320  0.42650  Biso   1.000  O
  O36      1.0000 0.28140  0.87680  0.57350  Biso   1.000  O
  O37      1.0000 0.69540  0.94880  0.36600  Biso   1.000  O
  O38      1.0000 0.30460  0.05120  0.63400  Biso   1.000  O
  O39      1.0000 0.00930  0.61370  0.45750  Biso   1.000  O
  O40      1.0000 0.99070  0.38630  0.54250  Biso   1.000  O
  O41      1.0000 0.66980  0.33780  0.42030  Biso   1.000  O
  O42      1.0000 0.33020  0.66220  0.57970  Biso   1.000  O
  O43      1.0000 0.09200  0.88200  0.48220  Biso   1.000  O
  O44      1.0000 0.90800  0.11800  0.51780  Biso   1.000  O
  Cu1      1.0000 0.53030  0.19110  0.37319  Biso   1.000  Cu
  Cu2      1.0000 0.46970  0.80890  0.62681  Biso   1.000  Cu
  Cl1      1.0000 0.61800  0.14020  0.26900  Biso   1.000  Cl
  Cl2      1.0000 0.38200  0.85980  0.73100  Biso   1.000  Cl
  Cu3      1.0000 0.51230  0.31250  0.21833  Biso   1.000  Cu
  Cu4      1.0000 0.48770  0.68750  0.78167  Biso   1.000  Cu
  Cu5      1.0000 0.29050  0.85360  0.10913  Biso   1.000  Cu
  Cu6      1.0000 0.70950  0.14640  0.89087  Biso   1.000  Cu
  Cu7      1.0000 0.68270  0.93880  0.26475  Biso   1.000  Cu
  Cu8      1.0000 0.31730  0.06120  0.73525  Biso   1.000  Cu
  Cu9      1.0000 0.87170  0.52120  0.34411  Biso   1.000  Cu
  Cu10     1.0000 0.12830  0.47880  0.65589  Biso   1.000  Cu
  N1       1.0000 0.42060  0.27000  0.45560  Biso   1.000  N
  N2       1.0000 0.57940  0.73000  0.54440  Biso   1.000  N
  N3       1.0000 0.77170  0.45380  0.30460  Biso   1.000  N
  N4       1.0000 0.22830  0.54620  0.69540  Biso   1.000  N
  N5       1.0000 0.32560  0.37710  0.26770  Biso   1.000  N
  N6       1.0000 0.67440  0.62290  0.73230  Biso   1.000  N
  N7       1.0000 0.86480  0.89100  0.21550  Biso   1.000  N
  N8       1.0000 0.13520  0.10900  0.78450  Biso   1.000  N
  N9       1.0000 0.62980  0.18990  0.98520  Biso   1.000  N
  N10      1.0000 0.37020  0.81010  0.01480  Biso   1.000  N
  N11      1.0000 0.74910  0.61670  0.42420  Biso   1.000  N
  N12      1.0000 0.25090  0.38330  0.57580  Biso   1.000  N
  N13      1.0000 0.11580  0.85780  0.15030  Biso   1.000  N
  N14      1.0000 0.88420  0.14220  0.84970  Biso   1.000  N
  N15      1.0000 0.54970  0.26040  0.12150  Biso   1.000  N
  N16      1.0000 0.45030  0.73960  0.87850  Biso   1.000  N
  N17      1.0000 0.38110  0.88290  0.17350  Biso   1.000  N
  N18      1.0000 0.61890  0.11710  0.82650  Biso   1.000  N
  N19      1.0000 0.62450  0.37620  0.24980  Biso   1.000  N
  N20      1.0000 0.37550  0.62380  0.75020  Biso   1.000  N
  N21      1.0000 0.05610  0.46510  0.32210  Biso   1.000  N
  N22      1.0000 0.94390  0.53490  0.67790  Biso   1.000  N
  N23      1.0000 0.53870  0.91770  0.24370  Biso   1.000  N
  N24      1.0000 0.46130  0.08230  0.75630  Biso   1.000  N
  C1       1.0000 0.75170  0.32060  0.23940  Biso   1.000  C
  C2       1.0000 0.24830  0.67940  0.76060  Biso   1.000  C
  H1       1.0000 0.79220  0.25580  0.21250  Biso   1.000  H
  H2       1.0000 0.20780  0.74420  0.78750  Biso   1.000  H
  C3       1.0000 0.82420  0.36040  0.26930  Biso   1.000  C
  C4       1.0000 0.17580  0.63960  0.73070  Biso   1.000  C
  H3       1.0000 0.91130  0.31920  0.26380  Biso   1.000  H
  H4       1.0000 0.08870  0.68080  0.73620  Biso   1.000  H
  C5       1.0000 0.73400  0.57200  0.48320  Biso   1.000  C
  C6       1.0000 0.26600  0.42800  0.51680  Biso   1.000  C
  H5       1.0000 0.78420  0.49910  0.48300  Biso   1.000  H
  H6       1.0000 0.21580  0.50090  0.51700  Biso   1.000  H
  C7       1.0000 0.40900  0.22200  0.51520  Biso   1.000  C
  C8       1.0000 0.59100  0.77800  0.48480  Biso   1.000  C
  H7       1.0000 0.45750  0.14860  0.51590  Biso   1.000  H
  H8       1.0000 0.54250  0.85140  0.48410  Biso   1.000  H
  C9       1.0000 0.67100  0.72010  0.42780  Biso   1.000  C
  C10      1.0000 0.32900  0.27990  0.57220  Biso   1.000  C
  H9       1.0000 0.67260  0.75490  0.38860  Biso   1.000  H
  H10      1.0000 0.32740  0.24510  0.61140  Biso   1.000  H
  C11      1.0000 0.96380  0.82910  0.23690  Biso   1.000  C
  C12      1.0000 0.03620  0.17090  0.76310  Biso   1.000  C
  H11      1.0000 0.95090  0.79440  0.27540  Biso   1.000  H
  H12      1.0000 0.04910  0.20560  0.72460  Biso   1.000  H
  C13      1.0000 0.57050  0.29810  0.00880  Biso   1.000  C
  C14      1.0000 0.42950  0.70190  0.99120  Biso   1.000  C
  H13      1.0000 0.55870  0.35060  0.97850  Biso   1.000  H
  H14      1.0000 0.44130  0.64940  0.02150  Biso   1.000  H
  C15      1.0000 0.89400  0.93500  0.15890  Biso   1.000  C
  C16      1.0000 0.10600  0.06500  0.84110  Biso   1.000  C
  H15      1.0000 0.82700  0.98290  0.14260  Biso   1.000  H
  H16      1.0000 0.17300  0.01710  0.85740  Biso   1.000  H
  C17      1.0000 0.26260  0.31900  0.30270  Biso   1.000  C
  C18      1.0000 0.73740  0.68100  0.69730  Biso   1.000  C
  H17      1.0000 0.31000  0.24790  0.30980  Biso   1.000  H
  H18      1.0000 0.69000  0.75210  0.69020  Biso   1.000  H
  C19      1.0000 0.59600  0.15590  0.10140  Biso   1.000  C
  C20      1.0000 0.40400  0.84410  0.89860  Biso   1.000  C
  H19      1.0000 0.59950  0.10550  0.13290  Biso   1.000  H
  H20      1.0000 0.40050  0.89450  0.86710  Biso   1.000  H
  C21      1.0000 0.09020  0.81320  0.20300  Biso   1.000  C
  C22      1.0000 0.90980  0.18680  0.79700  Biso   1.000  C
  H21      1.0000 0.15760  0.76800  0.22020  Biso   1.000  H
  H22      1.0000 0.84240  0.23200  0.77980  Biso   1.000  H
  C23      1.0000 0.57720  0.47190  0.28340  Biso   1.000  C
  C24      1.0000 0.42280  0.52810  0.71660  Biso   1.000  C
  H23      1.0000 0.49150  0.51640  0.28730  Biso   1.000  H
  H24      1.0000 0.50850  0.48360  0.71270  Biso   1.000  H
  C25      1.0000 0.01750  0.91430  0.12320  Biso   1.000  C
  C26      1.0000 0.98250  0.08570  0.87680  Biso   1.000  C
  H25      1.0000 0.03250  0.93890  0.08100  Biso   1.000  H
  H26      1.0000 0.96750  0.06110  0.91900  Biso   1.000  H
  C27      1.0000 0.45180  0.99800  0.22030  Biso   1.000  C
  C28      1.0000 0.54820  0.00200  0.77970  Biso   1.000  C
  H27      1.0000 0.44370  0.06860  0.22880  Biso   1.000  H
  H28      1.0000 0.55630  0.93140  0.77120  Biso   1.000  H
  C29      1.0000 0.64740  0.50800  0.31230  Biso   1.000  C
  C30      1.0000 0.35260  0.49200  0.68770  Biso   1.000  C
  H29      1.0000 0.60680  0.57350  0.33860  Biso   1.000  H
  H30      1.0000 0.39320  0.42650  0.66140  Biso   1.000  H
  C31      1.0000 0.12400  0.52170  0.28770  Biso   1.000  C
  C32      1.0000 0.87600  0.47830  0.71230  Biso   1.000  C
  H31      1.0000 0.07880  0.59310  0.28020  Biso   1.000  H
  H32      1.0000 0.92120  0.40690  0.71980  Biso   1.000  H
  C33      1.0000 0.54160  0.82040  0.23320  Biso   1.000  C
  C34      1.0000 0.45840  0.17960  0.76680  Biso   1.000  C
  H33      1.0000 0.59960  0.76140  0.24860  Biso   1.000  H
  H34      1.0000 0.40040  0.23860  0.75140  Biso   1.000  H
  C35      1.0000 0.25030  0.47890  0.26490  Biso   1.000  C
  C36      1.0000 0.74970  0.52110  0.73510  Biso   1.000  C
  H35      1.0000 0.28880  0.52420  0.24530  Biso   1.000  H
  H36      1.0000 0.71120  0.47580  0.75470  Biso   1.000  H
  C37      1.0000 0.52820  0.32980  0.07700  Biso   1.000  C
  C38      1.0000 0.47180  0.67020  0.92300  Biso   1.000  C
  H37      1.0000 0.48330  0.40290  0.09110  Biso   1.000  H
  H38      1.0000 0.51670  0.59710  0.90890  Biso   1.000  H
  C39      1.0000 0.37420  0.98200  0.18440  Biso   1.000  C
  C40      1.0000 0.62580  0.01800  0.81560  Biso   1.000  C
  H39      1.0000 0.31710  0.04020  0.16780  Biso   1.000  H
  H40      1.0000 0.68290  0.95980  0.83220  Biso   1.000  H
  C41      1.0000 0.63800  0.12250  0.03480  Biso   1.000  C
  C42      1.0000 0.36200  0.87750  0.96520  Biso   1.000  C
  H41      1.0000 0.67510  0.04850  0.02270  Biso   1.000  H
  H42      1.0000 0.32490  0.95150  0.97730  Biso   1.000  H
  C43      1.0000 0.13380  0.36080  0.32750  Biso   1.000  C
  C44      1.0000 0.86620  0.63920  0.67250  Biso   1.000  C
  H43      1.0000 0.09650  0.31620  0.34940  Biso   1.000  H
  H44      1.0000 0.90350  0.68380  0.65060  Biso   1.000  H
  C45      1.0000 0.45880  0.80490  0.19930  Biso   1.000  C
  C46      1.0000 0.54120  0.19510  0.80070  Biso   1.000  C
  H45      1.0000 0.45930  0.73620  0.19510  Biso   1.000  H
  H46      1.0000 0.54070  0.26380  0.80490  Biso   1.000  H
  C47      1.0000 0.34500  0.37700  0.45740  Biso   1.000  C
  C48      1.0000 0.65500  0.62300  0.54260  Biso   1.000  C
  H47      1.0000 0.34850  0.41400  0.41910  Biso   1.000  H
  H48      1.0000 0.65150  0.58600  0.58090  Biso   1.000  H
  Mo13     1.0000 0.93460  0.26606  0.04261  Biso   1.000  Mo
  Mo14     1.0000 0.06540  0.73394  0.95739  Biso   1.000  Mo
  Mo15     1.0000 0.13961  0.33433  0.12122  Biso   1.000  Mo
  Mo16     1.0000 0.86039  0.66567  0.87878  Biso   1.000  Mo
  Mo17     1.0000 0.24581  0.23516  0.94893  Biso   1.000  Mo
  Mo18     1.0000 0.75419  0.76484  0.05107  Biso   1.000  Mo
  Mo19     1.0000 0.20164  0.56863  0.07856  Biso   1.000  Mo
  Mo20     1.0000 0.79836  0.43137  0.92144  Biso   1.000  Mo
  Mo21     1.0000 0.30889  0.46978  0.90724  Biso   1.000  Mo
  Mo22     1.0000 0.69111  0.53022  0.09276  Biso   1.000  Mo
  Mo23     1.0000 0.10685  0.40154  0.82845  Biso   1.000  Mo
  Mo24     1.0000 0.89315  0.59846  0.17155  Biso   1.000  Mo
  P2       1.0000 0.00000  0.50000  0.00000  Biso   1.000  P
  O45      1.0000 0.05100  0.38440  0.02150  Biso   1.000  O
  O46      1.0000 0.94900  0.61560  0.97850  Biso   1.000  O
  O47      1.0000 0.11820  0.43160  0.94740  Biso   1.000  O
  O48      1.0000 0.88180  0.56840  0.05260  Biso   1.000  O
  O49      1.0000 0.04900  0.49450  0.06670  Biso   1.000  O
  O50      1.0000 0.95100  0.50550  0.93330  Biso   1.000  O
  O51      1.0000 0.90050  0.45180  0.01020  Biso   1.000  O
  O52      1.0000 0.09950  0.54820  0.98980  Biso   1.000  O
  O53      1.0000 0.99830  0.45130  0.17580  Biso   1.000  O
  O54      1.0000 0.00170  0.54870  0.82420  Biso   1.000  O
  O55      1.0000 0.19070  0.27290  0.86950  Biso   1.000  O
  O56      1.0000 0.80930  0.72710  0.13050  Biso   1.000  O
  O57      1.0000 0.23810  0.44250  0.83710  Biso   1.000  O
  O58      1.0000 0.76190  0.55750  0.16290  Biso   1.000  O
  O59      1.0000 0.32000  0.50050  0.99520  Biso   1.000  O
  O60      1.0000 0.68000  0.49950  0.00480  Biso   1.000  O
  O61      1.0000 0.44950  0.45560  0.86110  Biso   1.000  O
  O62      1.0000 0.55050  0.54440  0.13890  Biso   1.000  O
  O63      1.0000 0.15690  0.35680  0.74750  Biso   1.000  O
  O64      1.0000 0.84310  0.64320  0.25250  Biso   1.000  O
  O65      1.0000 0.90490  0.15830  0.06410  Biso   1.000  O
  O66      1.0000 0.09510  0.84170  0.93590  Biso   1.000  O
  O67      1.0000 0.20220  0.25780  0.17780  Biso   1.000  O
  O68      1.0000 0.79780  0.74220  0.82220  Biso   1.000  O
  O69      1.0000 0.22730  0.42850  0.10710  Biso   1.000  O
  O70      1.0000 0.77270  0.57150  0.89290  Biso   1.000  O
  O71      1.0000 0.86580  0.30510  0.96770  Biso   1.000  O
  O72      1.0000 0.13420  0.69490  0.03230  Biso   1.000  O
  O73      1.0000 0.78490  0.37580  0.09360  Biso   1.000  O
  O74      1.0000 0.21510  0.62420  0.90640  Biso   1.000  O
  O75      1.0000 0.04450  0.62280  0.14510  Biso   1.000  O
  O76      1.0000 0.95550  0.37720  0.85490  Biso   1.000  O
  O77      1.0000 0.34150  0.32460  0.92800  Biso   1.000  O
  O78      1.0000 0.65850  0.67540  0.07200  Biso   1.000  O
  O79      1.0000 0.09950  0.20230  0.98210  Biso   1.000  O
  O80      1.0000 0.90050  0.79770  0.01790  Biso   1.000  O
  O81      1.0000 0.25200  0.25240  0.03970  Biso   1.000  O
  O82      1.0000 0.74800  0.74760  0.96030  Biso   1.000  O
  O83      1.0000 0.01940  0.27800  0.10910  Biso   1.000  O
  O84      1.0000 0.98060  0.72200  0.89090  Biso   1.000  O
  O85      1.0000 0.35910  0.11280  0.92360  Biso   1.000  O
  O86      1.0000 0.64090  0.88720  0.07640  Biso   1.000  O
  O87      1.0000 0.29470  0.60210  0.11680  Biso   1.000  O
  O88      1.0000 0.70530  0.39790  0.88320  Biso   1.000  O
  O89      1.0000 0.68400  0.95100  0.49670  Biso   1.000  O
  O90      1.0000 0.31600  0.04900  0.50330  Biso   1.000  O
