data_image0
_cell_length_a       11.81
_cell_length_b       12.377
_cell_length_c       12.511
_cell_angle_alpha    61.757
_cell_angle_beta     71.809
_cell_angle_gamma    70.56

_symmetry_space_group_name_H-M    "P 1"
_symmetry_int_tables_number       1

loop_
  _symmetry_equiv_pos_as_xyz
  'x, y, z'

loop_
  _atom_site_label
  _atom_site_occupancy
  _atom_site_fract_x
  _atom_site_fract_y
  _atom_site_fract_z
  _atom_site_thermal_displace_type
  _atom_site_B_iso_or_equiv
  _atom_site_type_symbol
  W1       1.0000 0.07143  0.66520  0.18121  Biso   1.000  W
  W2       1.0000 0.92857  0.33480  0.81879  Biso   1.000  W
  W3       1.0000 0.26326  0.62075  0.36809  Biso   1.000  W
  W4       1.0000 0.73674  0.37925  0.63191  Biso   1.000  W
  W5       1.0000 0.01865  0.74925  0.54716  Biso   1.000  W
  W6       1.0000 0.98135  0.25075  0.45284  Biso   1.000  W
  W7       1.0000 0.80514  0.54993  0.31392  Biso   1.000  W
  W8       1.0000 0.19486  0.45007  0.68608  Biso   1.000  W
  W9       1.0000 0.24721  0.36688  0.32632  Biso   1.000  W
  W10      1.0000 0.75279  0.63312  0.67368  Biso   1.000  W
  W11      1.0000 0.82877  0.80072  0.35635  Biso   1.000  W
  W12      1.0000 0.17123  0.19928  0.64365  Biso   1.000  W
  Cu1      1.0000 0.25470  0.61040  0.86160  Biso   1.000  Cu
  Cu2      1.0000 0.74530  0.38960  0.13840  Biso   1.000  Cu
  Cu3      1.0000 0.00000  0.00000  0.00000  Biso   1.000  Cu
  Cu4      1.0000 0.42220  0.97190  0.26360  Biso   1.000  Cu
  Cu5      1.0000 0.57780  0.02810  0.73640  Biso   1.000  Cu
  N1       1.0000 0.40100  0.87200  0.45000  Biso   1.000  N
  N2       1.0000 0.59900  0.12800  0.55000  Biso   1.000  N
  N3       1.0000 0.31600  0.71700  0.69300  Biso   1.000  N
  N4       1.0000 0.68400  0.28300  0.30700  Biso   1.000  N
  N5       1.0000 0.29600  0.00700  0.17500  Biso   1.000  N
  N6       1.0000 0.70400  0.99300  0.82500  Biso   1.000  N
  N7       1.0000 0.39400  0.54300  0.95100  Biso   1.000  N
  N8       1.0000 0.60600  0.45700  0.04900  Biso   1.000  N
  N9       1.0000 0.11900  0.00700  0.06600  Biso   1.000  N
  N10      1.0000 0.88100  0.99300  0.93400  Biso   1.000  N
  O1       1.0000 0.53000  0.10500  0.19300  Biso   1.000  O
  O2       1.0000 0.47000  0.89500  0.80700  Biso   1.000  O
  O3       1.0000 0.55500  0.84000  0.19000  Biso   1.000  O
  O4       1.0000 0.44500  0.16000  0.81000  Biso   1.000  O
  N11      1.0000 0.10400  0.54800  0.94800  Biso   1.000  N
  N12      1.0000 0.89600  0.45200  0.05200  Biso   1.000  N
  O5       1.0000 0.31900  0.46900  0.34300  Biso   1.000  O
  O6       1.0000 0.68100  0.53100  0.65700  Biso   1.000  O
  O7       1.0000 0.17100  0.51100  0.20000  Biso   1.000  O
  O8       1.0000 0.82900  0.48900  0.80000  Biso   1.000  O
  O9       1.0000 0.92700  0.61900  0.51400  Biso   1.000  O
  O10      1.0000 0.07300  0.38100  0.48600  Biso   1.000  O
  O11      1.0000 0.95200  0.58900  0.38900  Biso   1.000  O
  O12      1.0000 0.04800  0.41100  0.61100  Biso   1.000  O
  O13      1.0000 0.87400  0.70500  0.65400  Biso   1.000  O
  O14      1.0000 0.12600  0.29500  0.34600  Biso   1.000  O
  O15      1.0000 0.89700  0.47100  0.61500  Biso   1.000  O
  O16      1.0000 0.10300  0.52900  0.38500  Biso   1.000  O
  O17      1.0000 0.75200  0.70700  0.32400  Biso   1.000  O
  O18      1.0000 0.24800  0.29300  0.67600  Biso   1.000  O
  O19      1.0000 0.26600  0.26000  0.48600  Biso   1.000  O
  O20      1.0000 0.73400  0.74000  0.51400  Biso   1.000  O
  O21      1.0000 0.93700  0.83100  0.41400  Biso   1.000  O
  O22      1.0000 0.06300  0.16900  0.58600  Biso   1.000  O
  O23      1.0000 0.36600  0.30100  0.23900  Biso   1.000  O
  O24      1.0000 0.63400  0.69900  0.76100  Biso   1.000  O
  O25      1.0000 0.11300  0.75300  0.02300  Biso   1.000  O
  O26      1.0000 0.88700  0.24700  0.97700  Biso   1.000  O
  O27      1.0000 0.11100  0.61700  0.66300  Biso   1.000  O
  O28      1.0000 0.88900  0.38300  0.33700  Biso   1.000  O
  O29      1.0000 0.28600  0.51700  0.52800  Biso   1.000  O
  O30      1.0000 0.71400  0.48300  0.47200  Biso   1.000  O
  O31      1.0000 0.95000  0.60100  0.20100  Biso   1.000  O
  O32      1.0000 0.05000  0.39900  0.79900  Biso   1.000  O
  O33      1.0000 0.95900  0.79400  0.22200  Biso   1.000  O
  O34      1.0000 0.04100  0.20600  0.77800  Biso   1.000  O
  O35      1.0000 0.15900  0.73900  0.42200  Biso   1.000  O
  O36      1.0000 0.84100  0.26100  0.57800  Biso   1.000  O
  O37      1.0000 0.08500  0.54900  0.52200  Biso   1.000  O
  O38      1.0000 0.91500  0.45100  0.47800  Biso   1.000  O
  O39      1.0000 0.18500  0.69700  0.23500  Biso   1.000  O
  O40      1.0000 0.81500  0.30300  0.76500  Biso   1.000  O
  O41      1.0000 0.71200  0.57900  0.22300  Biso   1.000  O
  O42      1.0000 0.28800  0.42100  0.77700  Biso   1.000  O
  O43      1.0000 0.74200  0.94700  0.28800  Biso   1.000  O
  O44      1.0000 0.25800  0.05300  0.71200  Biso   1.000  O
  O45      1.0000 0.39000  0.67200  0.30300  Biso   1.000  O
  O46      1.0000 0.61000  0.32800  0.69700  Biso   1.000  O
  O47      1.0000 0.02700  0.86700  0.57800  Biso   1.000  O
  O48      1.0000 0.97300  0.13300  0.42200  Biso   1.000  O
  C1       1.0000 0.23600  0.97700  0.01600  Biso   1.000  C
  C2       1.0000 0.76400  0.02300  0.98400  Biso   1.000  C
  H1       1.0000 0.25920  0.95840  0.94760  Biso   1.000  H
  H2       1.0000 0.74080  0.04160  0.05240  Biso   1.000  H
  C3       1.0000 0.08800  0.02800  0.16900  Biso   1.000  C
  C4       1.0000 0.91200  0.97200  0.83100  Biso   1.000  C
  H3       1.0000 0.00570  0.04420  0.20500  Biso   1.000  H
  H4       1.0000 0.99430  0.95580  0.79500  Biso   1.000  H
  C5       1.0000 0.32700  0.97500  0.07400  Biso   1.000  C
  C6       1.0000 0.67300  0.02500  0.92600  Biso   1.000  C
  H5       1.0000 0.40880  0.95150  0.04240  Biso   1.000  H
  H6       1.0000 0.59120  0.04850  0.95760  Biso   1.000  H
  C7       1.0000 0.25900  0.84600  0.63900  Biso   1.000  C
  C8       1.0000 0.74100  0.15400  0.36100  Biso   1.000  C
  H7       1.0000 0.19190  0.88170  0.68380  Biso   1.000  H
  H8       1.0000 0.80810  0.11830  0.31620  Biso   1.000  H
  C9       1.0000 0.41000  0.61100  0.00200  Biso   1.000  C
  C10      1.0000 0.59000  0.38900  0.99800  Biso   1.000  C
  H9       1.0000 0.35710  0.68660  0.99820  Biso   1.000  H
  H10      1.0000 0.64290  0.31340  0.00180  Biso   1.000  H
  C11      1.0000 0.30400  0.92000  0.51600  Biso   1.000  C
  C12      1.0000 0.69600  0.08000  0.48400  Biso   1.000  C
  H11      1.0000 0.26580  0.00440  0.48080  Biso   1.000  H
  H12      1.0000 0.73420  0.99560  0.51920  Biso   1.000  H
  C13      1.0000 0.48600  0.44100  0.93900  Biso   1.000  C
  C14      1.0000 0.51400  0.55900  0.06100  Biso   1.000  C
  H13      1.0000 0.48010  0.40610  0.89040  Biso   1.000  H
  H14      1.0000 0.51990  0.59390  0.10960  Biso   1.000  H
  C15      1.0000 0.40800  0.67500  0.61900  Biso   1.000  C
  C16      1.0000 0.59200  0.32500  0.38100  Biso   1.000  C
  H15      1.0000 0.44820  0.59120  0.65010  Biso   1.000  H
  H16      1.0000 0.55180  0.40880  0.34990  Biso   1.000  H
  C17      1.0000 0.10600  0.43100  0.03200  Biso   1.000  C
  C18      1.0000 0.89400  0.56900  0.96800  Biso   1.000  C
  H17      1.0000 0.18080  0.38010  0.05480  Biso   1.000  H
  H18      1.0000 0.81920  0.61990  0.94520  Biso   1.000  H
  C19      1.0000 0.99600  0.61900  0.91300  Biso   1.000  C
  C20      1.0000 0.00400  0.38100  0.08700  Biso   1.000  C
  H19      1.0000 0.99130  0.70050  0.85250  Biso   1.000  H
  H20      1.0000 0.00870  0.29950  0.14750  Biso   1.000  H
  C21      1.0000 0.44900  0.75100  0.49600  Biso   1.000  C
  C22      1.0000 0.55100  0.24900  0.50400  Biso   1.000  C
  H21      1.0000 0.51060  0.71540  0.44680  Biso   1.000  H
  H22      1.0000 0.48940  0.28460  0.55320  Biso   1.000  H
  C23      1.0000 0.17400  0.02600  0.22200  Biso   1.000  C
  C24      1.0000 0.82600  0.97400  0.77800  Biso   1.000  C
  H23      1.0000 0.14750  0.03800  0.29410  Biso   1.000  H
  H24      1.0000 0.85250  0.96200  0.70590  Biso   1.000  H
