data_image0
_cell_length_a       7.62
_cell_length_b       8.432
_cell_length_c       8.989
_cell_angle_alpha    111.82
_cell_angle_beta     103.27
_cell_angle_gamma    102.85

_symmetry_space_group_name_H-M    "P 1"
_symmetry_int_tables_number       1

loop_
  _symmetry_equiv_pos_as_xyz
  'x, y, z'

loop_
  _atom_site_label
  _atom_site_occupancy
  _atom_site_fract_x
  _atom_site_fract_y
  _atom_site_fract_z
  _atom_site_thermal_displace_type
  _atom_site_B_iso_or_equiv
  _atom_site_type_symbol
  Cu1      1.0000 0.37680  0.56715  0.55163  Biso   1.000  Cu
  Cu2      1.0000 0.62320  0.43285  0.44837  Biso   1.000  Cu
  I1       1.0000 0.24275  0.28062  0.27405  Biso   1.000  I
  I2       1.0000 0.75725  0.71938  0.72595  Biso   1.000  I
  N1       1.0000 0.25770  0.68600  0.72820  Biso   1.000  N
  N2       1.0000 0.74230  0.31400  0.27180  Biso   1.000  N
  H1       1.0000 0.12800  0.63340  0.67860  Biso   1.000  H
  H2       1.0000 0.87200  0.36660  0.32140  Biso   1.000  H
  C1       1.0000 0.30460  0.87350  0.77020  Biso   1.000  C
  C2       1.0000 0.69540  0.12650  0.22980  Biso   1.000  C
  H3       1.0000 0.44240  0.93310  0.82380  Biso   1.000  H
  H4       1.0000 0.55760  0.06690  0.17620  Biso   1.000  H
  H5       1.0000 0.24550  0.92870  0.85120  Biso   1.000  H
  H6       1.0000 0.75450  0.07130  0.14880  Biso   1.000  H
  C3       1.0000 0.23430  0.90120  0.60880  Biso   1.000  C
  C4       1.0000 0.76570  0.09880  0.39120  Biso   1.000  C
  H7       1.0000 0.09530  0.85650  0.56270  Biso   1.000  H
  H8       1.0000 0.90470  0.14350  0.43730  Biso   1.000  H
  H9       1.0000 0.27970  0.02930  0.63680  Biso   1.000  H
  H10      1.0000 0.72030  0.97070  0.36320  Biso   1.000  H
  O1       1.0000 0.30900  0.80290  0.48740  Biso   1.000  O
  O2       1.0000 0.69100  0.19710  0.51260  Biso   1.000  O
  C5       1.0000 0.25790  0.81770  0.33060  Biso   1.000  C
  C6       1.0000 0.74210  0.18230  0.66940  Biso   1.000  C
  H11      1.0000 0.31440  0.74720  0.25580  Biso   1.000  H
  H12      1.0000 0.68560  0.25280  0.74420  Biso   1.000  H
  H13      1.0000 0.31370  0.94370  0.35500  Biso   1.000  H
  H14      1.0000 0.68630  0.05630  0.64500  Biso   1.000  H
  C7       1.0000 0.05120  0.75600  0.23960  Biso   1.000  C
  C8       1.0000 0.94880  0.24400  0.76040  Biso   1.000  C
  H15      1.0000 0.99760  0.84020  0.30490  Biso   1.000  H
  H16      1.0000 0.00240  0.15980  0.69510  Biso   1.000  H
  H17      1.0000 0.03070  0.75940  0.13030  Biso   1.000  H
  H18      1.0000 0.96930  0.24060  0.86970  Biso   1.000  H
  O3       1.0000 0.95760  0.58720  0.21330  Biso   1.000  O
  O4       1.0000 0.04240  0.41280  0.78670  Biso   1.000  O
  C9       1.0000 0.75160  0.53130  0.14570  Biso   1.000  C
  C10      1.0000 0.24840  0.46870  0.85430  Biso   1.000  C
  H19      1.0000 0.71020  0.54360  0.04140  Biso   1.000  H
  H20      1.0000 0.28980  0.45640  0.95860  Biso   1.000  H
  H21      1.0000 0.70340  0.60360  0.22790  Biso   1.000  H
  H22      1.0000 0.29660  0.39640  0.77210  Biso   1.000  H
  C11      1.0000 0.31660  0.66120  0.88810  Biso   1.000  C
  C12      1.0000 0.68340  0.33880  0.11190  Biso   1.000  C
  H23      1.0000 0.26530  0.73000  0.96950  Biso   1.000  H
  H24      1.0000 0.73470  0.27000  0.03050  Biso   1.000  H
  H25      1.0000 0.45530  0.70950  0.93920  Biso   1.000  H
  H26      1.0000 0.54470  0.29050  0.06080  Biso   1.000  H
