data_image0
_cell_length_a       11.688
_cell_length_b       12.312
_cell_length_c       13.805
_cell_angle_alpha    104.595
_cell_angle_beta     99.753
_cell_angle_gamma    111.665

_symmetry_space_group_name_H-M    "P 1"
_symmetry_int_tables_number       1

loop_
  _symmetry_equiv_pos_as_xyz
  'x, y, z'

loop_
  _atom_site_label
  _atom_site_occupancy
  _atom_site_fract_x
  _atom_site_fract_y
  _atom_site_fract_z
  _atom_site_thermal_displace_type
  _atom_site_B_iso_or_equiv
  _atom_site_type_symbol
  Cu1      1.0000 0.33145  0.60477  0.27370  Biso   1.000  Cu
  Cu2      1.0000 0.66855  0.39523  0.72630  Biso   1.000  Cu
  Cu3      1.0000 0.44298  0.08652  0.95658  Biso   1.000  Cu
  Cu4      1.0000 0.55702  0.91348  0.04342  Biso   1.000  Cu
  Mo1      1.0000 0.10080  0.08125  0.93866  Biso   1.000  Mo
  Mo2      1.0000 0.89920  0.91875  0.06134  Biso   1.000  Mo
  Mo3      1.0000 0.86556  0.97705  0.71448  Biso   1.000  Mo
  Mo4      1.0000 0.13444  0.02295  0.28552  Biso   1.000  Mo
  Mo5      1.0000 0.87969  0.16937  0.99473  Biso   1.000  Mo
  Mo6      1.0000 0.12031  0.83063  0.00527  Biso   1.000  Mo
  Mo7      1.0000 0.93032  0.76685  0.77753  Biso   1.000  Mo
  Mo8      1.0000 0.06968  0.23315  0.22247  Biso   1.000  Mo
  C1       1.0000 0.38870  0.58420  0.94170  Biso   1.000  C
  C2       1.0000 0.61130  0.41580  0.05830  Biso   1.000  C
  H1       1.0000 0.40080  0.57930  0.87620  Biso   1.000  H
  H2       1.0000 0.59920  0.42070  0.12380  Biso   1.000  H
  C3       1.0000 0.49530  0.62770  0.02730  Biso   1.000  C
  C4       1.0000 0.50470  0.37230  0.97270  Biso   1.000  C
  H3       1.0000 0.57910  0.65140  0.02310  Biso   1.000  H
  H4       1.0000 0.42090  0.34860  0.97690  Biso   1.000  H
  C5       1.0000 0.46410  0.63150  0.11680  Biso   1.000  C
  C6       1.0000 0.53590  0.36850  0.88320  Biso   1.000  C
  H5       1.0000 0.53260  0.66160  0.17670  Biso   1.000  H
  H6       1.0000 0.46740  0.33840  0.82330  Biso   1.000  H
  C7       1.0000 0.24860  0.55570  0.04570  Biso   1.000  C
  C8       1.0000 0.75140  0.44430  0.95430  Biso   1.000  C
  H7       1.0000 0.16530  0.53070  0.05140  Biso   1.000  H
  H8       1.0000 0.83470  0.46930  0.94860  Biso   1.000  H
  C9       1.0000 0.26680  0.54850  0.95050  Biso   1.000  C
  C10      1.0000 0.73320  0.45150  0.04950  Biso   1.000  C
  C11      1.0000 0.15090  0.50180  0.85610  Biso   1.000  C
  C12      1.0000 0.84910  0.49820  0.14390  Biso   1.000  C
  H9       1.0000 0.07990  0.50950  0.87990  Biso   1.000  H
  H10      1.0000 0.92010  0.49050  0.12010  Biso   1.000  H
  H11      1.0000 0.17200  0.55350  0.81320  Biso   1.000  H
  H12      1.0000 0.82800  0.44650  0.18680  Biso   1.000  H
  C13      1.0000 0.00830  0.27450  0.78620  Biso   1.000  C
  C14      1.0000 0.99170  0.72550  0.21380  Biso   1.000  C
  H13      1.0000 0.94670  0.27920  0.81970  Biso   1.000  H
  H14      1.0000 0.05330  0.72080  0.18030  Biso   1.000  H
  C15      1.0000 0.10690  0.20050  0.69230  Biso   1.000  C
  C16      1.0000 0.89310  0.79950  0.30770  Biso   1.000  C
  H15      1.0000 0.12710  0.14450  0.64770  Biso   1.000  H
  H16      1.0000 0.87290  0.85550  0.35230  Biso   1.000  H
  C17      1.0000 0.12350  0.57480  0.36270  Biso   1.000  C
  C18      1.0000 0.87650  0.42520  0.63730  Biso   1.000  C
  H17      1.0000 0.09770  0.49210  0.32280  Biso   1.000  H
  H18      1.0000 0.90230  0.50790  0.67720  Biso   1.000  H
  C19      1.0000 0.05050  0.60220  0.42220  Biso   1.000  C
  C20      1.0000 0.94950  0.39780  0.57780  Biso   1.000  C
  H19      1.0000 0.97710  0.53840  0.42330  Biso   1.000  H
  H20      1.0000 0.02290  0.46160  0.57670  Biso   1.000  H
  C21      1.0000 0.08260  0.72010  0.47970  Biso   1.000  C
  C22      1.0000 0.91740  0.27990  0.52030  Biso   1.000  C
  H21      1.0000 0.03130  0.73910  0.51950  Biso   1.000  H
  H22      1.0000 0.96870  0.26090  0.48050  Biso   1.000  H
  C23      1.0000 0.19280  0.81240  0.47860  Biso   1.000  C
  C24      1.0000 0.80720  0.18760  0.52140  Biso   1.000  C
  C25      1.0000 0.26430  0.78120  0.41660  Biso   1.000  C
  C26      1.0000 0.73570  0.21880  0.58340  Biso   1.000  C
  H23      1.0000 0.33740  0.84410  0.41410  Biso   1.000  H
  H24      1.0000 0.66260  0.15590  0.58590  Biso   1.000  H
  C27      1.0000 0.22930  0.94670  0.53920  Biso   1.000  C
  C28      1.0000 0.77070  0.05330  0.46080  Biso   1.000  C
  H25      1.0000 0.26800  0.99780  0.49980  Biso   1.000  H
  H26      1.0000 0.73200  0.00220  0.50020  Biso   1.000  H
  H27      1.0000 0.15180  0.95600  0.54590  Biso   1.000  H
  H28      1.0000 0.84820  0.04400  0.45410  Biso   1.000  H
  C29      1.0000 0.29710  0.99980  0.73460  Biso   1.000  C
  C30      1.0000 0.70290  0.00020  0.26540  Biso   1.000  C
  H29      1.0000 0.21610  0.97590  0.74500  Biso   1.000  H
  H30      1.0000 0.78390  0.02410  0.25500  Biso   1.000  H
  C31      1.0000 0.49540  0.06410  0.75570  Biso   1.000  C
  C32      1.0000 0.50460  0.93590  0.24430  Biso   1.000  C
  H31      1.0000 0.58320  0.09590  0.78800  Biso   1.000  H
  H32      1.0000 0.41680  0.90410  0.21200  Biso   1.000  H
  C33      1.0000 0.46140  0.45830  0.33760  Biso   1.000  C
  C34      1.0000 0.53860  0.54170  0.66240  Biso   1.000  C
  H33      1.0000 0.38520  0.39380  0.29100  Biso   1.000  H
  H34      1.0000 0.61480  0.60620  0.70900  Biso   1.000  H
  C35      1.0000 0.55100  0.42810  0.38870  Biso   1.000  C
  C36      1.0000 0.44900  0.57190  0.61130  Biso   1.000  C
  C37      1.0000 0.66440  0.52330  0.45670  Biso   1.000  C
  C38      1.0000 0.33560  0.47670  0.54330  Biso   1.000  C
  H35      1.0000 0.72660  0.50620  0.49270  Biso   1.000  H
  H36      1.0000 0.27340  0.49380  0.50730  Biso   1.000  H
  C39      1.0000 0.68460  0.64460  0.47060  Biso   1.000  C
  C40      1.0000 0.31540  0.35540  0.52940  Biso   1.000  C
  H37      1.0000 0.76100  0.71060  0.51550  Biso   1.000  H
  H38      1.0000 0.23900  0.28940  0.48450  Biso   1.000  H
  C41      1.0000 0.58870  0.66590  0.41650  Biso   1.000  C
  C42      1.0000 0.41130  0.33410  0.58350  Biso   1.000  C
  H39      1.0000 0.60240  0.74780  0.42620  Biso   1.000  H
  H40      1.0000 0.39760  0.25220  0.57380  Biso   1.000  H
  C43      1.0000 0.52130  0.29340  0.36830  Biso   1.000  C
  C44      1.0000 0.47870  0.70660  0.63170  Biso   1.000  C
  H41      1.0000 0.57740  0.28610  0.42420  Biso   1.000  H
  H42      1.0000 0.42260  0.71390  0.57580  Biso   1.000  H
  H43      1.0000 0.43310  0.24820  0.36730  Biso   1.000  H
  H44      1.0000 0.56690  0.75180  0.63270  Biso   1.000  H
  C45      1.0000 0.45310  0.17460  0.17530  Biso   1.000  C
  C46      1.0000 0.54690  0.82540  0.82470  Biso   1.000  C
  H45      1.0000 0.36470  0.14790  0.16220  Biso   1.000  H
  H46      1.0000 0.63530  0.85210  0.83780  Biso   1.000  H
  C47      1.0000 0.63780  0.20980  0.16140  Biso   1.000  C
  C48      1.0000 0.36220  0.79020  0.83860  Biso   1.000  C
  H47      1.0000 0.70330  0.20910  0.13150  Biso   1.000  H
  H48      1.0000 0.29670  0.79090  0.86850  Biso   1.000  H
  N1       1.0000 0.34630  0.59770  0.13150  Biso   1.000  N
  N2       1.0000 0.65370  0.40230  0.86850  Biso   1.000  N
  N3       1.0000 0.11090  0.37280  0.79310  Biso   1.000  N
  N4       1.0000 0.88910  0.62720  0.20690  Biso   1.000  N
  N5       1.0000 0.18460  0.33470  0.73400  Biso   1.000  N
  N6       1.0000 0.81540  0.66530  0.26600  Biso   1.000  N
  N7       1.0000 0.00230  0.16790  0.72630  Biso   1.000  N
  N8       1.0000 0.99770  0.83210  0.27370  Biso   1.000  N
  N9       1.0000 0.23130  0.66150  0.35890  Biso   1.000  N
  N10      1.0000 0.76870  0.33850  0.64110  Biso   1.000  N
  N11      1.0000 0.31920  0.99250  0.64380  Biso   1.000  N
  N12      1.0000 0.68080  0.00750  0.35620  Biso   1.000  N
  N13      1.0000 0.44780  0.03290  0.65530  Biso   1.000  N
  N14      1.0000 0.55220  0.96710  0.34470  Biso   1.000  N
  N15      1.0000 0.40750  0.04650  0.80950  Biso   1.000  N
  N16      1.0000 0.59250  0.95350  0.19050  Biso   1.000  N
  N17      1.0000 0.47810  0.57500  0.35140  Biso   1.000  N
  N18      1.0000 0.52190  0.42500  0.64860  Biso   1.000  N
  N19      1.0000 0.53930  0.23870  0.26810  Biso   1.000  N
  N20      1.0000 0.46070  0.76130  0.73190  Biso   1.000  N
  N21      1.0000 0.66030  0.26380  0.26050  Biso   1.000  N
  N22      1.0000 0.33970  0.73620  0.73950  Biso   1.000  N
  N23      1.0000 0.51260  0.15450  0.10420  Biso   1.000  N
  N24      1.0000 0.48740  0.84550  0.89580  Biso   1.000  N
  O1       1.0000 0.19310  0.22140  0.93380  Biso   1.000  O
  O2       1.0000 0.80690  0.77860  0.06620  Biso   1.000  O
  O3       1.0000 0.04160  0.97310  0.79770  Biso   1.000  O
  O4       1.0000 0.95840  0.02690  0.20230  Biso   1.000  O
  O5       1.0000 0.96080  0.87840  0.94250  Biso   1.000  O
  O6       1.0000 0.03920  0.12160  0.05750  Biso   1.000  O
  O7       1.0000 0.89560  0.93250  0.59710  Biso   1.000  O
  O8       1.0000 0.10440  0.06750  0.40290  Biso   1.000  O
  O9       1.0000 0.73340  0.00470  0.68600  Biso   1.000  O
  O10      1.0000 0.26660  0.99530  0.31400  Biso   1.000  O
  O11      1.0000 0.79820  0.82680  0.73990  Biso   1.000  O
  O12      1.0000 0.20180  0.17320  0.26010  Biso   1.000  O
  O13      1.0000 0.91510  0.07970  0.87640  Biso   1.000  O
  O14      1.0000 0.08490  0.92030  0.12360  Biso   1.000  O
  O15      1.0000 0.96220  0.31590  0.99510  Biso   1.000  O
  O16      1.0000 0.03780  0.68410  0.00490  Biso   1.000  O
  O17      1.0000 0.72220  0.13940  0.95040  Biso   1.000  O
  O18      1.0000 0.27780  0.86060  0.04960  Biso   1.000  O
  O19      1.0000 0.21230  0.03230  0.99090  Biso   1.000  O
  O20      1.0000 0.78770  0.96770  0.00910  Biso   1.000  O
  O21      1.0000 0.94910  0.71920  0.65630  Biso   1.000  O
  O22      1.0000 0.05090  0.28080  0.34370  Biso   1.000  O
  O23      1.0000 0.90620  0.21170  0.14320  Biso   1.000  O
  O24      1.0000 0.09380  0.78830  0.85680  Biso   1.000  O
  O25      1.0000 0.82820  0.63230  0.78940  Biso   1.000  O
  O26      1.0000 0.17180  0.36770  0.21060  Biso   1.000  O
