data_image0
_cell_length_a       19.012
_cell_length_b       19.012
_cell_length_c       11.7253
_cell_angle_alpha    90
_cell_angle_beta     90
_cell_angle_gamma    90

_symmetry_space_group_name_H-M    "P 1"
_symmetry_int_tables_number       1

loop_
  _symmetry_equiv_pos_as_xyz
  'x, y, z'

loop_
  _atom_site_label
  _atom_site_occupancy
  _atom_site_fract_x
  _atom_site_fract_y
  _atom_site_fract_z
  _atom_site_thermal_displace_type
  _atom_site_B_iso_or_equiv
  _atom_site_type_symbol
  I1       1.0000 0.44865  0.40410  0.87012  Biso   1.000  I
  I2       1.0000 0.59590  0.94866  0.12012  Biso   1.000  I
  I3       1.0000 0.55134  0.59590  0.87012  Biso   1.000  I
  I4       1.0000 0.40410  0.05134  0.12012  Biso   1.000  I
  I5       1.0000 0.55134  0.09590  0.37988  Biso   1.000  I
  I6       1.0000 0.40410  0.55134  0.12988  Biso   1.000  I
  I7       1.0000 0.44865  0.90410  0.37988  Biso   1.000  I
  I8       1.0000 0.59590  0.44865  0.12988  Biso   1.000  I
  I9       1.0000 0.94866  0.90410  0.37012  Biso   1.000  I
  I10      1.0000 0.09590  0.44865  0.62012  Biso   1.000  I
  I11      1.0000 0.05134  0.09590  0.37012  Biso   1.000  I
  I12      1.0000 0.90410  0.55134  0.62012  Biso   1.000  I
  I13      1.0000 0.05134  0.59590  0.87988  Biso   1.000  I
  I14      1.0000 0.90410  0.05134  0.62988  Biso   1.000  I
  I15      1.0000 0.94866  0.40410  0.87988  Biso   1.000  I
  I16      1.0000 0.09590  0.94866  0.62988  Biso   1.000  I
  I17      1.0000 0.69827  0.65931  0.58730  Biso   1.000  I
  I18      1.0000 0.34069  0.19827  0.83730  Biso   1.000  I
  I19      1.0000 0.30173  0.34069  0.58730  Biso   1.000  I
  I20      1.0000 0.65931  0.80173  0.83730  Biso   1.000  I
  I21      1.0000 0.30173  0.84069  0.66270  Biso   1.000  I
  I22      1.0000 0.65931  0.30173  0.41270  Biso   1.000  I
  I23      1.0000 0.69827  0.15931  0.66270  Biso   1.000  I
  I24      1.0000 0.34069  0.69827  0.41270  Biso   1.000  I
  I25      1.0000 0.19827  0.15931  0.08730  Biso   1.000  I
  I26      1.0000 0.84069  0.69827  0.33730  Biso   1.000  I
  I27      1.0000 0.80173  0.84069  0.08730  Biso   1.000  I
  I28      1.0000 0.15931  0.30173  0.33730  Biso   1.000  I
  I29      1.0000 0.80173  0.34069  0.16270  Biso   1.000  I
  I30      1.0000 0.15931  0.80173  0.91270  Biso   1.000  I
  I31      1.0000 0.19827  0.65931  0.16270  Biso   1.000  I
  I32      1.0000 0.84069  0.19827  0.91270  Biso   1.000  I
  I33      1.0000 0.75000  0.50000  0.37500  Biso   1.000  I
  I34      1.0000 0.50000  0.25000  0.62500  Biso   1.000  I
  I35      1.0000 0.25000  0.50000  0.37500  Biso   1.000  I
  I36      1.0000 0.50000  0.75000  0.62500  Biso   1.000  I
  I37      1.0000 0.25000  0.00000  0.87500  Biso   1.000  I
  I38      1.0000 0.75000  0.00000  0.87500  Biso   1.000  I
  I39      1.0000 0.00000  0.75000  0.12500  Biso   1.000  I
  I40      1.0000 0.00000  0.25000  0.12500  Biso   1.000  I
  Cu1      1.0000 0.62881  0.55066  0.50232  Biso   1.000  Cu
  Cu2      1.0000 0.44934  0.12881  0.75232  Biso   1.000  Cu
  Cu3      1.0000 0.37119  0.44934  0.50232  Biso   1.000  Cu
  Cu4      1.0000 0.55066  0.87119  0.75232  Biso   1.000  Cu
  Cu5      1.0000 0.37119  0.94934  0.74768  Biso   1.000  Cu
  Cu6      1.0000 0.55066  0.37119  0.49768  Biso   1.000  Cu
  Cu7      1.0000 0.62881  0.05066  0.74768  Biso   1.000  Cu
  Cu8      1.0000 0.44934  0.62881  0.49768  Biso   1.000  Cu
  Cu9      1.0000 0.12881  0.05066  0.00232  Biso   1.000  Cu
  Cu10     1.0000 0.94934  0.62881  0.25232  Biso   1.000  Cu
  Cu11     1.0000 0.87119  0.94934  0.00232  Biso   1.000  Cu
  Cu12     1.0000 0.05066  0.37119  0.25232  Biso   1.000  Cu
  Cu13     1.0000 0.87119  0.44934  0.24768  Biso   1.000  Cu
  Cu14     1.0000 0.05066  0.87119  0.99768  Biso   1.000  Cu
  Cu15     1.0000 0.12881  0.55066  0.24768  Biso   1.000  Cu
  Cu16     1.0000 0.94934  0.12881  0.99768  Biso   1.000  Cu
  Cu17     1.0000 0.50000  0.50000  0.73047  Biso   1.000  Cu
  Cu18     1.0000 0.50000  0.00000  0.98047  Biso   1.000  Cu
  Cu19     1.0000 0.50000  0.00000  0.51953  Biso   1.000  Cu
  Cu20     1.0000 0.50000  0.50000  0.26953  Biso   1.000  Cu
  Cu21     1.0000 0.00000  0.00000  0.23047  Biso   1.000  Cu
  Cu22     1.0000 0.00000  0.50000  0.48047  Biso   1.000  Cu
  Cu23     1.0000 0.00000  0.50000  0.01953  Biso   1.000  Cu
  Cu24     1.0000 0.00000  0.00000  0.76953  Biso   1.000  Cu
  Cu25     1.0000 0.39918  0.31482  0.73444  Biso   1.000  Cu
  Cu26     1.0000 0.68518  0.89918  0.98444  Biso   1.000  Cu
  Cu27     1.0000 0.60082  0.68518  0.73444  Biso   1.000  Cu
  Cu28     1.0000 0.31482  0.10082  0.98444  Biso   1.000  Cu
  Cu29     1.0000 0.60082  0.18518  0.51556  Biso   1.000  Cu
  Cu30     1.0000 0.31482  0.60082  0.26556  Biso   1.000  Cu
  Cu31     1.0000 0.39918  0.81482  0.51556  Biso   1.000  Cu
  Cu32     1.0000 0.68518  0.39918  0.26556  Biso   1.000  Cu
  Cu33     1.0000 0.89918  0.81482  0.23444  Biso   1.000  Cu
  Cu34     1.0000 0.18518  0.39918  0.48444  Biso   1.000  Cu
  Cu35     1.0000 0.10082  0.18518  0.23444  Biso   1.000  Cu
  Cu36     1.0000 0.81482  0.60082  0.48444  Biso   1.000  Cu
  Cu37     1.0000 0.10082  0.68518  0.01556  Biso   1.000  Cu
  Cu38     1.0000 0.81482  0.10082  0.76556  Biso   1.000  Cu
  Cu39     1.0000 0.89918  0.31482  0.01556  Biso   1.000  Cu
  Cu40     1.0000 0.18518  0.89918  0.76556  Biso   1.000  Cu
  S1       1.0000 0.58879  0.46082  0.61112  Biso   1.000  S
  S2       1.0000 0.53918  0.08879  0.86112  Biso   1.000  S
  S3       1.0000 0.41121  0.53918  0.61112  Biso   1.000  S
  S4       1.0000 0.46082  0.91121  0.86112  Biso   1.000  S
  S5       1.0000 0.41121  0.03918  0.63888  Biso   1.000  S
  S6       1.0000 0.46082  0.41121  0.38888  Biso   1.000  S
  S7       1.0000 0.58879  0.96082  0.63888  Biso   1.000  S
  S8       1.0000 0.53918  0.58879  0.38888  Biso   1.000  S
  S9       1.0000 0.08879  0.96082  0.11112  Biso   1.000  S
  S10      1.0000 0.03918  0.58879  0.36112  Biso   1.000  S
  S11      1.0000 0.91121  0.03918  0.11112  Biso   1.000  S
  S12      1.0000 0.96082  0.41121  0.36112  Biso   1.000  S
  S13      1.0000 0.91121  0.53918  0.13888  Biso   1.000  S
  S14      1.0000 0.96082  0.91121  0.88888  Biso   1.000  S
  S15      1.0000 0.08879  0.46082  0.13888  Biso   1.000  S
  S16      1.0000 0.03918  0.08879  0.88888  Biso   1.000  S
  N1       1.0000 0.75880  0.38000  0.84210  Biso   1.000  N
  N2       1.0000 0.62000  0.25880  0.09210  Biso   1.000  N
  N3       1.0000 0.24120  0.62000  0.84210  Biso   1.000  N
  N4       1.0000 0.38000  0.74120  0.09210  Biso   1.000  N
  N5       1.0000 0.24120  0.12000  0.40790  Biso   1.000  N
  N6       1.0000 0.38000  0.24120  0.15790  Biso   1.000  N
  N7       1.0000 0.75880  0.88000  0.40790  Biso   1.000  N
  N8       1.0000 0.62000  0.75880  0.15790  Biso   1.000  N
  N9       1.0000 0.25880  0.88000  0.34210  Biso   1.000  N
  N10      1.0000 0.12000  0.75880  0.59210  Biso   1.000  N
  N11      1.0000 0.74120  0.12000  0.34210  Biso   1.000  N
  N12      1.0000 0.88000  0.24120  0.59210  Biso   1.000  N
  N13      1.0000 0.74120  0.62000  0.90790  Biso   1.000  N
  N14      1.0000 0.88000  0.74120  0.65790  Biso   1.000  N
  N15      1.0000 0.25880  0.38000  0.90790  Biso   1.000  N
  N16      1.0000 0.12000  0.25880  0.65790  Biso   1.000  N
  C1       1.0000 0.69780  0.34620  0.83620  Biso   1.000  C
  C2       1.0000 0.65380  0.19780  0.08620  Biso   1.000  C
  C3       1.0000 0.30220  0.65380  0.83620  Biso   1.000  C
  C4       1.0000 0.34620  0.80220  0.08620  Biso   1.000  C
  C5       1.0000 0.30220  0.15380  0.41380  Biso   1.000  C
  C6       1.0000 0.34620  0.30220  0.16380  Biso   1.000  C
  C7       1.0000 0.69780  0.84620  0.41380  Biso   1.000  C
  C8       1.0000 0.65380  0.69780  0.16380  Biso   1.000  C
  C9       1.0000 0.19780  0.84620  0.33620  Biso   1.000  C
  C10      1.0000 0.15380  0.69780  0.58620  Biso   1.000  C
  C11      1.0000 0.80220  0.15380  0.33620  Biso   1.000  C
  C12      1.0000 0.84620  0.30220  0.58620  Biso   1.000  C
  C13      1.0000 0.80220  0.65380  0.91380  Biso   1.000  C
  C14      1.0000 0.84620  0.80220  0.66380  Biso   1.000  C
  C15      1.0000 0.19780  0.34620  0.91380  Biso   1.000  C
  C16      1.0000 0.15380  0.19780  0.66380  Biso   1.000  C
  C17      1.0000 0.64490  0.36890  0.76610  Biso   1.000  C
  C18      1.0000 0.63110  0.14490  0.01610  Biso   1.000  C
  C19      1.0000 0.35510  0.63110  0.76610  Biso   1.000  C
  C20      1.0000 0.36890  0.85510  0.01610  Biso   1.000  C
  C21      1.0000 0.35510  0.13110  0.48390  Biso   1.000  C
  C22      1.0000 0.36890  0.35510  0.23390  Biso   1.000  C
  C23      1.0000 0.64490  0.86890  0.48390  Biso   1.000  C
  C24      1.0000 0.63110  0.64490  0.23390  Biso   1.000  C
  C25      1.0000 0.14490  0.86890  0.26610  Biso   1.000  C
  C26      1.0000 0.13110  0.64490  0.51610  Biso   1.000  C
  C27      1.0000 0.85510  0.13110  0.26610  Biso   1.000  C
  C28      1.0000 0.86890  0.35510  0.51610  Biso   1.000  C
  C29      1.0000 0.85510  0.63110  0.98390  Biso   1.000  C
  C30      1.0000 0.86890  0.85510  0.73390  Biso   1.000  C
  C31      1.0000 0.14490  0.36890  0.98390  Biso   1.000  C
  C32      1.0000 0.13110  0.14490  0.73390  Biso   1.000  C
  C33      1.0000 0.65450  0.42940  0.70130  Biso   1.000  C
  C34      1.0000 0.57060  0.15450  0.95130  Biso   1.000  C
  C35      1.0000 0.34550  0.57060  0.70130  Biso   1.000  C
  C36      1.0000 0.42940  0.84550  0.95130  Biso   1.000  C
  C37      1.0000 0.34550  0.07060  0.54870  Biso   1.000  C
  C38      1.0000 0.42940  0.34550  0.29870  Biso   1.000  C
  C39      1.0000 0.65450  0.92940  0.54870  Biso   1.000  C
  C40      1.0000 0.57060  0.65450  0.29870  Biso   1.000  C
  C41      1.0000 0.15450  0.92940  0.20130  Biso   1.000  C
  C42      1.0000 0.07060  0.65450  0.45130  Biso   1.000  C
  C43      1.0000 0.84550  0.07060  0.20130  Biso   1.000  C
  C44      1.0000 0.92940  0.34550  0.45130  Biso   1.000  C
  C45      1.0000 0.84550  0.57060  0.04870  Biso   1.000  C
  C46      1.0000 0.92940  0.84550  0.79870  Biso   1.000  C
  C47      1.0000 0.15450  0.42940  0.04870  Biso   1.000  C
  C48      1.0000 0.07060  0.15450  0.79870  Biso   1.000  C
  C49      1.0000 0.71930  0.46310  0.70860  Biso   1.000  C
  C50      1.0000 0.53690  0.21930  0.95860  Biso   1.000  C
  C51      1.0000 0.28070  0.53690  0.70860  Biso   1.000  C
  C52      1.0000 0.46310  0.78070  0.95860  Biso   1.000  C
  C53      1.0000 0.28070  0.03690  0.54140  Biso   1.000  C
  C54      1.0000 0.46310  0.28070  0.29140  Biso   1.000  C
  C55      1.0000 0.71930  0.96310  0.54140  Biso   1.000  C
  C56      1.0000 0.53690  0.71930  0.29140  Biso   1.000  C
  C57      1.0000 0.21930  0.96310  0.20860  Biso   1.000  C
  C58      1.0000 0.03690  0.71930  0.45860  Biso   1.000  C
  C59      1.0000 0.78070  0.03690  0.20860  Biso   1.000  C
  C60      1.0000 0.96310  0.28070  0.45860  Biso   1.000  C
  C61      1.0000 0.78070  0.53690  0.04140  Biso   1.000  C
  C62      1.0000 0.96310  0.78070  0.79140  Biso   1.000  C
  C63      1.0000 0.21930  0.46310  0.04140  Biso   1.000  C
  C64      1.0000 0.03690  0.21930  0.79140  Biso   1.000  C
  C65      1.0000 0.77010  0.43840  0.78110  Biso   1.000  C
  C66      1.0000 0.56160  0.27010  0.03110  Biso   1.000  C
  C67      1.0000 0.22990  0.56160  0.78110  Biso   1.000  C
  C68      1.0000 0.43840  0.72990  0.03110  Biso   1.000  C
  C69      1.0000 0.22990  0.06160  0.46890  Biso   1.000  C
  C70      1.0000 0.43840  0.22990  0.21890  Biso   1.000  C
  C71      1.0000 0.77010  0.93840  0.46890  Biso   1.000  C
  C72      1.0000 0.56160  0.77010  0.21890  Biso   1.000  C
  C73      1.0000 0.27010  0.93840  0.28110  Biso   1.000  C
  C74      1.0000 0.06160  0.77010  0.53110  Biso   1.000  C
  C75      1.0000 0.72990  0.06160  0.28110  Biso   1.000  C
  C76      1.0000 0.93840  0.22990  0.53110  Biso   1.000  C
  C77      1.0000 0.72990  0.56160  0.96890  Biso   1.000  C
  C78      1.0000 0.93840  0.72990  0.71890  Biso   1.000  C
  C79      1.0000 0.27010  0.43840  0.96890  Biso   1.000  C
  C80      1.0000 0.06160  0.27010  0.71890  Biso   1.000  C
  H1       1.0000 0.69031  0.30326  0.88403  Biso   1.000  H
  H2       1.0000 0.69674  0.19031  0.13403  Biso   1.000  H
  H3       1.0000 0.30969  0.69674  0.88403  Biso   1.000  H
  H4       1.0000 0.30326  0.80969  0.13403  Biso   1.000  H
  H5       1.0000 0.30969  0.19674  0.36597  Biso   1.000  H
  H6       1.0000 0.30326  0.30969  0.11597  Biso   1.000  H
  H7       1.0000 0.69031  0.80326  0.36597  Biso   1.000  H
  H8       1.0000 0.69674  0.69031  0.11597  Biso   1.000  H
  H9       1.0000 0.19031  0.80326  0.38403  Biso   1.000  H
  H10      1.0000 0.19674  0.69031  0.63403  Biso   1.000  H
  H11      1.0000 0.80969  0.19674  0.38403  Biso   1.000  H
  H12      1.0000 0.80326  0.30969  0.63403  Biso   1.000  H
  H13      1.0000 0.80969  0.69674  0.86597  Biso   1.000  H
  H14      1.0000 0.80326  0.80969  0.61597  Biso   1.000  H
  H15      1.0000 0.19031  0.30326  0.86597  Biso   1.000  H
  H16      1.0000 0.19674  0.19031  0.61597  Biso   1.000  H
  H17      1.0000 0.59964  0.34219  0.76148  Biso   1.000  H
  H18      1.0000 0.65781  0.09964  0.01148  Biso   1.000  H
  H19      1.0000 0.40036  0.65781  0.76148  Biso   1.000  H
  H20      1.0000 0.34219  0.90036  0.01148  Biso   1.000  H
  H21      1.0000 0.40036  0.15781  0.48852  Biso   1.000  H
  H22      1.0000 0.34219  0.40036  0.23852  Biso   1.000  H
  H23      1.0000 0.59964  0.84219  0.48852  Biso   1.000  H
  H24      1.0000 0.65781  0.59964  0.23852  Biso   1.000  H
  H25      1.0000 0.09964  0.84219  0.26148  Biso   1.000  H
  H26      1.0000 0.15781  0.59964  0.51148  Biso   1.000  H
  H27      1.0000 0.90036  0.15781  0.26148  Biso   1.000  H
  H28      1.0000 0.84219  0.40036  0.51148  Biso   1.000  H
  H29      1.0000 0.90036  0.65781  0.98852  Biso   1.000  H
  H30      1.0000 0.84219  0.90036  0.73852  Biso   1.000  H
  H31      1.0000 0.09964  0.34219  0.98852  Biso   1.000  H
  H32      1.0000 0.15781  0.09964  0.73852  Biso   1.000  H
  H33      1.0000 0.72885  0.50560  0.66078  Biso   1.000  H
  H34      1.0000 0.49440  0.22885  0.91078  Biso   1.000  H
  H35      1.0000 0.27115  0.49440  0.66078  Biso   1.000  H
  H36      1.0000 0.50560  0.77115  0.91078  Biso   1.000  H
  H37      1.0000 0.27115  0.99440  0.58922  Biso   1.000  H
  H38      1.0000 0.50560  0.27115  0.33922  Biso   1.000  H
  H39      1.0000 0.72885  0.00560  0.58922  Biso   1.000  H
  H40      1.0000 0.49440  0.72885  0.33922  Biso   1.000  H
  H41      1.0000 0.22885  0.00560  0.16078  Biso   1.000  H
  H42      1.0000 0.99440  0.72885  0.41078  Biso   1.000  H
  H43      1.0000 0.77115  0.99440  0.16078  Biso   1.000  H
  H44      1.0000 0.00560  0.27115  0.41078  Biso   1.000  H
  H45      1.0000 0.77115  0.49440  0.08922  Biso   1.000  H
  H46      1.0000 0.00560  0.77115  0.83922  Biso   1.000  H
  H47      1.0000 0.22885  0.50560  0.08922  Biso   1.000  H
  H48      1.0000 0.99440  0.22885  0.83922  Biso   1.000  H
  H49      1.0000 0.81583  0.46409  0.78848  Biso   1.000  H
  H50      1.0000 0.53591  0.31583  0.03848  Biso   1.000  H
  H51      1.0000 0.18417  0.53591  0.78848  Biso   1.000  H
  H52      1.0000 0.46409  0.68417  0.03848  Biso   1.000  H
  H53      1.0000 0.18417  0.03591  0.46152  Biso   1.000  H
  H54      1.0000 0.46409  0.18417  0.21152  Biso   1.000  H
  H55      1.0000 0.81583  0.96409  0.46152  Biso   1.000  H
  H56      1.0000 0.53591  0.81583  0.21152  Biso   1.000  H
  H57      1.0000 0.31583  0.96409  0.28848  Biso   1.000  H
  H58      1.0000 0.03591  0.81583  0.53848  Biso   1.000  H
  H59      1.0000 0.68417  0.03591  0.28848  Biso   1.000  H
  H60      1.0000 0.96409  0.18417  0.53848  Biso   1.000  H
  H61      1.0000 0.68417  0.53591  0.96152  Biso   1.000  H
  H62      1.0000 0.96409  0.68417  0.71152  Biso   1.000  H
  H63      1.0000 0.31583  0.46409  0.96152  Biso   1.000  H
  H64      1.0000 0.03591  0.31583  0.71152  Biso   1.000  H
  Cu41     1.0000 0.15710  0.41330  0.44640  Biso   1.000  Cu
  Cu42     1.0000 0.58670  0.65710  0.69640  Biso   1.000  Cu
  Cu43     1.0000 0.84290  0.58670  0.44640  Biso   1.000  Cu
  Cu44     1.0000 0.41330  0.34290  0.69640  Biso   1.000  Cu
  Cu45     1.0000 0.84290  0.08670  0.80360  Biso   1.000  Cu
  Cu46     1.0000 0.41330  0.84290  0.55360  Biso   1.000  Cu
  Cu47     1.0000 0.15710  0.91330  0.80360  Biso   1.000  Cu
  Cu48     1.0000 0.58670  0.15710  0.55360  Biso   1.000  Cu
  Cu49     1.0000 0.65710  0.91330  0.94640  Biso   1.000  Cu
  Cu50     1.0000 0.08670  0.15710  0.19640  Biso   1.000  Cu
  Cu51     1.0000 0.34290  0.08670  0.94640  Biso   1.000  Cu
  Cu52     1.0000 0.91330  0.84290  0.19640  Biso   1.000  Cu
  Cu53     1.0000 0.34290  0.58670  0.30360  Biso   1.000  Cu
  Cu54     1.0000 0.91330  0.34290  0.05360  Biso   1.000  Cu
  Cu55     1.0000 0.65710  0.41330  0.30360  Biso   1.000  Cu
  Cu56     1.0000 0.08670  0.65710  0.05360  Biso   1.000  Cu
