data_image0
_cell_length_a       13.3256
_cell_length_b       15.0498
_cell_length_c       17.4936
_cell_angle_alpha    90
_cell_angle_beta     90
_cell_angle_gamma    90

_symmetry_space_group_name_H-M    "P 1"
_symmetry_int_tables_number       1

loop_
  _symmetry_equiv_pos_as_xyz
  'x, y, z'

loop_
  _atom_site_label
  _atom_site_occupancy
  _atom_site_fract_x
  _atom_site_fract_y
  _atom_site_fract_z
  _atom_site_thermal_displace_type
  _atom_site_B_iso_or_equiv
  _atom_site_type_symbol
  Cu1      1.0000 0.67290  0.42090  0.12760  Biso   1.000  Cu
  Cu2      1.0000 0.82710  0.57910  0.62760  Biso   1.000  Cu
  Cu3      1.0000 0.17290  0.07910  0.87240  Biso   1.000  Cu
  Cu4      1.0000 0.32710  0.92090  0.37240  Biso   1.000  Cu
  Cu5      1.0000 0.32710  0.57910  0.87240  Biso   1.000  Cu
  Cu6      1.0000 0.17290  0.42090  0.37240  Biso   1.000  Cu
  Cu7      1.0000 0.82710  0.92090  0.12760  Biso   1.000  Cu
  Cu8      1.0000 0.67290  0.07910  0.62760  Biso   1.000  Cu
  Cu9      1.0000 0.32620  0.07830  0.12700  Biso   1.000  Cu
  Cu10     1.0000 0.17380  0.92170  0.62700  Biso   1.000  Cu
  Cu11     1.0000 0.82620  0.42170  0.87300  Biso   1.000  Cu
  Cu12     1.0000 0.67380  0.57830  0.37300  Biso   1.000  Cu
  Cu13     1.0000 0.67380  0.92170  0.87300  Biso   1.000  Cu
  Cu14     1.0000 0.82620  0.07830  0.37300  Biso   1.000  Cu
  Cu15     1.0000 0.17380  0.57830  0.12700  Biso   1.000  Cu
  Cu16     1.0000 0.32620  0.42170  0.62700  Biso   1.000  Cu
  N1       1.0000 0.56670  0.32140  0.12260  Biso   1.000  N
  N2       1.0000 0.93330  0.67860  0.62260  Biso   1.000  N
  N3       1.0000 0.06670  0.17860  0.87740  Biso   1.000  N
  N4       1.0000 0.43330  0.82140  0.37740  Biso   1.000  N
  N5       1.0000 0.43330  0.67860  0.87740  Biso   1.000  N
  N6       1.0000 0.06670  0.32140  0.37740  Biso   1.000  N
  N7       1.0000 0.93330  0.82140  0.12260  Biso   1.000  N
  N8       1.0000 0.56670  0.17860  0.62260  Biso   1.000  N
  N9       1.0000 0.42880  0.18530  0.13850  Biso   1.000  N
  N10      1.0000 0.07120  0.81470  0.63850  Biso   1.000  N
  N11      1.0000 0.92880  0.31470  0.86150  Biso   1.000  N
  N12      1.0000 0.57120  0.68530  0.36150  Biso   1.000  N
  N13      1.0000 0.57120  0.81470  0.86150  Biso   1.000  N
  N14      1.0000 0.92880  0.18530  0.36150  Biso   1.000  N
  N15      1.0000 0.07120  0.68530  0.13850  Biso   1.000  N
  N16      1.0000 0.42880  0.31470  0.63850  Biso   1.000  N
  C1       1.0000 0.47630  0.33000  0.13540  Biso   1.000  C
  C2       1.0000 0.02370  0.67000  0.63540  Biso   1.000  C
  C3       1.0000 0.97630  0.17000  0.86460  Biso   1.000  C
  C4       1.0000 0.52370  0.83000  0.36460  Biso   1.000  C
  C5       1.0000 0.52370  0.67000  0.86460  Biso   1.000  C
  C6       1.0000 0.97630  0.33000  0.36460  Biso   1.000  C
  C7       1.0000 0.02370  0.83000  0.13540  Biso   1.000  C
  C8       1.0000 0.47630  0.17000  0.63540  Biso   1.000  C
  C9       1.0000 0.53420  0.15840  0.12320  Biso   1.000  C
  C10      1.0000 0.96580  0.84160  0.62320  Biso   1.000  C
  C11      1.0000 0.03420  0.34160  0.87680  Biso   1.000  C
  C12      1.0000 0.46580  0.65840  0.37680  Biso   1.000  C
  C13      1.0000 0.46580  0.84160  0.87680  Biso   1.000  C
  C14      1.0000 0.03420  0.15840  0.37680  Biso   1.000  C
  C15      1.0000 0.96580  0.65840  0.12320  Biso   1.000  C
  C16      1.0000 0.53420  0.34160  0.62320  Biso   1.000  C
  C17      1.0000 0.30900  0.03300  0.22280  Biso   1.000  C
  C18      1.0000 0.19100  0.96700  0.72280  Biso   1.000  C
  C19      1.0000 0.80900  0.46700  0.77720  Biso   1.000  C
  C20      1.0000 0.69100  0.53300  0.27720  Biso   1.000  C
  C21      1.0000 0.69100  0.96700  0.77720  Biso   1.000  C
  C22      1.0000 0.80900  0.03300  0.27720  Biso   1.000  C
  C23      1.0000 0.19100  0.53300  0.22280  Biso   1.000  C
  C24      1.0000 0.30900  0.46700  0.72280  Biso   1.000  C
  N17      1.0000 0.31490  0.98950  0.27900  Biso   1.000  N
  N18      1.0000 0.18510  0.01050  0.77900  Biso   1.000  N
  N19      1.0000 0.81490  0.51050  0.72100  Biso   1.000  N
  N20      1.0000 0.68510  0.48950  0.22100  Biso   1.000  N
  N21      1.0000 0.68510  0.01050  0.72100  Biso   1.000  N
  N22      1.0000 0.81490  0.98950  0.22100  Biso   1.000  N
  N23      1.0000 0.18510  0.48950  0.27900  Biso   1.000  N
  N24      1.0000 0.31490  0.51050  0.77900  Biso   1.000  N
  C25      1.0000 0.60070  0.23310  0.12960  Biso   1.000  C
  C26      1.0000 0.89930  0.76690  0.62960  Biso   1.000  C
  C27      1.0000 0.10070  0.26690  0.87040  Biso   1.000  C
  C28      1.0000 0.39930  0.73310  0.37040  Biso   1.000  C
  C29      1.0000 0.39930  0.76690  0.87040  Biso   1.000  C
  C30      1.0000 0.10070  0.23310  0.37040  Biso   1.000  C
  C31      1.0000 0.89930  0.73310  0.12960  Biso   1.000  C
  C32      1.0000 0.60070  0.26690  0.62960  Biso   1.000  C
  C33      1.0000 0.40120  0.26630  0.13010  Biso   1.000  C
  C34      1.0000 0.09880  0.73370  0.63010  Biso   1.000  C
  C35      1.0000 0.90120  0.23370  0.86990  Biso   1.000  C
  C36      1.0000 0.59880  0.76630  0.36990  Biso   1.000  C
  C37      1.0000 0.59880  0.73370  0.86990  Biso   1.000  C
  C38      1.0000 0.90120  0.26630  0.36990  Biso   1.000  C
  C39      1.0000 0.09880  0.76630  0.13010  Biso   1.000  C
  C40      1.0000 0.40120  0.23370  0.63010  Biso   1.000  C
  C41      1.0000 0.27920  0.06150  0.02860  Biso   1.000  C
  C42      1.0000 0.22080  0.93850  0.52860  Biso   1.000  C
  C43      1.0000 0.77920  0.43850  0.97140  Biso   1.000  C
  C44      1.0000 0.72080  0.56150  0.47140  Biso   1.000  C
  C45      1.0000 0.72080  0.93850  0.97140  Biso   1.000  C
  C46      1.0000 0.77920  0.06150  0.47140  Biso   1.000  C
  C47      1.0000 0.22080  0.56150  0.02860  Biso   1.000  C
  C48      1.0000 0.27920  0.43850  0.52860  Biso   1.000  C
  N25      1.0000 0.24240  0.06850  0.96860  Biso   1.000  N
  N26      1.0000 0.25760  0.93150  0.46860  Biso   1.000  N
  N27      1.0000 0.74240  0.43150  0.03140  Biso   1.000  N
  N28      1.0000 0.75760  0.56850  0.53140  Biso   1.000  N
  N29      1.0000 0.75760  0.93150  0.03140  Biso   1.000  N
  N30      1.0000 0.74240  0.06850  0.53140  Biso   1.000  N
  N31      1.0000 0.25760  0.56850  0.96860  Biso   1.000  N
  N32      1.0000 0.24240  0.43150  0.46860  Biso   1.000  N
  C49      1.0000 0.44470  0.43150  0.11530  Biso   1.000  C
  C50      1.0000 0.05530  0.56850  0.61530  Biso   1.000  C
  C51      1.0000 0.94470  0.06850  0.88470  Biso   1.000  C
  C52      1.0000 0.55530  0.93150  0.38470  Biso   1.000  C
  C53      1.0000 0.55530  0.56850  0.88470  Biso   1.000  C
  C54      1.0000 0.94470  0.43150  0.38470  Biso   1.000  C
  C55      1.0000 0.05530  0.93150  0.11530  Biso   1.000  C
  C56      1.0000 0.44470  0.06850  0.61530  Biso   1.000  C
  C57      1.0000 0.56380  0.06930  0.13890  Biso   1.000  C
  C58      1.0000 0.93620  0.93070  0.63890  Biso   1.000  C
  C59      1.0000 0.06380  0.43070  0.86110  Biso   1.000  C
  C60      1.0000 0.43620  0.56930  0.36110  Biso   1.000  C
  C61      1.0000 0.43620  0.93070  0.86110  Biso   1.000  C
  C62      1.0000 0.06380  0.06930  0.36110  Biso   1.000  C
  C63      1.0000 0.93620  0.56930  0.13890  Biso   1.000  C
  C64      1.0000 0.56380  0.43070  0.63890  Biso   1.000  C
  C65      1.0000 0.71290  0.21620  0.12690  Biso   1.000  C
  C66      1.0000 0.78710  0.78380  0.62690  Biso   1.000  C
  C67      1.0000 0.21290  0.28380  0.87310  Biso   1.000  C
  C68      1.0000 0.28710  0.71620  0.37310  Biso   1.000  C
  C69      1.0000 0.28710  0.78380  0.87310  Biso   1.000  C
  C70      1.0000 0.21290  0.21620  0.37310  Biso   1.000  C
  C71      1.0000 0.78710  0.71620  0.12690  Biso   1.000  C
  C72      1.0000 0.71290  0.28380  0.62690  Biso   1.000  C
  C73      1.0000 0.29160  0.28540  0.13550  Biso   1.000  C
  C74      1.0000 0.20840  0.71460  0.63550  Biso   1.000  C
  C75      1.0000 0.79160  0.21460  0.86450  Biso   1.000  C
  C76      1.0000 0.70840  0.78540  0.36450  Biso   1.000  C
  C77      1.0000 0.70840  0.71460  0.86450  Biso   1.000  C
  C78      1.0000 0.79160  0.28540  0.36450  Biso   1.000  C
  C79      1.0000 0.20840  0.78540  0.13550  Biso   1.000  C
  C80      1.0000 0.29160  0.21460  0.63550  Biso   1.000  C
  H1       1.0000 0.37432  0.43641  0.12612  Biso   1.000  H
  H2       1.0000 0.12568  0.56359  0.62612  Biso   1.000  H
  H3       1.0000 0.87432  0.06359  0.87388  Biso   1.000  H
  H4       1.0000 0.62568  0.93641  0.37388  Biso   1.000  H
  H5       1.0000 0.62568  0.56359  0.87388  Biso   1.000  H
  H6       1.0000 0.87432  0.43641  0.37388  Biso   1.000  H
  H7       1.0000 0.12568  0.93641  0.12612  Biso   1.000  H
  H8       1.0000 0.37432  0.06359  0.62612  Biso   1.000  H
  H9       1.0000 0.45676  0.44732  0.06289  Biso   1.000  H
  H10      1.0000 0.04324  0.55268  0.56289  Biso   1.000  H
  H11      1.0000 0.95676  0.05268  0.93711  Biso   1.000  H
  H12      1.0000 0.54324  0.94732  0.43711  Biso   1.000  H
  H13      1.0000 0.54324  0.55268  0.93711  Biso   1.000  H
  H14      1.0000 0.95676  0.44732  0.43711  Biso   1.000  H
  H15      1.0000 0.04324  0.94732  0.06289  Biso   1.000  H
  H16      1.0000 0.45676  0.05268  0.56289  Biso   1.000  H
  H17      1.0000 0.48151  0.47090  0.14812  Biso   1.000  H
  H18      1.0000 0.01849  0.52910  0.64812  Biso   1.000  H
  H19      1.0000 0.98151  0.02910  0.85188  Biso   1.000  H
  H20      1.0000 0.51849  0.97090  0.35188  Biso   1.000  H
  H21      1.0000 0.51849  0.52910  0.85188  Biso   1.000  H
  H22      1.0000 0.98151  0.47090  0.35188  Biso   1.000  H
  H23      1.0000 0.01849  0.97090  0.14812  Biso   1.000  H
  H24      1.0000 0.48151  0.02910  0.64812  Biso   1.000  H
  H25      1.0000 0.63399  0.06068  0.12906  Biso   1.000  H
  H26      1.0000 0.86601  0.93932  0.62906  Biso   1.000  H
  H27      1.0000 0.13399  0.43932  0.87094  Biso   1.000  H
  H28      1.0000 0.36601  0.56068  0.37094  Biso   1.000  H
  H29      1.0000 0.36601  0.93932  0.87094  Biso   1.000  H
  H30      1.0000 0.13399  0.06068  0.37094  Biso   1.000  H
  H31      1.0000 0.86601  0.56068  0.12906  Biso   1.000  H
  H32      1.0000 0.63399  0.43932  0.62906  Biso   1.000  H
  H33      1.0000 0.52518  0.03394  0.10393  Biso   1.000  H
  H34      1.0000 0.97482  0.96606  0.60393  Biso   1.000  H
  H35      1.0000 0.02518  0.46606  0.89607  Biso   1.000  H
  H36      1.0000 0.47482  0.53394  0.39607  Biso   1.000  H
  H37      1.0000 0.47482  0.96606  0.89607  Biso   1.000  H
  H38      1.0000 0.02518  0.03394  0.39607  Biso   1.000  H
  H39      1.0000 0.97482  0.53394  0.10393  Biso   1.000  H
  H40      1.0000 0.52518  0.46606  0.60393  Biso   1.000  H
  H41      1.0000 0.54883  0.05156  0.19039  Biso   1.000  H
  H42      1.0000 0.95117  0.94844  0.69039  Biso   1.000  H
  H43      1.0000 0.04883  0.44844  0.80961  Biso   1.000  H
  H44      1.0000 0.45117  0.55156  0.30961  Biso   1.000  H
  H45      1.0000 0.45117  0.94844  0.80961  Biso   1.000  H
  H46      1.0000 0.04883  0.05156  0.30961  Biso   1.000  H
  H47      1.0000 0.95117  0.55156  0.19039  Biso   1.000  H
  H48      1.0000 0.54883  0.44844  0.69039  Biso   1.000  H
  H49      1.0000 0.72104  0.15357  0.13529  Biso   1.000  H
  H50      1.0000 0.77896  0.84643  0.63529  Biso   1.000  H
  H51      1.0000 0.22104  0.34643  0.86471  Biso   1.000  H
  H52      1.0000 0.27896  0.65357  0.36471  Biso   1.000  H
  H53      1.0000 0.27896  0.84643  0.86471  Biso   1.000  H
  H54      1.0000 0.22104  0.15357  0.36471  Biso   1.000  H
  H55      1.0000 0.77896  0.65357  0.13529  Biso   1.000  H
  H56      1.0000 0.72104  0.34643  0.63529  Biso   1.000  H
  H57      1.0000 0.75001  0.24851  0.16482  Biso   1.000  H
  H58      1.0000 0.74999  0.75149  0.66482  Biso   1.000  H
  H59      1.0000 0.25001  0.25149  0.83518  Biso   1.000  H
  H60      1.0000 0.24999  0.74851  0.33518  Biso   1.000  H
  H61      1.0000 0.24999  0.75149  0.83518  Biso   1.000  H
  H62      1.0000 0.25001  0.24851  0.33518  Biso   1.000  H
  H63      1.0000 0.74999  0.74851  0.16482  Biso   1.000  H
  H64      1.0000 0.75001  0.25149  0.66482  Biso   1.000  H
  H65      1.0000 0.73753  0.23127  0.07695  Biso   1.000  H
  H66      1.0000 0.76247  0.76873  0.57695  Biso   1.000  H
  H67      1.0000 0.23753  0.26873  0.92305  Biso   1.000  H
  H68      1.0000 0.26247  0.73127  0.42305  Biso   1.000  H
  H69      1.0000 0.26247  0.76873  0.92305  Biso   1.000  H
  H70      1.0000 0.23753  0.23127  0.42305  Biso   1.000  H
  H71      1.0000 0.76247  0.73127  0.07695  Biso   1.000  H
  H72      1.0000 0.73753  0.26873  0.57695  Biso   1.000  H
  H73      1.0000 0.27191  0.34629  0.12878  Biso   1.000  H
  H74      1.0000 0.22809  0.65371  0.62878  Biso   1.000  H
  H75      1.0000 0.77191  0.15371  0.87122  Biso   1.000  H
  H76      1.0000 0.72809  0.84629  0.37122  Biso   1.000  H
  H77      1.0000 0.72809  0.65371  0.87122  Biso   1.000  H
  H78      1.0000 0.77191  0.34629  0.37122  Biso   1.000  H
  H79      1.0000 0.22809  0.84629  0.12878  Biso   1.000  H
  H80      1.0000 0.27191  0.15371  0.62878  Biso   1.000  H
  H81      1.0000 0.27251  0.26571  0.18557  Biso   1.000  H
  H82      1.0000 0.22749  0.73429  0.68557  Biso   1.000  H
  H83      1.0000 0.77251  0.23429  0.81443  Biso   1.000  H
  H84      1.0000 0.72749  0.76571  0.31443  Biso   1.000  H
  H85      1.0000 0.72749  0.73429  0.81443  Biso   1.000  H
  H86      1.0000 0.77251  0.26571  0.31443  Biso   1.000  H
  H87      1.0000 0.22749  0.76571  0.18557  Biso   1.000  H
  H88      1.0000 0.27251  0.23429  0.68557  Biso   1.000  H
  H89      1.0000 0.25900  0.24927  0.09768  Biso   1.000  H
  H90      1.0000 0.24100  0.75073  0.59768  Biso   1.000  H
  H91      1.0000 0.75900  0.25073  0.90232  Biso   1.000  H
  H92      1.0000 0.74100  0.74927  0.40232  Biso   1.000  H
  H93      1.0000 0.74100  0.75073  0.90232  Biso   1.000  H
  H94      1.0000 0.75900  0.24927  0.40232  Biso   1.000  H
  H95      1.0000 0.24100  0.74927  0.09768  Biso   1.000  H
  H96      1.0000 0.25900  0.25073  0.59768  Biso   1.000  H
  C81      1.0000 0.00270  0.32210  0.16930  Biso   1.000  C
  C82      1.0000 0.49730  0.67790  0.66930  Biso   1.000  C
  C83      1.0000 0.50270  0.17790  0.83070  Biso   1.000  C
  C84      1.0000 0.99730  0.82210  0.33070  Biso   1.000  C
  C85      1.0000 0.99730  0.67790  0.83070  Biso   1.000  C
  C86      1.0000 0.50270  0.32210  0.33070  Biso   1.000  C
  C87      1.0000 0.49730  0.82210  0.16930  Biso   1.000  C
  C88      1.0000 0.00270  0.17790  0.66930  Biso   1.000  C
  C89      1.0000 0.00990  0.17070  0.15510  Biso   1.000  C
  C90      1.0000 0.49010  0.82930  0.65510  Biso   1.000  C
  C91      1.0000 0.50990  0.32930  0.84490  Biso   1.000  C
  C92      1.0000 0.99010  0.67070  0.34490  Biso   1.000  C
  C93      1.0000 0.99010  0.82930  0.84490  Biso   1.000  C
  C94      1.0000 0.50990  0.17070  0.34490  Biso   1.000  C
  C95      1.0000 0.49010  0.67070  0.15510  Biso   1.000  C
  C96      1.0000 0.00990  0.32930  0.65510  Biso   1.000  C
  O1       1.0000 0.05770  0.26150  0.05370  Biso   1.000  O
  O2       1.0000 0.44230  0.73850  0.55370  Biso   1.000  O
  O3       1.0000 0.55770  0.23850  0.94630  Biso   1.000  O
  O4       1.0000 0.94230  0.76150  0.44630  Biso   1.000  O
  O5       1.0000 0.94230  0.73850  0.94630  Biso   1.000  O
  O6       1.0000 0.55770  0.26150  0.44630  Biso   1.000  O
  O7       1.0000 0.44230  0.76150  0.05370  Biso   1.000  O
  O8       1.0000 0.05770  0.23850  0.55370  Biso   1.000  O
  C97      1.0000 0.01040  0.17730  0.07770  Biso   1.000  C
  C98      1.0000 0.48960  0.82270  0.57770  Biso   1.000  C
  C99      1.0000 0.51040  0.32270  0.92230  Biso   1.000  C
  C100     1.0000 0.98960  0.67730  0.42230  Biso   1.000  C
  C101     1.0000 0.98960  0.82270  0.92230  Biso   1.000  C
  C102     1.0000 0.51040  0.17730  0.42230  Biso   1.000  C
  C103     1.0000 0.48960  0.67730  0.07770  Biso   1.000  C
  C104     1.0000 0.01040  0.32270  0.57770  Biso   1.000  C
  C105     1.0000 0.00780  0.33270  0.08250  Biso   1.000  C
  C106     1.0000 0.49220  0.66730  0.58250  Biso   1.000  C
  C107     1.0000 0.50780  0.16730  0.91750  Biso   1.000  C
  C108     1.0000 0.99220  0.83270  0.41750  Biso   1.000  C
  C109     1.0000 0.99220  0.66730  0.91750  Biso   1.000  C
  C110     1.0000 0.50780  0.33270  0.41750  Biso   1.000  C
  C111     1.0000 0.49220  0.83270  0.08250  Biso   1.000  C
  C112     1.0000 0.00780  0.16730  0.58250  Biso   1.000  C
  O9       1.0000 0.05430  0.24890  0.19030  Biso   1.000  O
  O10      1.0000 0.44570  0.75110  0.69030  Biso   1.000  O
  O11      1.0000 0.55430  0.25110  0.80970  Biso   1.000  O
  O12      1.0000 0.94570  0.74890  0.30970  Biso   1.000  O
  O13      1.0000 0.94570  0.75110  0.80970  Biso   1.000  O
  O14      1.0000 0.55430  0.24890  0.30970  Biso   1.000  O
  O15      1.0000 0.44570  0.74890  0.19030  Biso   1.000  O
  O16      1.0000 0.05430  0.25110  0.69030  Biso   1.000  O
  H97      1.0000 0.02715  0.37231  0.19751  Biso   1.000  H
  H98      1.0000 0.47285  0.62769  0.69751  Biso   1.000  H
  H99      1.0000 0.52715  0.12769  0.80249  Biso   1.000  H
  H100     1.0000 0.97285  0.87231  0.30249  Biso   1.000  H
  H101     1.0000 0.97285  0.62769  0.80249  Biso   1.000  H
  H102     1.0000 0.52715  0.37231  0.30249  Biso   1.000  H
  H103     1.0000 0.47285  0.87231  0.19751  Biso   1.000  H
  H104     1.0000 0.02715  0.12769  0.69751  Biso   1.000  H
  H105     1.0000 0.93296  0.31302  0.18073  Biso   1.000  H
  H106     1.0000 0.56704  0.68698  0.68073  Biso   1.000  H
  H107     1.0000 0.43296  0.18698  0.81927  Biso   1.000  H
  H108     1.0000 0.06704  0.81302  0.31927  Biso   1.000  H
  H109     1.0000 0.06704  0.68698  0.81927  Biso   1.000  H
  H110     1.0000 0.43296  0.31302  0.31927  Biso   1.000  H
  H111     1.0000 0.56704  0.81302  0.18073  Biso   1.000  H
  H112     1.0000 0.93296  0.18698  0.68073  Biso   1.000  H
  H113     1.0000 0.94149  0.16153  0.17031  Biso   1.000  H
  H114     1.0000 0.55851  0.83847  0.67031  Biso   1.000  H
  H115     1.0000 0.44149  0.33847  0.82969  Biso   1.000  H
  H116     1.0000 0.05851  0.66153  0.32969  Biso   1.000  H
  H117     1.0000 0.05851  0.83847  0.82969  Biso   1.000  H
  H118     1.0000 0.44149  0.16153  0.32969  Biso   1.000  H
  H119     1.0000 0.55851  0.66153  0.17031  Biso   1.000  H
  H120     1.0000 0.94149  0.33847  0.67031  Biso   1.000  H
  H121     1.0000 0.04871  0.11882  0.16739  Biso   1.000  H
  H122     1.0000 0.45129  0.88118  0.66739  Biso   1.000  H
  H123     1.0000 0.54871  0.38118  0.83261  Biso   1.000  H
  H124     1.0000 0.95129  0.61882  0.33261  Biso   1.000  H
  H125     1.0000 0.95129  0.88118  0.83261  Biso   1.000  H
  H126     1.0000 0.54871  0.11882  0.33261  Biso   1.000  H
  H127     1.0000 0.45129  0.61882  0.16739  Biso   1.000  H
  H128     1.0000 0.04871  0.38118  0.66739  Biso   1.000  H
  H129     1.0000 0.94337  0.34458  0.06013  Biso   1.000  H
  H130     1.0000 0.55663  0.65542  0.56013  Biso   1.000  H
  H131     1.0000 0.44337  0.15542  0.93987  Biso   1.000  H
  H132     1.0000 0.05663  0.84458  0.43987  Biso   1.000  H
  H133     1.0000 0.05663  0.65542  0.93987  Biso   1.000  H
  H134     1.0000 0.44337  0.34458  0.43987  Biso   1.000  H
  H135     1.0000 0.55663  0.84458  0.06013  Biso   1.000  H
  H136     1.0000 0.94337  0.15542  0.56013  Biso   1.000  H
  H137     1.0000 0.05101  0.38295  0.07493  Biso   1.000  H
  H138     1.0000 0.44899  0.61705  0.57493  Biso   1.000  H
  H139     1.0000 0.55101  0.11705  0.92507  Biso   1.000  H
  H140     1.0000 0.94899  0.88295  0.42507  Biso   1.000  H
  H141     1.0000 0.94899  0.61705  0.92507  Biso   1.000  H
  H142     1.0000 0.55101  0.38295  0.42507  Biso   1.000  H
  H143     1.0000 0.44899  0.88295  0.07493  Biso   1.000  H
  H144     1.0000 0.05101  0.11705  0.57493  Biso   1.000  H
  H145     1.0000 0.04964  0.13169  0.05381  Biso   1.000  H
  H146     1.0000 0.45036  0.86831  0.55381  Biso   1.000  H
  H147     1.0000 0.54964  0.36831  0.94619  Biso   1.000  H
  H148     1.0000 0.95036  0.63169  0.44619  Biso   1.000  H
  H149     1.0000 0.95036  0.86831  0.94619  Biso   1.000  H
  H150     1.0000 0.54964  0.13169  0.44619  Biso   1.000  H
  H151     1.0000 0.45036  0.63169  0.05381  Biso   1.000  H
  H152     1.0000 0.04964  0.36831  0.55381  Biso   1.000  H
  H153     1.0000 0.94362  0.17667  0.05709  Biso   1.000  H
  H154     1.0000 0.55638  0.82333  0.55709  Biso   1.000  H
  H155     1.0000 0.44362  0.32333  0.94291  Biso   1.000  H
  H156     1.0000 0.05638  0.67667  0.44291  Biso   1.000  H
  H157     1.0000 0.05638  0.82333  0.94291  Biso   1.000  H
  H158     1.0000 0.44362  0.17667  0.44291  Biso   1.000  H
  H159     1.0000 0.55638  0.67667  0.05709  Biso   1.000  H
  H160     1.0000 0.94362  0.32333  0.55709  Biso   1.000  H
