data_image0
_cell_length_a       11.6934
_cell_length_b       17.8761
_cell_length_c       15.444
_cell_angle_alpha    90
_cell_angle_beta     112.131
_cell_angle_gamma    90

_symmetry_space_group_name_H-M    "P 1"
_symmetry_int_tables_number       1

loop_
  _symmetry_equiv_pos_as_xyz
  'x, y, z'

loop_
  _atom_site_label
  _atom_site_occupancy
  _atom_site_fract_x
  _atom_site_fract_y
  _atom_site_fract_z
  _atom_site_thermal_displace_type
  _atom_site_B_iso_or_equiv
  _atom_site_type_symbol
  Cu1      1.0000 0.41233  0.47881  0.15798  Biso   1.000  Cu
  Cu2      1.0000 0.91233  0.97881  0.15798  Biso   1.000  Cu
  Cu3      1.0000 0.41233  0.52119  0.65798  Biso   1.000  Cu
  Cu4      1.0000 0.91233  0.02119  0.65798  Biso   1.000  Cu
  Cu5      1.0000 0.58767  0.52119  0.84202  Biso   1.000  Cu
  Cu6      1.0000 0.08767  0.02119  0.84202  Biso   1.000  Cu
  Cu7      1.0000 0.58767  0.47881  0.34202  Biso   1.000  Cu
  Cu8      1.0000 0.08767  0.97881  0.34202  Biso   1.000  Cu
  Cl1      1.0000 0.62298  0.51230  0.20171  Biso   1.000  Cl
  Cl2      1.0000 0.12298  0.01230  0.20171  Biso   1.000  Cl
  Cl3      1.0000 0.62298  0.48770  0.70171  Biso   1.000  Cl
  Cl4      1.0000 0.12298  0.98770  0.70171  Biso   1.000  Cl
  Cl5      1.0000 0.37702  0.48770  0.79829  Biso   1.000  Cl
  Cl6      1.0000 0.87702  0.98770  0.79829  Biso   1.000  Cl
  Cl7      1.0000 0.37702  0.51230  0.29829  Biso   1.000  Cl
  Cl8      1.0000 0.87702  0.01230  0.29829  Biso   1.000  Cl
  C1       1.0000 0.47180  0.36033  0.01690  Biso   1.000  C
  C2       1.0000 0.97180  0.86033  0.01690  Biso   1.000  C
  C3       1.0000 0.47180  0.63967  0.51690  Biso   1.000  C
  C4       1.0000 0.97180  0.13967  0.51690  Biso   1.000  C
  C5       1.0000 0.52820  0.63967  0.98310  Biso   1.000  C
  C6       1.0000 0.02820  0.13967  0.98310  Biso   1.000  C
  C7       1.0000 0.52820  0.36033  0.48310  Biso   1.000  C
  C8       1.0000 0.02820  0.86033  0.48310  Biso   1.000  C
  H1       1.0000 0.53950  0.39460  0.05290  Biso   1.000  H
  H2       1.0000 0.03950  0.89460  0.05290  Biso   1.000  H
  H3       1.0000 0.53950  0.60540  0.55290  Biso   1.000  H
  H4       1.0000 0.03950  0.10540  0.55290  Biso   1.000  H
  H5       1.0000 0.46050  0.60540  0.94710  Biso   1.000  H
  H6       1.0000 0.96050  0.10540  0.94710  Biso   1.000  H
  H7       1.0000 0.46050  0.39460  0.44710  Biso   1.000  H
  H8       1.0000 0.96050  0.89460  0.44710  Biso   1.000  H
  H9       1.0000 0.40730  0.39020  0.96910  Biso   1.000  H
  H10      1.0000 0.90730  0.89020  0.96910  Biso   1.000  H
  H11      1.0000 0.40730  0.60980  0.46910  Biso   1.000  H
  H12      1.0000 0.90730  0.10980  0.46910  Biso   1.000  H
  H13      1.0000 0.59270  0.60980  0.03090  Biso   1.000  H
  H14      1.0000 0.09270  0.10980  0.03090  Biso   1.000  H
  H15      1.0000 0.59270  0.39020  0.53090  Biso   1.000  H
  H16      1.0000 0.09270  0.89020  0.53090  Biso   1.000  H
  C9       1.0000 0.52100  0.30199  0.96900  Biso   1.000  C
  C10      1.0000 0.02100  0.80199  0.96900  Biso   1.000  C
  C11      1.0000 0.52100  0.69801  0.46900  Biso   1.000  C
  C12      1.0000 0.02100  0.19801  0.46900  Biso   1.000  C
  C13      1.0000 0.47900  0.69801  0.03100  Biso   1.000  C
  C14      1.0000 0.97900  0.19801  0.03100  Biso   1.000  C
  C15      1.0000 0.47900  0.30199  0.53100  Biso   1.000  C
  C16      1.0000 0.97900  0.80199  0.53100  Biso   1.000  C
  H17      1.0000 0.45270  0.26890  0.93080  Biso   1.000  H
  H18      1.0000 0.95270  0.76890  0.93080  Biso   1.000  H
  H19      1.0000 0.45270  0.73110  0.43080  Biso   1.000  H
  H20      1.0000 0.95270  0.23110  0.43080  Biso   1.000  H
  H21      1.0000 0.54730  0.73110  0.06920  Biso   1.000  H
  H22      1.0000 0.04730  0.23110  0.06920  Biso   1.000  H
  H23      1.0000 0.54730  0.26890  0.56920  Biso   1.000  H
  H24      1.0000 0.04730  0.76890  0.56920  Biso   1.000  H
  H25      1.0000 0.58330  0.27080  0.01670  Biso   1.000  H
  H26      1.0000 0.08330  0.77080  0.01670  Biso   1.000  H
  H27      1.0000 0.58330  0.72920  0.51670  Biso   1.000  H
  H28      1.0000 0.08330  0.22920  0.51670  Biso   1.000  H
  H29      1.0000 0.41670  0.72920  0.98330  Biso   1.000  H
  H30      1.0000 0.91670  0.22920  0.98330  Biso   1.000  H
  H31      1.0000 0.41670  0.27080  0.48330  Biso   1.000  H
  H32      1.0000 0.91670  0.77080  0.48330  Biso   1.000  H
  C17      1.0000 0.57930  0.33865  0.90680  Biso   1.000  C
  C18      1.0000 0.07930  0.83865  0.90680  Biso   1.000  C
  C19      1.0000 0.57930  0.66135  0.40680  Biso   1.000  C
  C20      1.0000 0.07930  0.16135  0.40680  Biso   1.000  C
  C21      1.0000 0.42070  0.66135  0.09320  Biso   1.000  C
  C22      1.0000 0.92070  0.16135  0.09320  Biso   1.000  C
  C23      1.0000 0.42070  0.33865  0.59320  Biso   1.000  C
  C24      1.0000 0.92070  0.83865  0.59320  Biso   1.000  C
  H33      1.0000 0.60250  0.29950  0.87120  Biso   1.000  H
  H34      1.0000 0.10250  0.79950  0.87120  Biso   1.000  H
  H35      1.0000 0.60250  0.70050  0.37120  Biso   1.000  H
  H36      1.0000 0.10250  0.20050  0.37120  Biso   1.000  H
  H37      1.0000 0.39750  0.70050  0.12880  Biso   1.000  H
  H38      1.0000 0.89750  0.20050  0.12880  Biso   1.000  H
  H39      1.0000 0.39750  0.29950  0.62880  Biso   1.000  H
  H40      1.0000 0.89750  0.79950  0.62880  Biso   1.000  H
  H41      1.0000 0.51790  0.37180  0.86140  Biso   1.000  H
  H42      1.0000 0.01790  0.87180  0.86140  Biso   1.000  H
  H43      1.0000 0.51790  0.62820  0.36140  Biso   1.000  H
  H44      1.0000 0.01790  0.12820  0.36140  Biso   1.000  H
  H45      1.0000 0.48210  0.62820  0.13860  Biso   1.000  H
  H46      1.0000 0.98210  0.12820  0.13860  Biso   1.000  H
  H47      1.0000 0.48210  0.37180  0.63860  Biso   1.000  H
  H48      1.0000 0.98210  0.87180  0.63860  Biso   1.000  H
  N1       1.0000 0.38500  0.36811  0.13732  Biso   1.000  N
  N2       1.0000 0.88500  0.86811  0.13732  Biso   1.000  N
  N3       1.0000 0.38500  0.63189  0.63732  Biso   1.000  N
  N4       1.0000 0.88500  0.13189  0.63732  Biso   1.000  N
  N5       1.0000 0.61500  0.63189  0.86268  Biso   1.000  N
  N6       1.0000 0.11500  0.13189  0.86268  Biso   1.000  N
  N7       1.0000 0.61500  0.36811  0.36268  Biso   1.000  N
  N8       1.0000 0.11500  0.86811  0.36268  Biso   1.000  N
  N9       1.0000 0.41940  0.32566  0.08014  Biso   1.000  N
  N10      1.0000 0.91940  0.82566  0.08014  Biso   1.000  N
  N11      1.0000 0.41940  0.67434  0.58014  Biso   1.000  N
  N12      1.0000 0.91940  0.17434  0.58014  Biso   1.000  N
  N13      1.0000 0.58060  0.67434  0.91986  Biso   1.000  N
  N14      1.0000 0.08060  0.17434  0.91986  Biso   1.000  N
  N15      1.0000 0.58060  0.32566  0.41986  Biso   1.000  N
  N16      1.0000 0.08060  0.82566  0.41986  Biso   1.000  N
  N17      1.0000 0.40220  0.25257  0.08320  Biso   1.000  N
  N18      1.0000 0.90220  0.75257  0.08320  Biso   1.000  N
  N19      1.0000 0.40220  0.74743  0.58320  Biso   1.000  N
  N20      1.0000 0.90220  0.24743  0.58320  Biso   1.000  N
  N21      1.0000 0.59780  0.74743  0.91680  Biso   1.000  N
  N22      1.0000 0.09780  0.24743  0.91680  Biso   1.000  N
  N23      1.0000 0.59780  0.25257  0.41680  Biso   1.000  N
  N24      1.0000 0.09780  0.75257  0.41680  Biso   1.000  N
  C25      1.0000 0.35250  0.24562  0.14930  Biso   1.000  C
  C26      1.0000 0.85250  0.74562  0.14930  Biso   1.000  C
  C27      1.0000 0.35250  0.75438  0.64930  Biso   1.000  C
  C28      1.0000 0.85250  0.25438  0.64930  Biso   1.000  C
  C29      1.0000 0.64750  0.75438  0.85070  Biso   1.000  C
  C30      1.0000 0.14750  0.25438  0.85070  Biso   1.000  C
  C31      1.0000 0.64750  0.24562  0.35070  Biso   1.000  C
  C32      1.0000 0.14750  0.74562  0.35070  Biso   1.000  C
  C33      1.0000 0.31550  0.18134  0.18500  Biso   1.000  C
  C34      1.0000 0.81550  0.68134  0.18500  Biso   1.000  C
  C35      1.0000 0.31550  0.81866  0.68500  Biso   1.000  C
  C36      1.0000 0.81550  0.31866  0.68500  Biso   1.000  C
  C37      1.0000 0.68450  0.81866  0.81500  Biso   1.000  C
  C38      1.0000 0.18450  0.31866  0.81500  Biso   1.000  C
  C39      1.0000 0.68450  0.18134  0.31500  Biso   1.000  C
  C40      1.0000 0.18450  0.68134  0.31500  Biso   1.000  C
  H49      1.0000 0.32310  0.13270  0.16300  Biso   1.000  H
  H50      1.0000 0.82310  0.63270  0.16300  Biso   1.000  H
  H51      1.0000 0.32310  0.86730  0.66300  Biso   1.000  H
  H52      1.0000 0.82310  0.36730  0.66300  Biso   1.000  H
  H53      1.0000 0.67690  0.86730  0.83700  Biso   1.000  H
  H54      1.0000 0.17690  0.36730  0.83700  Biso   1.000  H
  H55      1.0000 0.67690  0.13270  0.33700  Biso   1.000  H
  H56      1.0000 0.17690  0.63270  0.33700  Biso   1.000  H
  C41      1.0000 0.26820  0.19218  0.25250  Biso   1.000  C
  C42      1.0000 0.76820  0.69218  0.25250  Biso   1.000  C
  C43      1.0000 0.26820  0.80782  0.75250  Biso   1.000  C
  C44      1.0000 0.76820  0.30782  0.75250  Biso   1.000  C
  C45      1.0000 0.73180  0.80782  0.74750  Biso   1.000  C
  C46      1.0000 0.23180  0.30782  0.74750  Biso   1.000  C
  C47      1.0000 0.73180  0.19218  0.24750  Biso   1.000  C
  C48      1.0000 0.23180  0.69218  0.24750  Biso   1.000  C
  H57      1.0000 0.24180  0.15020  0.27770  Biso   1.000  H
  H58      1.0000 0.74180  0.65020  0.27770  Biso   1.000  H
  H59      1.0000 0.24180  0.84980  0.77770  Biso   1.000  H
  H60      1.0000 0.74180  0.34980  0.77770  Biso   1.000  H
  H61      1.0000 0.75820  0.84980  0.72230  Biso   1.000  H
  H62      1.0000 0.25820  0.34980  0.72230  Biso   1.000  H
  H63      1.0000 0.75820  0.15020  0.22230  Biso   1.000  H
  H64      1.0000 0.25820  0.65020  0.22230  Biso   1.000  H
  C49      1.0000 0.25770  0.26475  0.28560  Biso   1.000  C
  C50      1.0000 0.75770  0.76475  0.28560  Biso   1.000  C
  C51      1.0000 0.25770  0.73525  0.78560  Biso   1.000  C
  C52      1.0000 0.75770  0.23525  0.78560  Biso   1.000  C
  C53      1.0000 0.74230  0.73525  0.71440  Biso   1.000  C
  C54      1.0000 0.24230  0.23525  0.71440  Biso   1.000  C
  C55      1.0000 0.74230  0.26475  0.21440  Biso   1.000  C
  C56      1.0000 0.24230  0.76475  0.21440  Biso   1.000  C
  H65      1.0000 0.22510  0.26960  0.33310  Biso   1.000  H
  H66      1.0000 0.72510  0.76960  0.33310  Biso   1.000  H
  H67      1.0000 0.22510  0.73040  0.83310  Biso   1.000  H
  H68      1.0000 0.72510  0.23040  0.83310  Biso   1.000  H
  H69      1.0000 0.77490  0.73040  0.66690  Biso   1.000  H
  H70      1.0000 0.27490  0.23040  0.66690  Biso   1.000  H
  H71      1.0000 0.77490  0.26960  0.16690  Biso   1.000  H
  H72      1.0000 0.27490  0.76960  0.16690  Biso   1.000  H
  C57      1.0000 0.29220  0.32789  0.25230  Biso   1.000  C
  C58      1.0000 0.79220  0.82789  0.25230  Biso   1.000  C
  C59      1.0000 0.29220  0.67211  0.75230  Biso   1.000  C
  C60      1.0000 0.79220  0.17211  0.75230  Biso   1.000  C
  C61      1.0000 0.70780  0.67211  0.74770  Biso   1.000  C
  C62      1.0000 0.20780  0.17211  0.74770  Biso   1.000  C
  C63      1.0000 0.70780  0.32789  0.24770  Biso   1.000  C
  C64      1.0000 0.20780  0.82789  0.24770  Biso   1.000  C
  H73      1.0000 0.28390  0.37620  0.27490  Biso   1.000  H
  H74      1.0000 0.78390  0.87620  0.27490  Biso   1.000  H
  H75      1.0000 0.28390  0.62380  0.77490  Biso   1.000  H
  H76      1.0000 0.78390  0.12380  0.77490  Biso   1.000  H
  H77      1.0000 0.71610  0.62380  0.72510  Biso   1.000  H
  H78      1.0000 0.21610  0.12380  0.72510  Biso   1.000  H
  H79      1.0000 0.71610  0.37620  0.22510  Biso   1.000  H
  H80      1.0000 0.21610  0.87620  0.22510  Biso   1.000  H
  C65      1.0000 0.34110  0.31735  0.18250  Biso   1.000  C
  C66      1.0000 0.84110  0.81735  0.18250  Biso   1.000  C
  C67      1.0000 0.34110  0.68265  0.68250  Biso   1.000  C
  C68      1.0000 0.84110  0.18265  0.68250  Biso   1.000  C
  C69      1.0000 0.65890  0.68265  0.81750  Biso   1.000  C
  C70      1.0000 0.15890  0.18265  0.81750  Biso   1.000  C
  C71      1.0000 0.65890  0.31735  0.31750  Biso   1.000  C
  C72      1.0000 0.15890  0.81735  0.31750  Biso   1.000  C
  N25      1.0000 0.69740  0.45591  0.94671  Biso   1.000  N
  N26      1.0000 0.19740  0.95591  0.94671  Biso   1.000  N
  N27      1.0000 0.69740  0.54409  0.44671  Biso   1.000  N
  N28      1.0000 0.19740  0.04409  0.44671  Biso   1.000  N
  N29      1.0000 0.30260  0.54409  0.05329  Biso   1.000  N
  N30      1.0000 0.80260  0.04409  0.05329  Biso   1.000  N
  N31      1.0000 0.30260  0.45591  0.55329  Biso   1.000  N
  N32      1.0000 0.80260  0.95591  0.55329  Biso   1.000  N
  N33      1.0000 0.68910  0.38245  0.96087  Biso   1.000  N
  N34      1.0000 0.18910  0.88245  0.96087  Biso   1.000  N
  N35      1.0000 0.68910  0.61755  0.46087  Biso   1.000  N
  N36      1.0000 0.18910  0.11755  0.46087  Biso   1.000  N
  N37      1.0000 0.31090  0.61755  0.03913  Biso   1.000  N
  N38      1.0000 0.81090  0.11755  0.03913  Biso   1.000  N
  N39      1.0000 0.31090  0.38245  0.53913  Biso   1.000  N
  N40      1.0000 0.81090  0.88245  0.53913  Biso   1.000  N
  N41      1.0000 0.78510  0.35099  0.02770  Biso   1.000  N
  N42      1.0000 0.28510  0.85099  0.02770  Biso   1.000  N
  N43      1.0000 0.78510  0.64901  0.52770  Biso   1.000  N
  N44      1.0000 0.28510  0.14901  0.52770  Biso   1.000  N
  N45      1.0000 0.21490  0.64901  0.97230  Biso   1.000  N
  N46      1.0000 0.71490  0.14901  0.97230  Biso   1.000  N
  N47      1.0000 0.21490  0.35099  0.47230  Biso   1.000  N
  N48      1.0000 0.71490  0.85099  0.47230  Biso   1.000  N
  C73      1.0000 0.86380  0.40890  0.06070  Biso   1.000  C
  C74      1.0000 0.36380  0.90890  0.06070  Biso   1.000  C
  C75      1.0000 0.86380  0.59110  0.56070  Biso   1.000  C
  C76      1.0000 0.36380  0.09110  0.56070  Biso   1.000  C
  C77      1.0000 0.13620  0.59110  0.93930  Biso   1.000  C
  C78      1.0000 0.63620  0.09110  0.93930  Biso   1.000  C
  C79      1.0000 0.13620  0.40890  0.43930  Biso   1.000  C
  C80      1.0000 0.63620  0.90890  0.43930  Biso   1.000  C
  C81      1.0000 0.98240  0.41040  0.13200  Biso   1.000  C
  C82      1.0000 0.48240  0.91040  0.13200  Biso   1.000  C
  C83      1.0000 0.98240  0.58960  0.63200  Biso   1.000  C
  C84      1.0000 0.48240  0.08960  0.63200  Biso   1.000  C
  C85      1.0000 0.01760  0.58960  0.86800  Biso   1.000  C
  C86      1.0000 0.51760  0.08960  0.86800  Biso   1.000  C
  C87      1.0000 0.01760  0.41040  0.36800  Biso   1.000  C
  C88      1.0000 0.51760  0.91040  0.36800  Biso   1.000  C
  H81      1.0000 0.02000  0.36650  0.16510  Biso   1.000  H
  H82      1.0000 0.52000  0.86650  0.16510  Biso   1.000  H
  H83      1.0000 0.02000  0.63350  0.66510  Biso   1.000  H
  H84      1.0000 0.52000  0.13350  0.66510  Biso   1.000  H
  H85      1.0000 0.98000  0.63350  0.83490  Biso   1.000  H
  H86      1.0000 0.48000  0.13350  0.83490  Biso   1.000  H
  H87      1.0000 0.98000  0.36650  0.33490  Biso   1.000  H
  H88      1.0000 0.48000  0.86650  0.33490  Biso   1.000  H
  C89      1.0000 0.04060  0.47810  0.15120  Biso   1.000  C
  C90      1.0000 0.54060  0.97810  0.15120  Biso   1.000  C
  C91      1.0000 0.04060  0.52190  0.65120  Biso   1.000  C
  C92      1.0000 0.54060  0.02190  0.65120  Biso   1.000  C
  C93      1.0000 0.95940  0.52190  0.84880  Biso   1.000  C
  C94      1.0000 0.45940  0.02190  0.84880  Biso   1.000  C
  C95      1.0000 0.95940  0.47810  0.34880  Biso   1.000  C
  C96      1.0000 0.45940  0.97810  0.34880  Biso   1.000  C
  H89      1.0000 0.12030  0.48130  0.19930  Biso   1.000  H
  H90      1.0000 0.62030  0.98130  0.19930  Biso   1.000  H
  H91      1.0000 0.12030  0.51870  0.69930  Biso   1.000  H
  H92      1.0000 0.62030  0.01870  0.69930  Biso   1.000  H
  H93      1.0000 0.87970  0.51870  0.80070  Biso   1.000  H
  H94      1.0000 0.37970  0.01870  0.80070  Biso   1.000  H
  H95      1.0000 0.87970  0.48130  0.30070  Biso   1.000  H
  H96      1.0000 0.37970  0.98130  0.30070  Biso   1.000  H
  C97      1.0000 0.98560  0.54420  0.10130  Biso   1.000  C
  C98      1.0000 0.48560  0.04420  0.10130  Biso   1.000  C
  C99      1.0000 0.98560  0.45580  0.60130  Biso   1.000  C
  C100     1.0000 0.48560  0.95580  0.60130  Biso   1.000  C
  C101     1.0000 0.01440  0.45580  0.89870  Biso   1.000  C
  C102     1.0000 0.51440  0.95580  0.89870  Biso   1.000  C
  C103     1.0000 0.01440  0.54420  0.39870  Biso   1.000  C
  C104     1.0000 0.51440  0.04420  0.39870  Biso   1.000  C
  H97      1.0000 0.02990  0.59000  0.11700  Biso   1.000  H
  H98      1.0000 0.52990  0.09000  0.11700  Biso   1.000  H
  H99      1.0000 0.02990  0.41000  0.61700  Biso   1.000  H
  H100     1.0000 0.52990  0.91000  0.61700  Biso   1.000  H
  H101     1.0000 0.97010  0.41000  0.88300  Biso   1.000  H
  H102     1.0000 0.47010  0.91000  0.88300  Biso   1.000  H
  H103     1.0000 0.97010  0.59000  0.38300  Biso   1.000  H
  H104     1.0000 0.47010  0.09000  0.38300  Biso   1.000  H
  C105     1.0000 0.87160  0.54360  0.03180  Biso   1.000  C
  C106     1.0000 0.37160  0.04360  0.03180  Biso   1.000  C
  C107     1.0000 0.87160  0.45640  0.53180  Biso   1.000  C
  C108     1.0000 0.37160  0.95640  0.53180  Biso   1.000  C
  C109     1.0000 0.12840  0.45640  0.96820  Biso   1.000  C
  C110     1.0000 0.62840  0.95640  0.96820  Biso   1.000  C
  C111     1.0000 0.12840  0.54360  0.46820  Biso   1.000  C
  C112     1.0000 0.62840  0.04360  0.46820  Biso   1.000  C
  H105     1.0000 0.83530  0.58780  0.99860  Biso   1.000  H
  H106     1.0000 0.33530  0.08780  0.99860  Biso   1.000  H
  H107     1.0000 0.83530  0.41220  0.49860  Biso   1.000  H
  H108     1.0000 0.33530  0.91220  0.49860  Biso   1.000  H
  H109     1.0000 0.16470  0.41220  0.00140  Biso   1.000  H
  H110     1.0000 0.66470  0.91220  0.00140  Biso   1.000  H
  H111     1.0000 0.16470  0.58780  0.50140  Biso   1.000  H
  H112     1.0000 0.66470  0.08780  0.50140  Biso   1.000  H
  C113     1.0000 0.81010  0.47447  0.01150  Biso   1.000  C
  C114     1.0000 0.31010  0.97447  0.01150  Biso   1.000  C
  C115     1.0000 0.81010  0.52553  0.51150  Biso   1.000  C
  C116     1.0000 0.31010  0.02553  0.51150  Biso   1.000  C
  C117     1.0000 0.18990  0.52553  0.98850  Biso   1.000  C
  C118     1.0000 0.68990  0.02553  0.98850  Biso   1.000  C
  C119     1.0000 0.18990  0.47447  0.48850  Biso   1.000  C
  C120     1.0000 0.68990  0.97447  0.48850  Biso   1.000  C
