data_image0
_cell_length_a       9.345
_cell_length_b       13.772
_cell_length_c       21.822
_cell_angle_alpha    90
_cell_angle_beta     99.411
_cell_angle_gamma    90

_symmetry_space_group_name_H-M    "P 1"
_symmetry_int_tables_number       1

loop_
  _symmetry_equiv_pos_as_xyz
  'x, y, z'

loop_
  _atom_site_label
  _atom_site_occupancy
  _atom_site_fract_x
  _atom_site_fract_y
  _atom_site_fract_z
  _atom_site_thermal_displace_type
  _atom_site_B_iso_or_equiv
  _atom_site_type_symbol
  Cu1      1.0000 0.68694  0.64039  0.22199  Biso   1.000  Cu
  Cu2      1.0000 0.18694  0.85961  0.72199  Biso   1.000  Cu
  Cu3      1.0000 0.31306  0.35961  0.77801  Biso   1.000  Cu
  Cu4      1.0000 0.81306  0.14039  0.27801  Biso   1.000  Cu
  P1       1.0000 0.64400  0.78896  0.17835  Biso   1.000  P
  P2       1.0000 0.14400  0.71104  0.67835  Biso   1.000  P
  P3       1.0000 0.35600  0.21104  0.82165  Biso   1.000  P
  P4       1.0000 0.85600  0.28896  0.32165  Biso   1.000  P
  P5       1.0000 0.90630  0.99391  0.31186  Biso   1.000  P
  P6       1.0000 0.40630  0.50609  0.81186  Biso   1.000  P
  P7       1.0000 0.09370  0.00609  0.68814  Biso   1.000  P
  P8       1.0000 0.59370  0.49391  0.18814  Biso   1.000  P
  O1       1.0000 0.68370  0.62880  0.32190  Biso   1.000  O
  O2       1.0000 0.18370  0.87120  0.82190  Biso   1.000  O
  O3       1.0000 0.31630  0.37120  0.67810  Biso   1.000  O
  O4       1.0000 0.81630  0.12880  0.17810  Biso   1.000  O
  O5       1.0000 0.52290  0.63550  0.38700  Biso   1.000  O
  O6       1.0000 0.02290  0.86450  0.88700  Biso   1.000  O
  O7       1.0000 0.47710  0.36450  0.61300  Biso   1.000  O
  O8       1.0000 0.97710  0.13550  0.11300  Biso   1.000  O
  O9       1.0000 0.63900  0.55500  0.34500  Biso   1.000  O
  O10      1.0000 0.13900  0.94500  0.84500  Biso   1.000  O
  O11      1.0000 0.36100  0.44500  0.65500  Biso   1.000  O
  O12      1.0000 0.86100  0.05500  0.15500  Biso   1.000  O
  O13      1.0000 0.49000  0.56400  0.31150  Biso   1.000  O
  O14      1.0000 0.99000  0.93600  0.81150  Biso   1.000  O
  O15      1.0000 0.51000  0.43600  0.68850  Biso   1.000  O
  O16      1.0000 0.01000  0.06400  0.18850  Biso   1.000  O
  O17      1.0000 0.46700  0.67300  0.30270  Biso   1.000  O
  O18      1.0000 0.96700  0.82700  0.80270  Biso   1.000  O
  O19      1.0000 0.53300  0.32700  0.69730  Biso   1.000  O
  O20      1.0000 0.03300  0.17300  0.19730  Biso   1.000  O
  O21      1.0000 0.57800  0.68180  0.30090  Biso   1.000  O
  O22      1.0000 0.07800  0.81820  0.80090  Biso   1.000  O
  O23      1.0000 0.42200  0.31820  0.69910  Biso   1.000  O
  O24      1.0000 0.92200  0.18180  0.19910  Biso   1.000  O
  N1       1.0000 0.90650  0.63160  0.25690  Biso   1.000  N
  N2       1.0000 0.40650  0.86840  0.75690  Biso   1.000  N
  N3       1.0000 0.09350  0.36840  0.74310  Biso   1.000  N
  N4       1.0000 0.59350  0.13160  0.24310  Biso   1.000  N
  N5       1.0000 0.56000  0.63300  0.34040  Biso   1.000  N
  N6       1.0000 0.06000  0.86700  0.84040  Biso   1.000  N
  N7       1.0000 0.44000  0.36700  0.65960  Biso   1.000  N
  N8       1.0000 0.94000  0.13300  0.15960  Biso   1.000  N
  C1       1.0000 0.72600  0.81220  0.10880  Biso   1.000  C
  C2       1.0000 0.22600  0.68780  0.60880  Biso   1.000  C
  C3       1.0000 0.27400  0.18780  0.89120  Biso   1.000  C
  C4       1.0000 0.77400  0.31220  0.39120  Biso   1.000  C
  C5       1.0000 0.79950  0.73870  0.08620  Biso   1.000  C
  C6       1.0000 0.29950  0.76130  0.58620  Biso   1.000  C
  C7       1.0000 0.20050  0.26130  0.91380  Biso   1.000  C
  C8       1.0000 0.70050  0.23870  0.41380  Biso   1.000  C
  H1       1.0000 0.80910  0.67960  0.10700  Biso   1.000  H
  H2       1.0000 0.30910  0.82040  0.60700  Biso   1.000  H
  H3       1.0000 0.19090  0.32040  0.89300  Biso   1.000  H
  H4       1.0000 0.69090  0.17960  0.39300  Biso   1.000  H
  C9       1.0000 0.86050  0.74990  0.03270  Biso   1.000  C
  C10      1.0000 0.36050  0.75010  0.53270  Biso   1.000  C
  C11      1.0000 0.13950  0.25010  0.96730  Biso   1.000  C
  C12      1.0000 0.63950  0.24990  0.46730  Biso   1.000  C
  H5       1.0000 0.91070  0.69900  0.01800  Biso   1.000  H
  H6       1.0000 0.41070  0.80100  0.51800  Biso   1.000  H
  H7       1.0000 0.08930  0.30100  0.98200  Biso   1.000  H
  H8       1.0000 0.58930  0.19900  0.48200  Biso   1.000  H
  C13      1.0000 0.84600  0.83540  0.00240  Biso   1.000  C
  C14      1.0000 0.34600  0.66460  0.50240  Biso   1.000  C
  C15      1.0000 0.15400  0.16460  0.99760  Biso   1.000  C
  C16      1.0000 0.65400  0.33540  0.49760  Biso   1.000  C
  H9       1.0000 0.88100  0.84240  0.96510  Biso   1.000  H
  H10      1.0000 0.38100  0.65760  0.46510  Biso   1.000  H
  H11      1.0000 0.11900  0.15760  0.03490  Biso   1.000  H
  H12      1.0000 0.61900  0.34240  0.53490  Biso   1.000  H
  C17      1.0000 0.77920  0.91270  0.02660  Biso   1.000  C
  C18      1.0000 0.27920  0.58730  0.52660  Biso   1.000  C
  C19      1.0000 0.22080  0.08730  0.97340  Biso   1.000  C
  C20      1.0000 0.72080  0.41270  0.47340  Biso   1.000  C
  H13      1.0000 0.77630  0.97310  0.00740  Biso   1.000  H
  H14      1.0000 0.27630  0.52690  0.50740  Biso   1.000  H
  H15      1.0000 0.22370  0.02690  0.99260  Biso   1.000  H
  H16      1.0000 0.72370  0.47310  0.49260  Biso   1.000  H
  C21      1.0000 0.71590  0.90050  0.08000  Biso   1.000  C
  C22      1.0000 0.21590  0.59950  0.58000  Biso   1.000  C
  C23      1.0000 0.28410  0.09950  0.92000  Biso   1.000  C
  C24      1.0000 0.78410  0.40050  0.42000  Biso   1.000  C
  H17      1.0000 0.66770  0.95170  0.09560  Biso   1.000  H
  H18      1.0000 0.16770  0.54830  0.59560  Biso   1.000  H
  H19      1.0000 0.33230  0.04830  0.90440  Biso   1.000  H
  H20      1.0000 0.83230  0.45170  0.40440  Biso   1.000  H
  C25      1.0000 0.45230  0.82010  0.15590  Biso   1.000  C
  C26      1.0000 0.95230  0.67990  0.65590  Biso   1.000  C
  C27      1.0000 0.54770  0.17990  0.84410  Biso   1.000  C
  C28      1.0000 0.04770  0.32010  0.34410  Biso   1.000  C
  C29      1.0000 0.38410  0.82590  0.09400  Biso   1.000  C
  C30      1.0000 0.88410  0.67410  0.59400  Biso   1.000  C
  C31      1.0000 0.61590  0.17410  0.90600  Biso   1.000  C
  C32      1.0000 0.11590  0.32590  0.40600  Biso   1.000  C
  H21      1.0000 0.43630  0.81270  0.06220  Biso   1.000  H
  H22      1.0000 0.93630  0.68730  0.56220  Biso   1.000  H
  H23      1.0000 0.56370  0.18730  0.93780  Biso   1.000  H
  H24      1.0000 0.06370  0.31270  0.43780  Biso   1.000  H
  C33      1.0000 0.23740  0.85160  0.07980  Biso   1.000  C
  C34      1.0000 0.73740  0.64840  0.57980  Biso   1.000  C
  C35      1.0000 0.76260  0.14840  0.92020  Biso   1.000  C
  C36      1.0000 0.26260  0.35160  0.42020  Biso   1.000  C
  H25      1.0000 0.19310  0.85770  0.03860  Biso   1.000  H
  H26      1.0000 0.69310  0.64230  0.53860  Biso   1.000  H
  H27      1.0000 0.80690  0.14230  0.96140  Biso   1.000  H
  H28      1.0000 0.30690  0.35770  0.46140  Biso   1.000  H
  C37      1.0000 0.15950  0.86760  0.12680  Biso   1.000  C
  C38      1.0000 0.65950  0.63240  0.62680  Biso   1.000  C
  C39      1.0000 0.84050  0.13240  0.87320  Biso   1.000  C
  C40      1.0000 0.34050  0.36760  0.37320  Biso   1.000  C
  H29      1.0000 0.06250  0.88570  0.11750  Biso   1.000  H
  H30      1.0000 0.56250  0.61430  0.61750  Biso   1.000  H
  H31      1.0000 0.93750  0.11430  0.88250  Biso   1.000  H
  H32      1.0000 0.43750  0.38570  0.38250  Biso   1.000  H
  C41      1.0000 0.22290  0.85730  0.18610  Biso   1.000  C
  C42      1.0000 0.72290  0.64270  0.68610  Biso   1.000  C
  C43      1.0000 0.77710  0.14270  0.81390  Biso   1.000  C
  C44      1.0000 0.27710  0.35730  0.31390  Biso   1.000  C
  H33      1.0000 0.16760  0.86620  0.21740  Biso   1.000  H
  H34      1.0000 0.66760  0.63380  0.71740  Biso   1.000  H
  H35      1.0000 0.83240  0.13380  0.78260  Biso   1.000  H
  H36      1.0000 0.33240  0.36620  0.28260  Biso   1.000  H
  C45      1.0000 0.37010  0.83350  0.20240  Biso   1.000  C
  C46      1.0000 0.87010  0.66650  0.70240  Biso   1.000  C
  C47      1.0000 0.62990  0.16650  0.79760  Biso   1.000  C
  C48      1.0000 0.12990  0.33350  0.29760  Biso   1.000  C
  H37      1.0000 0.41180  0.82690  0.24390  Biso   1.000  H
  H38      1.0000 0.91180  0.67310  0.74390  Biso   1.000  H
  H39      1.0000 0.58820  0.17310  0.75610  Biso   1.000  H
  H40      1.0000 0.08820  0.32690  0.25610  Biso   1.000  H
  C49      1.0000 0.10500  0.98520  0.33320  Biso   1.000  C
  C50      1.0000 0.60500  0.51480  0.83320  Biso   1.000  C
  C51      1.0000 0.89500  0.01480  0.66680  Biso   1.000  C
  C52      1.0000 0.39500  0.48520  0.16680  Biso   1.000  C
  C53      1.0000 0.18820  0.06640  0.32970  Biso   1.000  C
  C54      1.0000 0.68820  0.43360  0.82970  Biso   1.000  C
  C55      1.0000 0.81180  0.93360  0.67030  Biso   1.000  C
  C56      1.0000 0.31180  0.56640  0.17030  Biso   1.000  C
  H41      1.0000 0.14340  0.12450  0.31590  Biso   1.000  H
  H42      1.0000 0.64340  0.37550  0.81590  Biso   1.000  H
  H43      1.0000 0.85660  0.87550  0.68410  Biso   1.000  H
  H44      1.0000 0.35660  0.62450  0.18410  Biso   1.000  H
  C57      1.0000 0.33790  0.06350  0.34640  Biso   1.000  C
  C58      1.0000 0.83790  0.43650  0.84640  Biso   1.000  C
  C59      1.0000 0.66210  0.93650  0.65360  Biso   1.000  C
  C60      1.0000 0.16210  0.56350  0.15360  Biso   1.000  C
  H45      1.0000 0.39290  0.11960  0.34530  Biso   1.000  H
  H46      1.0000 0.89290  0.38040  0.84530  Biso   1.000  H
  H47      1.0000 0.60710  0.88040  0.65470  Biso   1.000  H
  H48      1.0000 0.10710  0.61960  0.15470  Biso   1.000  H
  C61      1.0000 0.40240  0.97880  0.36420  Biso   1.000  C
  C62      1.0000 0.90240  0.52120  0.86420  Biso   1.000  C
  C63      1.0000 0.59760  0.02120  0.63580  Biso   1.000  C
  C64      1.0000 0.09760  0.47880  0.13580  Biso   1.000  C
  H49      1.0000 0.50300  0.97630  0.37390  Biso   1.000  H
  H50      1.0000 0.00300  0.52370  0.87390  Biso   1.000  H
  H51      1.0000 0.49700  0.02370  0.62610  Biso   1.000  H
  H52      1.0000 0.99700  0.47630  0.12610  Biso   1.000  H
  C65      1.0000 0.32380  0.89600  0.36840  Biso   1.000  C
  C66      1.0000 0.82380  0.60400  0.86840  Biso   1.000  C
  C67      1.0000 0.67620  0.10400  0.63160  Biso   1.000  C
  C68      1.0000 0.17620  0.39600  0.13160  Biso   1.000  C
  H53      1.0000 0.37000  0.83790  0.38130  Biso   1.000  H
  H54      1.0000 0.87000  0.66210  0.88130  Biso   1.000  H
  H55      1.0000 0.63000  0.16210  0.61870  Biso   1.000  H
  H56      1.0000 0.13000  0.33790  0.11870  Biso   1.000  H
  C69      1.0000 0.17400  0.90020  0.35320  Biso   1.000  C
  C70      1.0000 0.67400  0.59980  0.85320  Biso   1.000  C
  C71      1.0000 0.82600  0.09980  0.64680  Biso   1.000  C
  C72      1.0000 0.32600  0.40020  0.14680  Biso   1.000  C
  H57      1.0000 0.11940  0.84460  0.35660  Biso   1.000  H
  H58      1.0000 0.61940  0.65540  0.85660  Biso   1.000  H
  H59      1.0000 0.88060  0.15540  0.64340  Biso   1.000  H
  H60      1.0000 0.38060  0.34460  0.14340  Biso   1.000  H
  C73      1.0000 0.84500  0.94570  0.38110  Biso   1.000  C
  C74      1.0000 0.34500  0.55430  0.88110  Biso   1.000  C
  C75      1.0000 0.15500  0.05430  0.61890  Biso   1.000  C
  C76      1.0000 0.65500  0.44570  0.11890  Biso   1.000  C
  C77      1.0000 0.84780  0.00600  0.43140  Biso   1.000  C
  C78      1.0000 0.34780  0.49400  0.93140  Biso   1.000  C
  C79      1.0000 0.15220  0.99400  0.56860  Biso   1.000  C
  C80      1.0000 0.65220  0.50600  0.06860  Biso   1.000  C
  H61      1.0000 0.88340  0.06880  0.42930  Biso   1.000  H
  H62      1.0000 0.38340  0.43120  0.92930  Biso   1.000  H
  H63      1.0000 0.11660  0.93120  0.57070  Biso   1.000  H
  H64      1.0000 0.61660  0.56880  0.07070  Biso   1.000  H
  C81      1.0000 0.79950  0.97670  0.48550  Biso   1.000  C
  C82      1.0000 0.29950  0.52330  0.98550  Biso   1.000  C
  C83      1.0000 0.20050  0.02330  0.51450  Biso   1.000  C
  C84      1.0000 0.70050  0.47670  0.01450  Biso   1.000  C
  H65      1.0000 0.80080  0.01980  0.51840  Biso   1.000  H
  H66      1.0000 0.30080  0.48020  0.01840  Biso   1.000  H
  H67      1.0000 0.19920  0.98020  0.48160  Biso   1.000  H
  H68      1.0000 0.69920  0.51980  0.98160  Biso   1.000  H
  C85      1.0000 0.74960  0.88330  0.48980  Biso   1.000  C
  C86      1.0000 0.24960  0.61670  0.98980  Biso   1.000  C
  C87      1.0000 0.25040  0.11670  0.51020  Biso   1.000  C
  C88      1.0000 0.75040  0.38330  0.01020  Biso   1.000  C
  H69      1.0000 0.71930  0.86200  0.52610  Biso   1.000  H
  H70      1.0000 0.21930  0.63800  0.02610  Biso   1.000  H
  H71      1.0000 0.28070  0.13800  0.47390  Biso   1.000  H
  H72      1.0000 0.78070  0.36200  0.97390  Biso   1.000  H
  C89      1.0000 0.74530  0.82220  0.44030  Biso   1.000  C
  C90      1.0000 0.24530  0.67780  0.94030  Biso   1.000  C
  C91      1.0000 0.25470  0.17780  0.55970  Biso   1.000  C
  C92      1.0000 0.75470  0.32220  0.05970  Biso   1.000  C
  H73      1.0000 0.70890  0.75970  0.44260  Biso   1.000  H
  H74      1.0000 0.20890  0.74030  0.94260  Biso   1.000  H
  H75      1.0000 0.29110  0.24030  0.55740  Biso   1.000  H
  H76      1.0000 0.79110  0.25970  0.05740  Biso   1.000  H
  C93      1.0000 0.79410  0.85170  0.38690  Biso   1.000  C
  C94      1.0000 0.29410  0.64830  0.88690  Biso   1.000  C
  C95      1.0000 0.20590  0.14830  0.61310  Biso   1.000  C
  C96      1.0000 0.70590  0.35170  0.11310  Biso   1.000  C
  H77      1.0000 0.79290  0.80810  0.35430  Biso   1.000  H
  H78      1.0000 0.29290  0.69190  0.85430  Biso   1.000  H
  H79      1.0000 0.20710  0.19190  0.64570  Biso   1.000  H
  H80      1.0000 0.70710  0.30810  0.14570  Biso   1.000  H
  C97      1.0000 0.01630  0.62330  0.29050  Biso   1.000  C
  C98      1.0000 0.51630  0.87670  0.79050  Biso   1.000  C
  C99      1.0000 0.98370  0.37670  0.70950  Biso   1.000  C
  C100     1.0000 0.48370  0.12330  0.20950  Biso   1.000  C
  C101     1.0000 0.15180  0.60860  0.33110  Biso   1.000  C
  C102     1.0000 0.65180  0.89140  0.83110  Biso   1.000  C
  C103     1.0000 0.84820  0.39140  0.66890  Biso   1.000  C
  C104     1.0000 0.34820  0.10860  0.16890  Biso   1.000  C
  H81      1.0000 0.14870  0.54840  0.35300  Biso   1.000  H
  H82      1.0000 0.64870  0.95160  0.85300  Biso   1.000  H
  H83      1.0000 0.85130  0.45160  0.64700  Biso   1.000  H
  H84      1.0000 0.35130  0.04840  0.14700  Biso   1.000  H
  H85      1.0000 0.16820  0.66110  0.36030  Biso   1.000  H
  H86      1.0000 0.66820  0.83890  0.86030  Biso   1.000  H
  H87      1.0000 0.83180  0.33890  0.63970  Biso   1.000  H
  H88      1.0000 0.33180  0.16110  0.13970  Biso   1.000  H
  H89      1.0000 0.22900  0.60660  0.30700  Biso   1.000  H
  H90      1.0000 0.72900  0.89340  0.80700  Biso   1.000  H
  H91      1.0000 0.77100  0.39340  0.69300  Biso   1.000  H
  H92      1.0000 0.27100  0.10660  0.19300  Biso   1.000  H
  C105     1.0000 0.86310  0.89690  0.25270  Biso   1.000  C
  C106     1.0000 0.36310  0.60310  0.75270  Biso   1.000  C
  C107     1.0000 0.13690  0.10310  0.74730  Biso   1.000  C
  C108     1.0000 0.63690  0.39690  0.24730  Biso   1.000  C
  H93      1.0000 0.91470  0.90910  0.21840  Biso   1.000  H
  H94      1.0000 0.41470  0.59090  0.71840  Biso   1.000  H
  H95      1.0000 0.08530  0.09090  0.78160  Biso   1.000  H
  H96      1.0000 0.58530  0.40910  0.28160  Biso   1.000  H
  H97      1.0000 0.89490  0.83470  0.27090  Biso   1.000  H
  H98      1.0000 0.39490  0.66530  0.77090  Biso   1.000  H
  H99      1.0000 0.10510  0.16530  0.72910  Biso   1.000  H
  H100     1.0000 0.60510  0.33470  0.22910  Biso   1.000  H
  C109     1.0000 0.70190  0.89340  0.22890  Biso   1.000  C
  C110     1.0000 0.20190  0.60660  0.72890  Biso   1.000  C
  C111     1.0000 0.29810  0.10660  0.77110  Biso   1.000  C
  C112     1.0000 0.79810  0.39340  0.27110  Biso   1.000  C
  H101     1.0000 0.67370  0.95260  0.20610  Biso   1.000  H
  H102     1.0000 0.17370  0.54740  0.70610  Biso   1.000  H
  H103     1.0000 0.32630  0.04740  0.79390  Biso   1.000  H
  H104     1.0000 0.82630  0.45260  0.29390  Biso   1.000  H
  H105     1.0000 0.65080  0.89150  0.26420  Biso   1.000  H
  H106     1.0000 0.15080  0.60850  0.76420  Biso   1.000  H
  H107     1.0000 0.34920  0.10850  0.73580  Biso   1.000  H
  H108     1.0000 0.84920  0.39150  0.23580  Biso   1.000  H
