data_image0
_cell_length_a       11.846
_cell_length_b       21.302
_cell_length_c       11.33
_cell_angle_alpha    90
_cell_angle_beta     104.171
_cell_angle_gamma    90

_symmetry_space_group_name_H-M    "P 1"
_symmetry_int_tables_number       1

loop_
  _symmetry_equiv_pos_as_xyz
  'x, y, z'

loop_
  _atom_site_label
  _atom_site_occupancy
  _atom_site_fract_x
  _atom_site_fract_y
  _atom_site_fract_z
  _atom_site_thermal_displace_type
  _atom_site_B_iso_or_equiv
  _atom_site_type_symbol
  Cu1      1.0000 0.50000  0.22848  0.25000  Biso   1.000  Cu
  Cu2      1.0000 0.00000  0.72848  0.25000  Biso   1.000  Cu
  Cu3      1.0000 0.50000  0.77152  0.75000  Biso   1.000  Cu
  Cu4      1.0000 0.00000  0.27152  0.75000  Biso   1.000  Cu
  P1       1.0000 0.39637  0.18479  0.07958  Biso   1.000  P
  P2       1.0000 0.89637  0.68479  0.07958  Biso   1.000  P
  P3       1.0000 0.39637  0.81521  0.57958  Biso   1.000  P
  P4       1.0000 0.89637  0.31521  0.57958  Biso   1.000  P
  P5       1.0000 0.60363  0.81521  0.92042  Biso   1.000  P
  P6       1.0000 0.10363  0.31521  0.92042  Biso   1.000  P
  P7       1.0000 0.60363  0.18479  0.42042  Biso   1.000  P
  P8       1.0000 0.10363  0.68479  0.42042  Biso   1.000  P
  Cl1      1.0000 0.56050  0.36732  0.88050  Biso   1.000  Cl
  Cl2      1.0000 0.06050  0.86732  0.88050  Biso   1.000  Cl
  Cl3      1.0000 0.56050  0.63268  0.38050  Biso   1.000  Cl
  Cl4      1.0000 0.06050  0.13268  0.38050  Biso   1.000  Cl
  Cl5      1.0000 0.43950  0.63268  0.11950  Biso   1.000  Cl
  Cl6      1.0000 0.93950  0.13268  0.11950  Biso   1.000  Cl
  Cl7      1.0000 0.43950  0.36732  0.61950  Biso   1.000  Cl
  Cl8      1.0000 0.93950  0.86732  0.61950  Biso   1.000  Cl
  O1       1.0000 0.57630  0.32084  0.21840  Biso   1.000  O
  O2       1.0000 0.07630  0.82084  0.21840  Biso   1.000  O
  O3       1.0000 0.57630  0.67916  0.71840  Biso   1.000  O
  O4       1.0000 0.07630  0.17916  0.71840  Biso   1.000  O
  O5       1.0000 0.42370  0.67916  0.78160  Biso   1.000  O
  O6       1.0000 0.92370  0.17916  0.78160  Biso   1.000  O
  O7       1.0000 0.42370  0.32084  0.28160  Biso   1.000  O
  O8       1.0000 0.92370  0.82084  0.28160  Biso   1.000  O
  O9       1.0000 0.50000  0.40884  0.25000  Biso   1.000  O
  O10      1.0000 0.00000  0.90884  0.25000  Biso   1.000  O
  O11      1.0000 0.50000  0.59116  0.75000  Biso   1.000  O
  O12      1.0000 0.00000  0.09116  0.75000  Biso   1.000  O
  N1       1.0000 0.50000  0.35171  0.25000  Biso   1.000  N
  N2       1.0000 0.00000  0.85171  0.25000  Biso   1.000  N
  N3       1.0000 0.50000  0.64829  0.75000  Biso   1.000  N
  N4       1.0000 0.00000  0.14829  0.75000  Biso   1.000  N
  C1       1.0000 0.30720  0.11771  0.09640  Biso   1.000  C
  C2       1.0000 0.80720  0.61771  0.09640  Biso   1.000  C
  C3       1.0000 0.30720  0.88229  0.59640  Biso   1.000  C
  C4       1.0000 0.80720  0.38229  0.59640  Biso   1.000  C
  C5       1.0000 0.69280  0.88229  0.90360  Biso   1.000  C
  C6       1.0000 0.19280  0.38229  0.90360  Biso   1.000  C
  C7       1.0000 0.69280  0.11771  0.40360  Biso   1.000  C
  C8       1.0000 0.19280  0.61771  0.40360  Biso   1.000  C
  C9       1.0000 0.31820  0.09246  0.21070  Biso   1.000  C
  C10      1.0000 0.81820  0.59246  0.21070  Biso   1.000  C
  C11      1.0000 0.31820  0.90754  0.71070  Biso   1.000  C
  C12      1.0000 0.81820  0.40754  0.71070  Biso   1.000  C
  C13      1.0000 0.68180  0.90754  0.78930  Biso   1.000  C
  C14      1.0000 0.18180  0.40754  0.78930  Biso   1.000  C
  C15      1.0000 0.68180  0.09246  0.28930  Biso   1.000  C
  C16      1.0000 0.18180  0.59246  0.28930  Biso   1.000  C
  H1       1.0000 0.36100  0.10690  0.27500  Biso   1.000  H
  H2       1.0000 0.86100  0.60690  0.27500  Biso   1.000  H
  H3       1.0000 0.36100  0.89310  0.77500  Biso   1.000  H
  H4       1.0000 0.86100  0.39310  0.77500  Biso   1.000  H
  H5       1.0000 0.63900  0.89310  0.72500  Biso   1.000  H
  H6       1.0000 0.13900  0.39310  0.72500  Biso   1.000  H
  H7       1.0000 0.63900  0.10690  0.22500  Biso   1.000  H
  H8       1.0000 0.13900  0.60690  0.22500  Biso   1.000  H
  C17      1.0000 0.25190  0.04190  0.22800  Biso   1.000  C
  C18      1.0000 0.75190  0.54190  0.22800  Biso   1.000  C
  C19      1.0000 0.25190  0.95810  0.72800  Biso   1.000  C
  C20      1.0000 0.75190  0.45810  0.72800  Biso   1.000  C
  C21      1.0000 0.74810  0.95810  0.77200  Biso   1.000  C
  C22      1.0000 0.24810  0.45810  0.77200  Biso   1.000  C
  C23      1.0000 0.74810  0.04190  0.27200  Biso   1.000  C
  C24      1.0000 0.24810  0.54190  0.27200  Biso   1.000  C
  H9       1.0000 0.26000  0.03180  0.29600  Biso   1.000  H
  H10      1.0000 0.76000  0.53180  0.29600  Biso   1.000  H
  H11      1.0000 0.26000  0.96820  0.79600  Biso   1.000  H
  H12      1.0000 0.76000  0.46820  0.79600  Biso   1.000  H
  H13      1.0000 0.74000  0.96820  0.70400  Biso   1.000  H
  H14      1.0000 0.24000  0.46820  0.70400  Biso   1.000  H
  H15      1.0000 0.74000  0.03180  0.20400  Biso   1.000  H
  H16      1.0000 0.24000  0.53180  0.20400  Biso   1.000  H
  C25      1.0000 0.17320  0.01600  0.13150  Biso   1.000  C
  C26      1.0000 0.67320  0.51600  0.13150  Biso   1.000  C
  C27      1.0000 0.17320  0.98400  0.63150  Biso   1.000  C
  C28      1.0000 0.67320  0.48400  0.63150  Biso   1.000  C
  C29      1.0000 0.82680  0.98400  0.86850  Biso   1.000  C
  C30      1.0000 0.32680  0.48400  0.86850  Biso   1.000  C
  C31      1.0000 0.82680  0.01600  0.36850  Biso   1.000  C
  C32      1.0000 0.32680  0.51600  0.36850  Biso   1.000  C
  H17      1.0000 0.13300  0.98300  0.13800  Biso   1.000  H
  H18      1.0000 0.63300  0.48300  0.13800  Biso   1.000  H
  H19      1.0000 0.13300  0.01700  0.63800  Biso   1.000  H
  H20      1.0000 0.63300  0.51700  0.63800  Biso   1.000  H
  H21      1.0000 0.86700  0.01700  0.86200  Biso   1.000  H
  H22      1.0000 0.36700  0.51700  0.86200  Biso   1.000  H
  H23      1.0000 0.86700  0.98300  0.36200  Biso   1.000  H
  H24      1.0000 0.36700  0.48300  0.36200  Biso   1.000  H
  C33      1.0000 0.16090  0.04050  0.01770  Biso   1.000  C
  C34      1.0000 0.66090  0.54050  0.01770  Biso   1.000  C
  C35      1.0000 0.16090  0.95950  0.51770  Biso   1.000  C
  C36      1.0000 0.66090  0.45950  0.51770  Biso   1.000  C
  C37      1.0000 0.83910  0.95950  0.98230  Biso   1.000  C
  C38      1.0000 0.33910  0.45950  0.98230  Biso   1.000  C
  C39      1.0000 0.83910  0.04050  0.48230  Biso   1.000  C
  C40      1.0000 0.33910  0.54050  0.48230  Biso   1.000  C
  H25      1.0000 0.11800  0.02400  0.96400  Biso   1.000  H
  H26      1.0000 0.61800  0.52400  0.96400  Biso   1.000  H
  H27      1.0000 0.11800  0.97600  0.46400  Biso   1.000  H
  H28      1.0000 0.61800  0.47600  0.46400  Biso   1.000  H
  H29      1.0000 0.88200  0.97600  0.03600  Biso   1.000  H
  H30      1.0000 0.38200  0.47600  0.03600  Biso   1.000  H
  H31      1.0000 0.88200  0.02400  0.53600  Biso   1.000  H
  H32      1.0000 0.38200  0.52400  0.53600  Biso   1.000  H
  C41      1.0000 0.22710  0.09098  0.99870  Biso   1.000  C
  C42      1.0000 0.72710  0.59098  0.99870  Biso   1.000  C
  C43      1.0000 0.22710  0.90902  0.49870  Biso   1.000  C
  C44      1.0000 0.72710  0.40902  0.49870  Biso   1.000  C
  C45      1.0000 0.77290  0.90902  0.00130  Biso   1.000  C
  C46      1.0000 0.27290  0.40902  0.00130  Biso   1.000  C
  C47      1.0000 0.77290  0.09098  0.50130  Biso   1.000  C
  C48      1.0000 0.27290  0.59098  0.50130  Biso   1.000  C
  H33      1.0000 0.22400  0.10680  0.91700  Biso   1.000  H
  H34      1.0000 0.72400  0.60680  0.91700  Biso   1.000  H
  H35      1.0000 0.22400  0.89320  0.41700  Biso   1.000  H
  H36      1.0000 0.72400  0.39320  0.41700  Biso   1.000  H
  H37      1.0000 0.77600  0.89320  0.08300  Biso   1.000  H
  H38      1.0000 0.27600  0.39320  0.08300  Biso   1.000  H
  H39      1.0000 0.77600  0.10680  0.58300  Biso   1.000  H
  H40      1.0000 0.27600  0.60680  0.58300  Biso   1.000  H
  C49      1.0000 0.49550  0.15714  0.99120  Biso   1.000  C
  C50      1.0000 0.99550  0.65714  0.99120  Biso   1.000  C
  C51      1.0000 0.49550  0.84286  0.49120  Biso   1.000  C
  C52      1.0000 0.99550  0.34286  0.49120  Biso   1.000  C
  C53      1.0000 0.50450  0.84286  0.00880  Biso   1.000  C
  C54      1.0000 0.00450  0.34286  0.00880  Biso   1.000  C
  C55      1.0000 0.50450  0.15714  0.50880  Biso   1.000  C
  C56      1.0000 0.00450  0.65714  0.50880  Biso   1.000  C
  C57      1.0000 0.50430  0.09558  0.95720  Biso   1.000  C
  C58      1.0000 0.00430  0.59558  0.95720  Biso   1.000  C
  C59      1.0000 0.50430  0.90442  0.45720  Biso   1.000  C
  C60      1.0000 0.00430  0.40442  0.45720  Biso   1.000  C
  C61      1.0000 0.49570  0.90442  0.04280  Biso   1.000  C
  C62      1.0000 0.99570  0.40442  0.04280  Biso   1.000  C
  C63      1.0000 0.49570  0.09558  0.54280  Biso   1.000  C
  C64      1.0000 0.99570  0.59558  0.54280  Biso   1.000  C
  H41      1.0000 0.45900  0.06800  0.97600  Biso   1.000  H
  H42      1.0000 0.95900  0.56800  0.97600  Biso   1.000  H
  H43      1.0000 0.45900  0.93200  0.47600  Biso   1.000  H
  H44      1.0000 0.95900  0.43200  0.47600  Biso   1.000  H
  H45      1.0000 0.54100  0.93200  0.02400  Biso   1.000  H
  H46      1.0000 0.04100  0.43200  0.02400  Biso   1.000  H
  H47      1.0000 0.54100  0.06800  0.52400  Biso   1.000  H
  H48      1.0000 0.04100  0.56800  0.52400  Biso   1.000  H
  C65      1.0000 0.58750  0.07880  0.89730  Biso   1.000  C
  C66      1.0000 0.08750  0.57880  0.89730  Biso   1.000  C
  C67      1.0000 0.58750  0.92120  0.39730  Biso   1.000  C
  C68      1.0000 0.08750  0.42120  0.39730  Biso   1.000  C
  C69      1.0000 0.41250  0.92120  0.10270  Biso   1.000  C
  C70      1.0000 0.91250  0.42120  0.10270  Biso   1.000  C
  C71      1.0000 0.41250  0.07880  0.60270  Biso   1.000  C
  C72      1.0000 0.91250  0.57880  0.60270  Biso   1.000  C
  H49      1.0000 0.58200  0.05200  0.87200  Biso   1.000  H
  H50      1.0000 0.08200  0.55200  0.87200  Biso   1.000  H
  H51      1.0000 0.58200  0.94800  0.37200  Biso   1.000  H
  H52      1.0000 0.08200  0.44800  0.37200  Biso   1.000  H
  H53      1.0000 0.41800  0.94800  0.12800  Biso   1.000  H
  H54      1.0000 0.91800  0.44800  0.12800  Biso   1.000  H
  H55      1.0000 0.41800  0.05200  0.62800  Biso   1.000  H
  H56      1.0000 0.91800  0.55200  0.62800  Biso   1.000  H
  C73      1.0000 0.66060  0.12170  0.86930  Biso   1.000  C
  C74      1.0000 0.16060  0.62170  0.86930  Biso   1.000  C
  C75      1.0000 0.66060  0.87830  0.36930  Biso   1.000  C
  C76      1.0000 0.16060  0.37830  0.36930  Biso   1.000  C
  C77      1.0000 0.33940  0.87830  0.13070  Biso   1.000  C
  C78      1.0000 0.83940  0.37830  0.13070  Biso   1.000  C
  C79      1.0000 0.33940  0.12170  0.63070  Biso   1.000  C
  C80      1.0000 0.83940  0.62170  0.63070  Biso   1.000  C
  H57      1.0000 0.71100  0.11200  0.83800  Biso   1.000  H
  H58      1.0000 0.21100  0.61200  0.83800  Biso   1.000  H
  H59      1.0000 0.71100  0.88800  0.33800  Biso   1.000  H
  H60      1.0000 0.21100  0.38800  0.33800  Biso   1.000  H
  H61      1.0000 0.28900  0.88800  0.16200  Biso   1.000  H
  H62      1.0000 0.78900  0.38800  0.16200  Biso   1.000  H
  H63      1.0000 0.28900  0.11200  0.66200  Biso   1.000  H
  H64      1.0000 0.78900  0.61200  0.66200  Biso   1.000  H
  C81      1.0000 0.65240  0.18210  0.90050  Biso   1.000  C
  C82      1.0000 0.15240  0.68210  0.90050  Biso   1.000  C
  C83      1.0000 0.65240  0.81790  0.40050  Biso   1.000  C
  C84      1.0000 0.15240  0.31790  0.40050  Biso   1.000  C
  C85      1.0000 0.34760  0.81790  0.09950  Biso   1.000  C
  C86      1.0000 0.84760  0.31790  0.09950  Biso   1.000  C
  C87      1.0000 0.34760  0.18210  0.59950  Biso   1.000  C
  C88      1.0000 0.84760  0.68210  0.59950  Biso   1.000  C
  H65      1.0000 0.70100  0.20800  0.89300  Biso   1.000  H
  H66      1.0000 0.20100  0.70800  0.89300  Biso   1.000  H
  H67      1.0000 0.70100  0.79200  0.39300  Biso   1.000  H
  H68      1.0000 0.20100  0.29200  0.39300  Biso   1.000  H
  H69      1.0000 0.29900  0.79200  0.10700  Biso   1.000  H
  H70      1.0000 0.79900  0.29200  0.10700  Biso   1.000  H
  H71      1.0000 0.29900  0.20800  0.60700  Biso   1.000  H
  H72      1.0000 0.79900  0.70800  0.60700  Biso   1.000  H
  C89      1.0000 0.57220  0.20000  0.96350  Biso   1.000  C
  C90      1.0000 0.07220  0.70000  0.96350  Biso   1.000  C
  C91      1.0000 0.57220  0.80000  0.46350  Biso   1.000  C
  C92      1.0000 0.07220  0.30000  0.46350  Biso   1.000  C
  C93      1.0000 0.42780  0.80000  0.03650  Biso   1.000  C
  C94      1.0000 0.92780  0.30000  0.03650  Biso   1.000  C
  C95      1.0000 0.42780  0.20000  0.53650  Biso   1.000  C
  C96      1.0000 0.92780  0.70000  0.53650  Biso   1.000  C
  H73      1.0000 0.57600  0.23600  0.99600  Biso   1.000  H
  H74      1.0000 0.07600  0.73600  0.99600  Biso   1.000  H
  H75      1.0000 0.57600  0.76400  0.49600  Biso   1.000  H
  H76      1.0000 0.07600  0.26400  0.49600  Biso   1.000  H
  H77      1.0000 0.42400  0.76400  0.00400  Biso   1.000  H
  H78      1.0000 0.92400  0.26400  0.00400  Biso   1.000  H
  H79      1.0000 0.42400  0.23600  0.50400  Biso   1.000  H
  H80      1.0000 0.92400  0.73600  0.50400  Biso   1.000  H
  C97      1.0000 0.29760  0.23690  0.97220  Biso   1.000  C
  C98      1.0000 0.79760  0.73690  0.97220  Biso   1.000  C
  C99      1.0000 0.29760  0.76310  0.47220  Biso   1.000  C
  C100     1.0000 0.79760  0.26310  0.47220  Biso   1.000  C
  C101     1.0000 0.70240  0.76310  0.02780  Biso   1.000  C
  C102     1.0000 0.20240  0.26310  0.02780  Biso   1.000  C
  C103     1.0000 0.70240  0.23690  0.52780  Biso   1.000  C
  C104     1.0000 0.20240  0.73690  0.52780  Biso   1.000  C
  H81      1.0000 0.34800  0.26720  0.95300  Biso   1.000  H
  H82      1.0000 0.84800  0.76720  0.95300  Biso   1.000  H
  H83      1.0000 0.34800  0.73280  0.45300  Biso   1.000  H
  H84      1.0000 0.84800  0.23280  0.45300  Biso   1.000  H
  H85      1.0000 0.65200  0.73280  0.04700  Biso   1.000  H
  H86      1.0000 0.15200  0.23280  0.04700  Biso   1.000  H
  H87      1.0000 0.65200  0.26720  0.54700  Biso   1.000  H
  H88      1.0000 0.15200  0.76720  0.54700  Biso   1.000  H
  H89      1.0000 0.26700  0.21680  0.90000  Biso   1.000  H
  H90      1.0000 0.76700  0.71680  0.90000  Biso   1.000  H
  H91      1.0000 0.26700  0.78320  0.40000  Biso   1.000  H
  H92      1.0000 0.76700  0.28320  0.40000  Biso   1.000  H
  H93      1.0000 0.73300  0.78320  0.10000  Biso   1.000  H
  H94      1.0000 0.23300  0.28320  0.10000  Biso   1.000  H
  H95      1.0000 0.73300  0.21680  0.60000  Biso   1.000  H
  H96      1.0000 0.23300  0.71680  0.60000  Biso   1.000  H
  C105     1.0000 0.55840  0.33430  0.76200  Biso   1.000  C
  C106     1.0000 0.05840  0.83430  0.76200  Biso   1.000  C
  C107     1.0000 0.55840  0.66570  0.26200  Biso   1.000  C
  C108     1.0000 0.05840  0.16570  0.26200  Biso   1.000  C
  C109     1.0000 0.44160  0.66570  0.23800  Biso   1.000  C
  C110     1.0000 0.94160  0.16570  0.23800  Biso   1.000  C
  C111     1.0000 0.44160  0.33430  0.73800  Biso   1.000  C
  C112     1.0000 0.94160  0.83430  0.73800  Biso   1.000  C
  H97      1.0000 0.58990  0.35910  0.70620  Biso   1.000  H
  H98      1.0000 0.08990  0.85910  0.70620  Biso   1.000  H
  H99      1.0000 0.58990  0.64090  0.20620  Biso   1.000  H
  H100     1.0000 0.08990  0.14090  0.20620  Biso   1.000  H
  H101     1.0000 0.41010  0.64090  0.29380  Biso   1.000  H
  H102     1.0000 0.91010  0.14090  0.29380  Biso   1.000  H
  H103     1.0000 0.41010  0.35910  0.79380  Biso   1.000  H
  H104     1.0000 0.91010  0.85910  0.79380  Biso   1.000  H
  H105     1.0000 0.59260  0.29270  0.77270  Biso   1.000  H
  H106     1.0000 0.09260  0.79270  0.77270  Biso   1.000  H
  H107     1.0000 0.59260  0.70730  0.27270  Biso   1.000  H
  H108     1.0000 0.09260  0.20730  0.27270  Biso   1.000  H
  H109     1.0000 0.40740  0.70730  0.22730  Biso   1.000  H
  H110     1.0000 0.90740  0.20730  0.22730  Biso   1.000  H
  H111     1.0000 0.40740  0.29270  0.72730  Biso   1.000  H
  H112     1.0000 0.90740  0.79270  0.72730  Biso   1.000  H
