data_image0
_cell_length_a       8.2705
_cell_length_b       13.1236
_cell_length_c       17.0823
_cell_angle_alpha    93.236
_cell_angle_beta     91.48
_cell_angle_gamma    105.775

_symmetry_space_group_name_H-M    "P 1"
_symmetry_int_tables_number       1

loop_
  _symmetry_equiv_pos_as_xyz
  'x, y, z'

loop_
  _atom_site_label
  _atom_site_occupancy
  _atom_site_fract_x
  _atom_site_fract_y
  _atom_site_fract_z
  _atom_site_thermal_displace_type
  _atom_site_B_iso_or_equiv
  _atom_site_type_symbol
  Cu1      1.0000 0.42713  0.31473  0.36194  Biso   1.000  Cu
  Cu2      1.0000 0.57287  0.68527  0.63806  Biso   1.000  Cu
  O1       1.0000 0.99940  0.80710  0.46246  Biso   1.000  O
  O2       1.0000 0.00060  0.19290  0.53754  Biso   1.000  O
  O3       1.0000 0.70920  0.04690  0.04240  Biso   1.000  O
  O4       1.0000 0.29080  0.95310  0.95760  Biso   1.000  O
  C1       1.0000 0.61320  0.53940  0.38160  Biso   1.000  C
  C2       1.0000 0.38680  0.46060  0.61840  Biso   1.000  C
  H1       1.0000 0.54420  0.54400  0.33880  Biso   1.000  H
  H2       1.0000 0.45580  0.45600  0.66120  Biso   1.000  H
  C3       1.0000 0.73590  0.62920  0.40890  Biso   1.000  C
  C4       1.0000 0.26410  0.37080  0.59110  Biso   1.000  C
  H3       1.0000 0.74870  0.69270  0.38500  Biso   1.000  H
  H4       1.0000 0.25130  0.30730  0.61500  Biso   1.000  H
  C5       1.0000 0.83870  0.62370  0.47190  Biso   1.000  C
  C6       1.0000 0.16130  0.37630  0.52810  Biso   1.000  C
  C7       1.0000 0.81290  0.52910  0.50700  Biso   1.000  C
  C8       1.0000 0.18710  0.47090  0.49300  Biso   1.000  C
  H5       1.0000 0.87890  0.52400  0.55080  Biso   1.000  H
  H6       1.0000 0.12110  0.47600  0.44920  Biso   1.000  H
  C9       1.0000 0.68810  0.44180  0.47680  Biso   1.000  C
  C10      1.0000 0.31190  0.55820  0.52320  Biso   1.000  C
  H7       1.0000 0.67220  0.37810  0.50080  Biso   1.000  H
  H8       1.0000 0.32780  0.62190  0.49920  Biso   1.000  H
  C11      1.0000 0.97700  0.71650  0.50160  Biso   1.000  C
  C12      1.0000 0.02300  0.28350  0.49840  Biso   1.000  C
  C13      1.0000 0.13760  0.87310  0.50230  Biso   1.000  C
  C14      1.0000 0.86240  0.12690  0.49770  Biso   1.000  C
  C15      1.0000 0.20250  0.97940  0.47450  Biso   1.000  C
  C16      1.0000 0.79750  0.02060  0.52550  Biso   1.000  C
  C17      1.0000 0.13750  0.00730  0.40660  Biso   1.000  C
  C18      1.0000 0.86250  0.99270  0.59340  Biso   1.000  C
  H9       1.0000 0.04950  0.95910  0.37800  Biso   1.000  H
  H10      1.0000 0.95050  0.04090  0.62200  Biso   1.000  H
  C19      1.0000 0.20340  0.10590  0.38200  Biso   1.000  C
  C20      1.0000 0.79660  0.89410  0.61800  Biso   1.000  C
  H11      1.0000 0.15800  0.12300  0.33570  Biso   1.000  H
  H12      1.0000 0.84200  0.87700  0.66430  Biso   1.000  H
  C21      1.0000 0.38910  0.15270  0.48640  Biso   1.000  C
  C22      1.0000 0.61090  0.84730  0.51360  Biso   1.000  C
  H13      1.0000 0.47560  0.20280  0.51450  Biso   1.000  H
  H14      1.0000 0.52440  0.79720  0.48550  Biso   1.000  H
  C23      1.0000 0.33090  0.05550  0.51550  Biso   1.000  C
  C24      1.0000 0.66910  0.94450  0.48450  Biso   1.000  C
  H15      1.0000 0.37670  0.04040  0.56230  Biso   1.000  H
  H16      1.0000 0.62330  0.95960  0.43770  Biso   1.000  H
  C25      1.0000 0.56780  0.17030  0.25480  Biso   1.000  C
  C26      1.0000 0.43220  0.82970  0.74520  Biso   1.000  C
  H17      1.0000 0.57090  0.13490  0.30020  Biso   1.000  H
  H18      1.0000 0.42910  0.86510  0.69980  Biso   1.000  H
  C27      1.0000 0.61640  0.12850  0.18650  Biso   1.000  C
  C28      1.0000 0.38360  0.87150  0.81350  Biso   1.000  C
  H19      1.0000 0.65000  0.06630  0.18620  Biso   1.000  H
  H20      1.0000 0.35000  0.93370  0.81380  Biso   1.000  H
  C29      1.0000 0.61430  0.17970  0.11920  Biso   1.000  C
  C30      1.0000 0.38570  0.82030  0.88080  Biso   1.000  C
  C31      1.0000 0.56170  0.27220  0.12320  Biso   1.000  C
  C32      1.0000 0.43830  0.72780  0.87680  Biso   1.000  C
  H21      1.0000 0.55880  0.30900  0.07860  Biso   1.000  H
  H22      1.0000 0.44120  0.69100  0.92140  Biso   1.000  H
  C33      1.0000 0.51430  0.30820  0.19320  Biso   1.000  C
  C34      1.0000 0.48570  0.69180  0.80680  Biso   1.000  C
  H23      1.0000 0.47890  0.36970  0.19490  Biso   1.000  H
  H24      1.0000 0.52110  0.63030  0.80510  Biso   1.000  H
  C35      1.0000 0.66390  0.13960  0.04540  Biso   1.000  C
  C36      1.0000 0.33610  0.86040  0.95460  Biso   1.000  C
  C37      1.0000 0.75070  0.03470  0.96670  Biso   1.000  C
  C38      1.0000 0.24930  0.96530  0.03330  Biso   1.000  C
  C39      1.0000 0.81010  0.94440  0.94230  Biso   1.000  C
  C40      1.0000 0.18990  0.05560  0.05770  Biso   1.000  C
  C41      1.0000 0.80950  0.86480  0.99100  Biso   1.000  C
  C42      1.0000 0.19050  0.13520  0.00900  Biso   1.000  C
  H25      1.0000 0.76830  0.86660  0.04110  Biso   1.000  H
  H26      1.0000 0.23170  0.13340  0.95890  Biso   1.000  H
  C43      1.0000 0.87130  0.78190  0.96450  Biso   1.000  C
  C44      1.0000 0.12870  0.21810  0.03550  Biso   1.000  C
  H27      1.0000 0.87030  0.72870  0.99830  Biso   1.000  H
  H28      1.0000 0.12970  0.27130  0.00170  Biso   1.000  H
  C45      1.0000 0.93180  0.84990  0.84810  Biso   1.000  C
  C46      1.0000 0.06820  0.15010  0.15190  Biso   1.000  C
  H29      1.0000 0.97430  0.84610  0.79850  Biso   1.000  H
  H30      1.0000 0.02570  0.15390  0.20150  Biso   1.000  H
  C47      1.0000 0.87250  0.93610  0.86890  Biso   1.000  C
  C48      1.0000 0.12750  0.06390  0.13110  Biso   1.000  C
  H31      1.0000 0.87470  0.98790  0.83370  Biso   1.000  H
  H32      1.0000 0.12530  0.01210  0.16630  Biso   1.000  H
  C49      1.0000 0.11610  0.38090  0.28960  Biso   1.000  C
  C50      1.0000 0.88390  0.61910  0.71040  Biso   1.000  C
  C51      1.0000 0.96440  0.40760  0.26270  Biso   1.000  C
  C52      1.0000 0.03560  0.59240  0.73730  Biso   1.000  C
  H33      1.0000 0.96110  0.40780  0.20650  Biso   1.000  H
  H34      1.0000 0.03890  0.59220  0.79350  Biso   1.000  H
  H35      1.0000 0.96550  0.47660  0.28500  Biso   1.000  H
  H36      1.0000 0.03450  0.52340  0.71500  Biso   1.000  H
  H37      1.0000 0.86710  0.35590  0.27900  Biso   1.000  H
  H38      1.0000 0.13290  0.64410  0.72100  Biso   1.000  H
  N1       1.0000 0.58830  0.44520  0.41370  Biso   1.000  N
  N2       1.0000 0.41170  0.55480  0.58630  Biso   1.000  N
  N3       1.0000 0.08490  0.72540  0.55800  Biso   1.000  N
  N4       1.0000 0.91510  0.27460  0.44200  Biso   1.000  N
  N5       1.0000 0.19200  0.82850  0.55880  Biso   1.000  N
  N6       1.0000 0.80800  0.17150  0.44120  Biso   1.000  N
  N7       1.0000 0.32880  0.18030  0.41940  Biso   1.000  N
  N8       1.0000 0.67120  0.81970  0.58060  Biso   1.000  N
  N9       1.0000 0.51670  0.25830  0.26010  Biso   1.000  N
  N10      1.0000 0.48330  0.74170  0.73990  Biso   1.000  N
  N11      1.0000 0.67700  0.18120  0.97770  Biso   1.000  N
  N12      1.0000 0.32300  0.81880  0.02230  Biso   1.000  N
  N13      1.0000 0.73240  0.11160  0.92610  Biso   1.000  N
  N14      1.0000 0.26760  0.88840  0.07390  Biso   1.000  N
  N15      1.0000 0.93170  0.77310  0.89420  Biso   1.000  N
  N16      1.0000 0.06830  0.22690  0.10580  Biso   1.000  N
  N17      1.0000 0.23040  0.36030  0.31280  Biso   1.000  N
  N18      1.0000 0.76960  0.63970  0.68720  Biso   1.000  N
  Cl1      1.0000 0.74320  0.87280  0.25327  Biso   1.000  Cl
  Cl2      1.0000 0.25680  0.12720  0.74673  Biso   1.000  Cl
  O5       1.0000 0.67070  0.87280  0.17910  Biso   1.000  O
  O6       1.0000 0.32930  0.12720  0.82090  Biso   1.000  O
  O7       1.0000 0.88260  0.83200  0.25450  Biso   1.000  O
  O8       1.0000 0.11740  0.16800  0.74550  Biso   1.000  O
  O9       1.0000 0.63110  0.81040  0.30280  Biso   1.000  O
  O10      1.0000 0.36890  0.18960  0.69720  Biso   1.000  O
  O11      1.0000 0.80610  0.97960  0.28390  Biso   1.000  O
  O12      1.0000 0.19390  0.02040  0.71610  Biso   1.000  O
  C53      1.0000 0.22970  0.72570  0.31390  Biso   1.000  C
  C54      1.0000 0.77030  0.27430  0.68610  Biso   1.000  C
  C55      1.0000 0.23170  0.78770  0.24700  Biso   1.000  C
  C56      1.0000 0.76830  0.21230  0.75300  Biso   1.000  C
  H39      1.0000 0.26530  0.75250  0.20200  Biso   1.000  H
  H40      1.0000 0.73470  0.24750  0.79800  Biso   1.000  H
  H41      1.0000 0.30970  0.85640  0.25750  Biso   1.000  H
  H42      1.0000 0.69030  0.14360  0.74250  Biso   1.000  H
  H43      1.0000 0.12120  0.79560  0.23670  Biso   1.000  H
  H44      1.0000 0.87880  0.20440  0.76330  Biso   1.000  H
  N19      1.0000 0.22810  0.68230  0.36670  Biso   1.000  N
  N20      1.0000 0.77190  0.31770  0.63330  Biso   1.000  N
  O13      1.0000 0.49300  0.60200  0.12870  Biso   1.000  O
  O14      1.0000 0.50700  0.39800  0.87130  Biso   1.000  O
  O15      1.0000 0.75900  0.58900  0.16530  Biso   1.000  O
  O16      1.0000 0.24100  0.41100  0.83470  Biso   1.000  O
  O17      1.0000 0.00000  0.52100  0.05690  Biso   1.000  O
  O18      1.0000 0.00000  0.47900  0.94310  Biso   1.000  O
