data_image0
_cell_length_a       4.42006
_cell_length_b       9.9972
_cell_length_c       11.37
_cell_angle_alpha    87.979
_cell_angle_beta     81.364
_cell_angle_gamma    80.105

_symmetry_space_group_name_H-M    "P 1"
_symmetry_int_tables_number       1

loop_
  _symmetry_equiv_pos_as_xyz
  'x, y, z'

loop_
  _atom_site_label
  _atom_site_occupancy
  _atom_site_fract_x
  _atom_site_fract_y
  _atom_site_fract_z
  _atom_site_thermal_displace_type
  _atom_site_B_iso_or_equiv
  _atom_site_type_symbol
  I1       1.0000 0.67394  0.64825  0.89440  Biso   1.000  I
  I2       1.0000 0.32606  0.35175  0.10560  Biso   1.000  I
  Cu1      1.0000 0.85643  0.39663  0.96477  Biso   1.000  Cu
  Cu2      1.0000 0.14357  0.60337  0.03523  Biso   1.000  Cu
  N1       1.0000 0.01920  0.23900  0.85000  Biso   1.000  N
  N2       1.0000 0.98080  0.76100  0.15000  Biso   1.000  N
  C1       1.0000 0.93450  0.11990  0.87810  Biso   1.000  C
  C2       1.0000 0.06550  0.88010  0.12190  Biso   1.000  C
  H1       1.0000 0.77290  0.11600  0.94010  Biso   1.000  H
  H2       1.0000 0.22710  0.88400  0.05990  Biso   1.000  H
  C3       1.0000 0.07600  0.99920  0.81900  Biso   1.000  C
  C4       1.0000 0.92400  0.00080  0.18100  Biso   1.000  C
  H3       1.0000 0.01230  0.91740  0.84360  Biso   1.000  H
  H4       1.0000 0.98770  0.08260  0.15640  Biso   1.000  H
  C5       1.0000 0.30520  0.00220  0.72620  Biso   1.000  C
  C6       1.0000 0.69480  0.99780  0.27380  Biso   1.000  C
  H5       1.0000 0.40170  0.92260  0.68720  Biso   1.000  H
  H6       1.0000 0.59830  0.07740  0.31280  Biso   1.000  H
  C7       1.0000 0.39640  0.12670  0.68940  Biso   1.000  C
  C8       1.0000 0.60360  0.87330  0.31060  Biso   1.000  C
  C9       1.0000 0.62380  0.14130  0.59030  Biso   1.000  C
  C10      1.0000 0.37620  0.85870  0.40970  Biso   1.000  C
  H7       1.0000 0.71910  0.06470  0.54640  Biso   1.000  H
  H8       1.0000 0.28090  0.93530  0.45360  Biso   1.000  H
  C11      1.0000 0.70840  0.26350  0.55660  Biso   1.000  C
  C12      1.0000 0.29160  0.73650  0.44340  Biso   1.000  C
  C13      1.0000 0.56620  0.37800  0.62620  Biso   1.000  C
  C14      1.0000 0.43380  0.62200  0.37380  Biso   1.000  C
  H9       1.0000 0.62570  0.46170  0.60590  Biso   1.000  H
  H10      1.0000 0.37430  0.53830  0.39410  Biso   1.000  H
  C15      1.0000 0.34400  0.36940  0.72210  Biso   1.000  C
  C16      1.0000 0.65600  0.63060  0.27790  Biso   1.000  C
  H11      1.0000 0.25510  0.44680  0.76590  Biso   1.000  H
  H12      1.0000 0.74490  0.55320  0.23410  Biso   1.000  H
  C17      1.0000 0.24810  0.24450  0.75550  Biso   1.000  C
  C18      1.0000 0.75190  0.75550  0.24450  Biso   1.000  C
  C19      1.0000 0.94010  0.28000  0.44830  Biso   1.000  C
  C20      1.0000 0.05990  0.72000  0.55170  Biso   1.000  C
  H13      1.0000 0.04570  0.19230  0.42060  Biso   1.000  H
  H14      1.0000 0.95430  0.80770  0.57940  Biso   1.000  H
  H15      1.0000 0.08840  0.33210  0.46820  Biso   1.000  H
  H16      1.0000 0.91160  0.66790  0.53180  Biso   1.000  H
  H17      1.0000 0.83440  0.32640  0.38680  Biso   1.000  H
  H18      1.0000 0.16560  0.67360  0.61320  Biso   1.000  H
