data_image0
_cell_length_a       4.1662
_cell_length_b       9.4691
_cell_length_c       10.1154
_cell_angle_alpha    89.167
_cell_angle_beta     87.104
_cell_angle_gamma    79.977

_symmetry_space_group_name_H-M    "P 1"
_symmetry_int_tables_number       1

loop_
  _symmetry_equiv_pos_as_xyz
  'x, y, z'

loop_
  _atom_site_label
  _atom_site_occupancy
  _atom_site_fract_x
  _atom_site_fract_y
  _atom_site_fract_z
  _atom_site_thermal_displace_type
  _atom_site_B_iso_or_equiv
  _atom_site_type_symbol
  I1       1.0000 0.34620  0.34180  0.12150  Biso   1.000  I
  I2       1.0000 0.65380  0.65820  0.87850  Biso   1.000  I
  Cu1      1.0000 0.18060  0.59970  0.03140  Biso   1.000  Cu
  Cu2      1.0000 0.81940  0.40030  0.96860  Biso   1.000  Cu
  N1       1.0000 0.00700  0.76800  0.15100  Biso   1.000  N
  N2       1.0000 0.99300  0.23200  0.84900  Biso   1.000  N
  C1       1.0000 0.76800  0.75700  0.24900  Biso   1.000  C
  C2       1.0000 0.23200  0.24300  0.75100  Biso   1.000  C
  C3       1.0000 0.60100  0.88300  0.31600  Biso   1.000  C
  C4       1.0000 0.39900  0.11700  0.68400  Biso   1.000  C
  C5       1.0000 0.08300  0.89500  0.12100  Biso   1.000  C
  C6       1.0000 0.91700  0.10500  0.87900  Biso   1.000  C
  H1       1.0000 0.24650  0.90360  0.05670  Biso   1.000  H
  H2       1.0000 0.75350  0.09640  0.94330  Biso   1.000  H
  C7       1.0000 0.67800  0.62900  0.27700  Biso   1.000  C
  C8       1.0000 0.32200  0.37100  0.72300  Biso   1.000  C
  H3       1.0000 0.77280  0.54950  0.22680  Biso   1.000  H
  H4       1.0000 0.22720  0.45050  0.77320  Biso   1.000  H
  C9       1.0000 0.37100  0.87500  0.40800  Biso   1.000  C
  C10      1.0000 0.62900  0.12500  0.59200  Biso   1.000  C
  H5       1.0000 0.25890  0.95830  0.44750  Biso   1.000  H
  H6       1.0000 0.74110  0.04170  0.55250  Biso   1.000  H
  C11      1.0000 0.91900  0.01600  0.18700  Biso   1.000  C
  C12      1.0000 0.08100  0.98400  0.81300  Biso   1.000  C
  H7       1.0000 0.99420  0.10160  0.16750  Biso   1.000  H
  H8       1.0000 0.00580  0.89840  0.83250  Biso   1.000  H
  C13      1.0000 0.29100  0.74000  0.44800  Biso   1.000  C
  C14      1.0000 0.70900  0.26000  0.55200  Biso   1.000  C
  C15      1.0000 0.45000  0.61400  0.37600  Biso   1.000  C
  C16      1.0000 0.55000  0.38600  0.62400  Biso   1.000  C
  H9       1.0000 0.39900  0.52470  0.39730  Biso   1.000  H
  H10      1.0000 0.60100  0.47530  0.60270  Biso   1.000  H
  C17      1.0000 0.68500  0.02400  0.26700  Biso   1.000  C
  C18      1.0000 0.31500  0.97600  0.73300  Biso   1.000  C
  H11      1.0000 0.56650  0.11170  0.29630  Biso   1.000  H
  H12      1.0000 0.43350  0.88830  0.70370  Biso   1.000  H
  C19      1.0000 0.06600  0.71500  0.56400  Biso   1.000  C
  C20      1.0000 0.93400  0.28500  0.43600  Biso   1.000  C
  H13      1.0000 0.19050  0.69070  0.64130  Biso   1.000  H
  H14      1.0000 0.80950  0.30930  0.35870  Biso   1.000  H
  H15      1.0000 0.95370  0.63810  0.54480  Biso   1.000  H
  H16      1.0000 0.04630  0.36190  0.45520  Biso   1.000  H
  H17      1.0000 0.90920  0.80090  0.58140  Biso   1.000  H
  H18      1.0000 0.09080  0.19910  0.41860  Biso   1.000  H
