data_image0
_cell_length_a       4.3221
_cell_length_b       9.7472
_cell_length_c       10.683
_cell_angle_alpha    88.353
_cell_angle_beta     84.421
_cell_angle_gamma    80.102

_symmetry_space_group_name_H-M    "P 1"
_symmetry_int_tables_number       1

loop_
  _symmetry_equiv_pos_as_xyz
  'x, y, z'

loop_
  _atom_site_label
  _atom_site_occupancy
  _atom_site_fract_x
  _atom_site_fract_y
  _atom_site_fract_z
  _atom_site_thermal_displace_type
  _atom_site_B_iso_or_equiv
  _atom_site_type_symbol
  I1       1.0000 0.34132  0.34795  0.11409  Biso   1.000  I
  I2       1.0000 0.65868  0.65205  0.88591  Biso   1.000  I
  Cu1      1.0000 0.15490  0.60350  0.03370  Biso   1.000  Cu
  Cu2      1.0000 0.84510  0.39650  0.96630  Biso   1.000  Cu
  N1       1.0000 0.99600  0.76200  0.15570  Biso   1.000  N
  N2       1.0000 0.00400  0.23800  0.84430  Biso   1.000  N
  C1       1.0000 0.75500  0.76000  0.24500  Biso   1.000  C
  C2       1.0000 0.24500  0.24000  0.75500  Biso   1.000  C
  C3       1.0000 0.59600  0.88400  0.31200  Biso   1.000  C
  C4       1.0000 0.40400  0.11600  0.68800  Biso   1.000  C
  C5       1.0000 0.07300  0.88900  0.12200  Biso   1.000  C
  C6       1.0000 0.92700  0.11100  0.87800  Biso   1.000  C
  H1       1.0000 0.23290  0.89410  0.05780  Biso   1.000  H
  H2       1.0000 0.76710  0.10590  0.94220  Biso   1.000  H
  C7       1.0000 0.66600  0.63100  0.27800  Biso   1.000  C
  C8       1.0000 0.33400  0.36900  0.72200  Biso   1.000  C
  H3       1.0000 0.76090  0.55220  0.23290  Biso   1.000  H
  H4       1.0000 0.23910  0.44780  0.76710  Biso   1.000  H
  C9       1.0000 0.36600  0.85900  0.41500  Biso   1.000  C
  C10      1.0000 0.63400  0.14100  0.58500  Biso   1.000  C
  H5       1.0000 0.26500  0.93550  0.46250  Biso   1.000  H
  H6       1.0000 0.73500  0.06450  0.53750  Biso   1.000  H
  C11      1.0000 0.92100  0.01400  0.18100  Biso   1.000  C
  C12      1.0000 0.07900  0.98600  0.81900  Biso   1.000  C
  H7       1.0000 0.98100  0.09910  0.15730  Biso   1.000  H
  H8       1.0000 0.01900  0.90090  0.84270  Biso   1.000  H
  C13      1.0000 0.29100  0.73800  0.44700  Biso   1.000  C
  C14      1.0000 0.70900  0.26200  0.55300  Biso   1.000  C
  C15      1.0000 0.44100  0.61800  0.37500  Biso   1.000  C
  C16      1.0000 0.55900  0.38200  0.62500  Biso   1.000  C
  H9       1.0000 0.38570  0.53150  0.39530  Biso   1.000  H
  H10      1.0000 0.61430  0.46850  0.60470  Biso   1.000  H
  C17      1.0000 0.68100  0.00800  0.27500  Biso   1.000  C
  C18      1.0000 0.31900  0.99200  0.72500  Biso   1.000  C
  H11      1.0000 0.57630  0.08970  0.31370  Biso   1.000  H
  H12      1.0000 0.42370  0.91030  0.68630  Biso   1.000  H
  C19      1.0000 0.06500  0.71800  0.55800  Biso   1.000  C
  C20      1.0000 0.93500  0.28200  0.44200  Biso   1.000  C
  H13      1.0000 0.18010  0.67940  0.62680  Biso   1.000  H
  H14      1.0000 0.81990  0.32060  0.37320  Biso   1.000  H
  H15      1.0000 0.92870  0.65630  0.53670  Biso   1.000  H
  H16      1.0000 0.07130  0.34370  0.46330  Biso   1.000  H
  H17      1.0000 0.94090  0.80670  0.58200  Biso   1.000  H
  H18      1.0000 0.05910  0.19330  0.41800  Biso   1.000  H
