data_image0
_cell_length_a       4.4163
_cell_length_b       9.983
_cell_length_c       11.376
_cell_angle_alpha    87.95
_cell_angle_beta     81.4
_cell_angle_gamma    80.17

_symmetry_space_group_name_H-M    "P 1"
_symmetry_int_tables_number       1

loop_
  _symmetry_equiv_pos_as_xyz
  'x, y, z'

loop_
  _atom_site_label
  _atom_site_occupancy
  _atom_site_fract_x
  _atom_site_fract_y
  _atom_site_fract_z
  _atom_site_thermal_displace_type
  _atom_site_B_iso_or_equiv
  _atom_site_type_symbol
  I1       1.0000 0.32626  0.35198  0.10550  Biso   1.000  I
  I2       1.0000 0.67374  0.64802  0.89450  Biso   1.000  I
  Cu1      1.0000 0.14270  0.60350  0.03540  Biso   1.000  Cu
  Cu2      1.0000 0.85730  0.39650  0.96460  Biso   1.000  Cu
  N1       1.0000 0.98200  0.76400  0.14880  Biso   1.000  N
  N2       1.0000 0.01800  0.23600  0.85120  Biso   1.000  N
  C1       1.0000 0.75100  0.74900  0.24650  Biso   1.000  C
  C2       1.0000 0.24900  0.25100  0.75350  Biso   1.000  C
  C3       1.0000 0.60500  0.87800  0.31000  Biso   1.000  C
  C4       1.0000 0.39500  0.12200  0.69000  Biso   1.000  C
  C5       1.0000 0.06800  0.87600  0.12500  Biso   1.000  C
  C6       1.0000 0.93200  0.12400  0.87500  Biso   1.000  C
  H1       1.0000 0.23710  0.87780  0.06570  Biso   1.000  H
  H2       1.0000 0.76290  0.12220  0.93430  Biso   1.000  H
  C7       1.0000 0.65000  0.63100  0.27980  Biso   1.000  C
  C8       1.0000 0.35000  0.36900  0.72020  Biso   1.000  C
  H3       1.0000 0.73320  0.55220  0.23660  Biso   1.000  H
  H4       1.0000 0.26680  0.44780  0.76340  Biso   1.000  H
  C9       1.0000 0.37900  0.85800  0.40900  Biso   1.000  C
  C10      1.0000 0.62100  0.14200  0.59100  Biso   1.000  C
  H5       1.0000 0.28290  0.93400  0.45430  Biso   1.000  H
  H6       1.0000 0.71710  0.06600  0.54570  Biso   1.000  H
  C11      1.0000 0.92800  0.00300  0.18070  Biso   1.000  C
  C12      1.0000 0.07200  0.99700  0.81930  Biso   1.000  C
  H7       1.0000 0.99360  0.08460  0.15520  Biso   1.000  H
  H8       1.0000 0.00640  0.91540  0.84480  Biso   1.000  H
  C13      1.0000 0.29100  0.73400  0.44430  Biso   1.000  C
  C14      1.0000 0.70900  0.26600  0.55570  Biso   1.000  C
  C15      1.0000 0.43800  0.62500  0.37140  Biso   1.000  C
  C16      1.0000 0.56200  0.37500  0.62860  Biso   1.000  C
  H9       1.0000 0.37870  0.54140  0.39030  Biso   1.000  H
  H10      1.0000 0.62130  0.45860  0.60970  Biso   1.000  H
  C17      1.0000 0.69500  0.99800  0.27300  Biso   1.000  C
  C18      1.0000 0.30500  0.00200  0.72700  Biso   1.000  C
  H11      1.0000 0.59480  0.07850  0.31050  Biso   1.000  H
  H12      1.0000 0.40520  0.92150  0.68950  Biso   1.000  H
  C19      1.0000 0.05400  0.71400  0.55400  Biso   1.000  C
  C20      1.0000 0.94600  0.28600  0.44600  Biso   1.000  C
  H13      1.0000 0.15670  0.65800  0.61120  Biso   1.000  H
  H14      1.0000 0.84330  0.34200  0.38880  Biso   1.000  H
  H15      1.0000 0.89370  0.67160  0.53090  Biso   1.000  H
  H16      1.0000 0.10630  0.32840  0.46910  Biso   1.000  H
  H17      1.0000 0.96440  0.80120  0.58830  Biso   1.000  H
  H18      1.0000 0.03560  0.19880  0.41170  Biso   1.000  H
