data_image0
_cell_length_a       4.3399
_cell_length_b       9.782
_cell_length_c       10.7842
_cell_angle_alpha    88.265
_cell_angle_beta     84.017
_cell_angle_gamma    80.082

_symmetry_space_group_name_H-M    "P 1"
_symmetry_int_tables_number       1

loop_
  _symmetry_equiv_pos_as_xyz
  'x, y, z'

loop_
  _atom_site_label
  _atom_site_occupancy
  _atom_site_fract_x
  _atom_site_fract_y
  _atom_site_fract_z
  _atom_site_thermal_displace_type
  _atom_site_B_iso_or_equiv
  _atom_site_type_symbol
  I1       1.0000 0.33984  0.34858  0.11287  Biso   1.000  I
  I2       1.0000 0.66016  0.65142  0.88713  Biso   1.000  I
  Cu1      1.0000 0.15270  0.60380  0.03387  Biso   1.000  Cu
  Cu2      1.0000 0.84730  0.39620  0.96613  Biso   1.000  Cu
  N1       1.0000 0.99210  0.76230  0.15440  Biso   1.000  N
  N2       1.0000 0.00790  0.23770  0.84560  Biso   1.000  N
  C1       1.0000 0.75520  0.75680  0.24770  Biso   1.000  C
  C2       1.0000 0.24480  0.24320  0.75230  Biso   1.000  C
  C3       1.0000 0.60070  0.87770  0.31410  Biso   1.000  C
  C4       1.0000 0.39930  0.12230  0.68590  Biso   1.000  C
  C5       1.0000 0.07030  0.88770  0.12300  Biso   1.000  C
  C6       1.0000 0.92970  0.11230  0.87700  Biso   1.000  C
  H1       1.0000 0.22890  0.89270  0.05890  Biso   1.000  H
  H2       1.0000 0.77110  0.10730  0.94110  Biso   1.000  H
  C7       1.0000 0.66360  0.63060  0.28030  Biso   1.000  C
  C8       1.0000 0.33640  0.36940  0.71970  Biso   1.000  C
  H3       1.0000 0.75690  0.55200  0.23520  Biso   1.000  H
  H4       1.0000 0.24310  0.44800  0.76480  Biso   1.000  H
  C9       1.0000 0.37140  0.86040  0.41390  Biso   1.000  C
  C10      1.0000 0.62860  0.13960  0.58610  Biso   1.000  C
  H5       1.0000 0.27330  0.93800  0.45930  Biso   1.000  H
  H6       1.0000 0.72670  0.06200  0.54070  Biso   1.000  H
  C11      1.0000 0.92230  0.01060  0.18300  Biso   1.000  C
  C12      1.0000 0.07770  0.98940  0.81700  Biso   1.000  C
  H7       1.0000 0.98850  0.09410  0.16020  Biso   1.000  H
  H8       1.0000 0.01150  0.90590  0.83980  Biso   1.000  H
  C13      1.0000 0.29110  0.74040  0.44530  Biso   1.000  C
  C14      1.0000 0.70890  0.25960  0.55470  Biso   1.000  C
  C15      1.0000 0.44120  0.61880  0.37630  Biso   1.000  C
  C16      1.0000 0.55880  0.38120  0.62370  Biso   1.000  C
  H9       1.0000 0.38590  0.53270  0.39750  Biso   1.000  H
  H10      1.0000 0.61410  0.46730  0.60250  Biso   1.000  H
  C17      1.0000 0.68550  0.00780  0.27310  Biso   1.000  C
  C18      1.0000 0.31450  0.99220  0.72690  Biso   1.000  C
  H11      1.0000 0.57710  0.08990  0.30860  Biso   1.000  H
  H12      1.0000 0.42290  0.91010  0.69140  Biso   1.000  H
  C19      1.0000 0.06120  0.71830  0.55700  Biso   1.000  C
  C20      1.0000 0.93880  0.28170  0.44300  Biso   1.000  C
  H13      1.0000 0.17230  0.66540  0.61990  Biso   1.000  H
  H14      1.0000 0.82770  0.33460  0.38010  Biso   1.000  H
  H15      1.0000 0.90570  0.66890  0.53180  Biso   1.000  H
  H16      1.0000 0.09430  0.33110  0.46820  Biso   1.000  H
  H17      1.0000 0.96010  0.80660  0.59010  Biso   1.000  H
  H18      1.0000 0.03990  0.19340  0.40990  Biso   1.000  H
