data_image0
_cell_length_a       4.2218
_cell_length_b       9.5636
_cell_length_c       10.291
_cell_angle_alpha    88.815
_cell_angle_beta     86.218
_cell_angle_gamma    80.014

_symmetry_space_group_name_H-M    "P 1"
_symmetry_int_tables_number       1

loop_
  _symmetry_equiv_pos_as_xyz
  'x, y, z'

loop_
  _atom_site_label
  _atom_site_occupancy
  _atom_site_fract_x
  _atom_site_fract_y
  _atom_site_fract_z
  _atom_site_thermal_displace_type
  _atom_site_B_iso_or_equiv
  _atom_site_type_symbol
  I1       1.0000 0.34591  0.34379  0.11984  Biso   1.000  I
  I2       1.0000 0.65409  0.65621  0.88016  Biso   1.000  I
  Cu1      1.0000 0.16980  0.60170  0.03190  Biso   1.000  Cu
  Cu2      1.0000 0.83020  0.39830  0.96810  Biso   1.000  Cu
  N1       1.0000 0.00400  0.76300  0.15500  Biso   1.000  N
  N2       1.0000 0.99600  0.23700  0.84500  Biso   1.000  N
  C1       1.0000 0.76500  0.75200  0.25500  Biso   1.000  C
  C2       1.0000 0.23500  0.24800  0.74500  Biso   1.000  C
  C3       1.0000 0.59700  0.88100  0.31800  Biso   1.000  C
  C4       1.0000 0.40300  0.11900  0.68200  Biso   1.000  C
  C5       1.0000 0.08000  0.88900  0.12600  Biso   1.000  C
  C6       1.0000 0.92000  0.11100  0.87400  Biso   1.000  C
  H1       1.0000 0.24690  0.89400  0.06360  Biso   1.000  H
  H2       1.0000 0.75310  0.10600  0.93640  Biso   1.000  H
  C7       1.0000 0.67400  0.62200  0.28700  Biso   1.000  C
  C8       1.0000 0.32600  0.37800  0.71300  Biso   1.000  C
  H3       1.0000 0.77450  0.54060  0.24260  Biso   1.000  H
  H4       1.0000 0.22550  0.45940  0.75740  Biso   1.000  H
  C9       1.0000 0.37000  0.86900  0.41000  Biso   1.000  C
  C10      1.0000 0.63000  0.13100  0.59000  Biso   1.000  C
  H5       1.0000 0.25880  0.95070  0.45000  Biso   1.000  H
  H6       1.0000 0.74120  0.04930  0.55000  Biso   1.000  H
  C11      1.0000 0.91900  0.01700  0.18600  Biso   1.000  C
  C12      1.0000 0.08100  0.98300  0.81400  Biso   1.000  C
  H7       1.0000 0.98260  0.10240  0.16190  Biso   1.000  H
  H8       1.0000 0.01740  0.89760  0.83810  Biso   1.000  H
  C13      1.0000 0.29000  0.73600  0.45000  Biso   1.000  C
  C14      1.0000 0.71000  0.26400  0.55000  Biso   1.000  C
  C15      1.0000 0.44900  0.61200  0.38000  Biso   1.000  C
  C16      1.0000 0.55100  0.38800  0.62000  Biso   1.000  C
  H9       1.0000 0.39080  0.52470  0.39990  Biso   1.000  H
  H10      1.0000 0.60920  0.47530  0.60010  Biso   1.000  H
  C17      1.0000 0.68400  0.01500  0.27400  Biso   1.000  C
  C18      1.0000 0.31600  0.98500  0.72600  Biso   1.000  C
  H11      1.0000 0.57210  0.09980  0.30850  Biso   1.000  H
  H12      1.0000 0.42790  0.90020  0.69150  Biso   1.000  H
  C19      1.0000 0.06600  0.72100  0.55800  Biso   1.000  C
  C20      1.0000 0.93400  0.27900  0.44200  Biso   1.000  C
  H13      1.0000 0.18070  0.67880  0.63050  Biso   1.000  H
  H14      1.0000 0.81930  0.32120  0.36950  Biso   1.000  H
  H15      1.0000 0.91950  0.66090  0.53360  Biso   1.000  H
  H16      1.0000 0.08050  0.33910  0.46640  Biso   1.000  H
  H17      1.0000 0.94640  0.81240  0.58230  Biso   1.000  H
  H18      1.0000 0.05360  0.18760  0.41770  Biso   1.000  H
