data_image0
_cell_length_a       4.4014
_cell_length_b       9.918
_cell_length_c       11.177
_cell_angle_alpha    88.16
_cell_angle_beta     82.21
_cell_angle_gamma    80.18

_symmetry_space_group_name_H-M    "P 1"
_symmetry_int_tables_number       1

loop_
  _symmetry_equiv_pos_as_xyz
  'x, y, z'

loop_
  _atom_site_label
  _atom_site_occupancy
  _atom_site_fract_x
  _atom_site_fract_y
  _atom_site_fract_z
  _atom_site_thermal_displace_type
  _atom_site_B_iso_or_equiv
  _atom_site_type_symbol
  I1       1.0000 0.33120  0.35140  0.10710  Biso   1.000  I
  I2       1.0000 0.66880  0.64860  0.89290  Biso   1.000  I
  Cu1      1.0000 0.14590  0.60480  0.03380  Biso   1.000  Cu
  Cu2      1.0000 0.85410  0.39520  0.96620  Biso   1.000  Cu
  N1       1.0000 0.99100  0.76500  0.14900  Biso   1.000  N
  N2       1.0000 0.00900  0.23500  0.85100  Biso   1.000  N
  C1       1.0000 0.75200  0.74400  0.25500  Biso   1.000  C
  C2       1.0000 0.24800  0.25600  0.74500  Biso   1.000  C
  C3       1.0000 0.60200  0.87200  0.31700  Biso   1.000  C
  C4       1.0000 0.39800  0.12800  0.68300  Biso   1.000  C
  C5       1.0000 0.06400  0.87300  0.13200  Biso   1.000  C
  C6       1.0000 0.93600  0.12700  0.86800  Biso   1.000  C
  H1       1.0000 0.23150  0.88030  0.07370  Biso   1.000  H
  H2       1.0000 0.76850  0.11970  0.92630  Biso   1.000  H
  C7       1.0000 0.65200  0.63600  0.27500  Biso   1.000  C
  C8       1.0000 0.34800  0.36400  0.72500  Biso   1.000  C
  H3       1.0000 0.72840  0.56140  0.22500  Biso   1.000  H
  H4       1.0000 0.27160  0.43860  0.77500  Biso   1.000  H
  C9       1.0000 0.37900  0.86500  0.40800  Biso   1.000  C
  C10      1.0000 0.62100  0.13500  0.59200  Biso   1.000  C
  H5       1.0000 0.28730  0.94280  0.45240  Biso   1.000  H
  H6       1.0000 0.71270  0.05720  0.54760  Biso   1.000  H
  C11      1.0000 0.92000  0.99000  0.19300  Biso   1.000  C
  C12      1.0000 0.08000  0.01000  0.80700  Biso   1.000  C
  H7       1.0000 0.99320  0.07160  0.17190  Biso   1.000  H
  H8       1.0000 0.00680  0.92840  0.82810  Biso   1.000  H
  C13      1.0000 0.29000  0.74900  0.43500  Biso   1.000  C
  C14      1.0000 0.71000  0.25100  0.56500  Biso   1.000  C
  C15      1.0000 0.43200  0.62800  0.36800  Biso   1.000  C
  C16      1.0000 0.56800  0.37200  0.63200  Biso   1.000  C
  H9       1.0000 0.37080  0.54410  0.38920  Biso   1.000  H
  H10      1.0000 0.62920  0.45590  0.61080  Biso   1.000  H
  C17      1.0000 0.68900  0.99300  0.27900  Biso   1.000  C
  C18      1.0000 0.31100  0.00700  0.72100  Biso   1.000  C
  H11      1.0000 0.58620  0.07530  0.31350  Biso   1.000  H
  H12      1.0000 0.41380  0.92470  0.68650  Biso   1.000  H
  C19      1.0000 0.06100  0.72300  0.54900  Biso   1.000  C
  C20      1.0000 0.93900  0.27700  0.45100  Biso   1.000  C
  H13      1.0000 0.17800  0.68110  0.61150  Biso   1.000  H
  H14      1.0000 0.82200  0.31890  0.38850  Biso   1.000  H
  H15      1.0000 0.92600  0.66310  0.52940  Biso   1.000  H
  H16      1.0000 0.07400  0.33690  0.47060  Biso   1.000  H
  H17      1.0000 0.93980  0.80830  0.57780  Biso   1.000  H
  H18      1.0000 0.06020  0.19170  0.42220  Biso   1.000  H
