data_image0
_cell_length_a       4.237
_cell_length_b       9.592
_cell_length_c       10.329
_cell_angle_alpha    88.78
_cell_angle_beta     86.13
_cell_angle_gamma    80.001

_symmetry_space_group_name_H-M    "P 1"
_symmetry_int_tables_number       1

loop_
  _symmetry_equiv_pos_as_xyz
  'x, y, z'

loop_
  _atom_site_label
  _atom_site_occupancy
  _atom_site_fract_x
  _atom_site_fract_y
  _atom_site_fract_z
  _atom_site_thermal_displace_type
  _atom_site_B_iso_or_equiv
  _atom_site_type_symbol
  I1       1.0000 0.34540  0.34470  0.11900  Biso   1.000  I
  I2       1.0000 0.65460  0.65530  0.88100  Biso   1.000  I
  Cu1      1.0000 0.16780  0.60170  0.03230  Biso   1.000  Cu
  Cu2      1.0000 0.83220  0.39830  0.96770  Biso   1.000  Cu
  N1       1.0000 0.99800  0.77000  0.15000  Biso   1.000  N
  N2       1.0000 0.00200  0.23000  0.85000  Biso   1.000  N
  C1       1.0000 0.76300  0.76000  0.24700  Biso   1.000  C
  C2       1.0000 0.23700  0.24000  0.75300  Biso   1.000  C
  C3       1.0000 0.59700  0.88900  0.31100  Biso   1.000  C
  C4       1.0000 0.40300  0.11100  0.68900  Biso   1.000  C
  C5       1.0000 0.07700  0.89500  0.12200  Biso   1.000  C
  C6       1.0000 0.92300  0.10500  0.87800  Biso   1.000  C
  H1       1.0000 0.24480  0.89910  0.06020  Biso   1.000  H
  H2       1.0000 0.75520  0.10090  0.93980  Biso   1.000  H
  C7       1.0000 0.67400  0.62500  0.28400  Biso   1.000  C
  C8       1.0000 0.32600  0.37500  0.71600  Biso   1.000  C
  H3       1.0000 0.77790  0.54300  0.24280  Biso   1.000  H
  H4       1.0000 0.22210  0.45700  0.75720  Biso   1.000  H
  C9       1.0000 0.36700  0.85400  0.42100  Biso   1.000  C
  C10      1.0000 0.63300  0.14600  0.57900  Biso   1.000  C
  H5       1.0000 0.27090  0.92830  0.47480  Biso   1.000  H
  H6       1.0000 0.72910  0.07170  0.52520  Biso   1.000  H
  C11      1.0000 0.92500  0.02100  0.18000  Biso   1.000  C
  C12      1.0000 0.07500  0.97900  0.82000  Biso   1.000  C
  H7       1.0000 0.97850  0.10810  0.15520  Biso   1.000  H
  H8       1.0000 0.02150  0.89190  0.84480  Biso   1.000  H
  C13      1.0000 0.29600  0.73600  0.44800  Biso   1.000  C
  C14      1.0000 0.70400  0.26400  0.55200  Biso   1.000  C
  C15      1.0000 0.44400  0.62000  0.37600  Biso   1.000  C
  C16      1.0000 0.55600  0.38000  0.62400  Biso   1.000  C
  H9       1.0000 0.37770  0.53400  0.39330  Biso   1.000  H
  H10      1.0000 0.62230  0.46600  0.60670  Biso   1.000  H
  C17      1.0000 0.68200  0.00700  0.27900  Biso   1.000  C
  C18      1.0000 0.31800  0.99300  0.72100  Biso   1.000  C
  H11      1.0000 0.57940  0.08800  0.32280  Biso   1.000  H
  H12      1.0000 0.42060  0.91200  0.67720  Biso   1.000  H
  C19      1.0000 0.06300  0.71300  0.56400  Biso   1.000  C
  C20      1.0000 0.93700  0.28700  0.43600  Biso   1.000  C
  H13      1.0000 0.17910  0.69840  0.64110  Biso   1.000  H
  H14      1.0000 0.82090  0.30160  0.35890  Biso   1.000  H
  H15      1.0000 0.96780  0.63170  0.54900  Biso   1.000  H
  H16      1.0000 0.03220  0.36830  0.45100  Biso   1.000  H
  H17      1.0000 0.89840  0.79510  0.57390  Biso   1.000  H
  H18      1.0000 0.10160  0.20490  0.42610  Biso   1.000  H
