data_image0
_cell_length_a       4.1218
_cell_length_b       9.405
_cell_length_c       10.003
_cell_angle_alpha    89.531
_cell_angle_beta     87.567
_cell_angle_gamma    80.085

_symmetry_space_group_name_H-M    "P 1"
_symmetry_int_tables_number       1

loop_
  _symmetry_equiv_pos_as_xyz
  'x, y, z'

loop_
  _atom_site_label
  _atom_site_occupancy
  _atom_site_fract_x
  _atom_site_fract_y
  _atom_site_fract_z
  _atom_site_thermal_displace_type
  _atom_site_B_iso_or_equiv
  _atom_site_type_symbol
  I1       1.0000 0.34560  0.33950  0.12311  Biso   1.000  I
  I2       1.0000 0.65440  0.66050  0.87689  Biso   1.000  I
  Cu1      1.0000 0.18820  0.59640  0.03280  Biso   1.000  Cu
  Cu2      1.0000 0.81180  0.40360  0.96720  Biso   1.000  Cu
  N1       1.0000 0.01200  0.76400  0.15300  Biso   1.000  N
  N2       1.0000 0.98800  0.23600  0.84700  Biso   1.000  N
  C1       1.0000 0.77100  0.75400  0.24900  Biso   1.000  C
  C2       1.0000 0.22900  0.24600  0.75100  Biso   1.000  C
  C3       1.0000 0.60000  0.88100  0.31800  Biso   1.000  C
  C4       1.0000 0.40000  0.11900  0.68200  Biso   1.000  C
  C5       1.0000 0.09100  0.88900  0.12600  Biso   1.000  C
  C6       1.0000 0.90900  0.11100  0.87400  Biso   1.000  C
  H1       1.0000 0.26760  0.89200  0.06540  Biso   1.000  H
  H2       1.0000 0.73240  0.10800  0.93460  Biso   1.000  H
  C7       1.0000 0.68400  0.62600  0.27900  Biso   1.000  C
  C8       1.0000 0.31600  0.37400  0.72100  Biso   1.000  C
  H3       1.0000 0.78840  0.54280  0.23480  Biso   1.000  H
  H4       1.0000 0.21160  0.45720  0.76520  Biso   1.000  H
  C9       1.0000 0.36900  0.86600  0.41700  Biso   1.000  C
  C10      1.0000 0.63100  0.13400  0.58300  Biso   1.000  C
  H5       1.0000 0.25860  0.94760  0.46210  Biso   1.000  H
  H6       1.0000 0.74140  0.05240  0.53790  Biso   1.000  H
  C11      1.0000 0.92300  0.02400  0.18200  Biso   1.000  C
  C12      1.0000 0.07700  0.97600  0.81800  Biso   1.000  C
  H7       1.0000 0.97620  0.11240  0.15480  Biso   1.000  H
  H8       1.0000 0.02380  0.88760  0.84520  Biso   1.000  H
  C13      1.0000 0.29800  0.73300  0.45200  Biso   1.000  C
  C14      1.0000 0.70200  0.26700  0.54800  Biso   1.000  C
  C15      1.0000 0.44500  0.61700  0.37500  Biso   1.000  C
  C16      1.0000 0.55500  0.38300  0.62500  Biso   1.000  C
  H9       1.0000 0.37710  0.52840  0.38860  Biso   1.000  H
  H10      1.0000 0.62290  0.47160  0.61140  Biso   1.000  H
  C17      1.0000 0.68100  0.01500  0.27900  Biso   1.000  C
  C18      1.0000 0.31900  0.98500  0.72100  Biso   1.000  C
  H11      1.0000 0.56850  0.09920  0.31990  Biso   1.000  H
  H12      1.0000 0.43150  0.90080  0.68010  Biso   1.000  H
  C19      1.0000 0.06300  0.71200  0.57000  Biso   1.000  C
  C20      1.0000 0.93700  0.28800  0.43000  Biso   1.000  C
  H13      1.0000 0.18430  0.69560  0.64990  Biso   1.000  H
  H14      1.0000 0.81570  0.30440  0.35010  Biso   1.000  H
  H15      1.0000 0.95830  0.63120  0.55290  Biso   1.000  H
  H16      1.0000 0.04170  0.36880  0.44710  Biso   1.000  H
  H17      1.0000 0.89880  0.79760  0.58050  Biso   1.000  H
  H18      1.0000 0.10120  0.20240  0.41950  Biso   1.000  H
