data_image0
_cell_length_a       4.1925
_cell_length_b       9.515
_cell_length_c       10.199
_cell_angle_alpha    89.023
_cell_angle_beta     86.675
_cell_angle_gamma    80.109

_symmetry_space_group_name_H-M    "P 1"
_symmetry_int_tables_number       1

loop_
  _symmetry_equiv_pos_as_xyz
  'x, y, z'

loop_
  _atom_site_label
  _atom_site_occupancy
  _atom_site_fract_x
  _atom_site_fract_y
  _atom_site_fract_z
  _atom_site_thermal_displace_type
  _atom_site_B_iso_or_equiv
  _atom_site_type_symbol
  I1       1.0000 0.34604  0.34254  0.12099  Biso   1.000  I
  I2       1.0000 0.65396  0.65746  0.87901  Biso   1.000  I
  Cu1      1.0000 0.17530  0.60010  0.03230  Biso   1.000  Cu
  Cu2      1.0000 0.82470  0.39990  0.96770  Biso   1.000  Cu
  N1       1.0000 0.00700  0.76600  0.15300  Biso   1.000  N
  N2       1.0000 0.99300  0.23400  0.84700  Biso   1.000  N
  C1       1.0000 0.76600  0.75600  0.24900  Biso   1.000  C
  C2       1.0000 0.23400  0.24400  0.75100  Biso   1.000  C
  C3       1.0000 0.60300  0.88500  0.31200  Biso   1.000  C
  C4       1.0000 0.39700  0.11500  0.68800  Biso   1.000  C
  C5       1.0000 0.08600  0.89200  0.12300  Biso   1.000  C
  C6       1.0000 0.91400  0.10800  0.87700  Biso   1.000  C
  H1       1.0000 0.26170  0.89340  0.06320  Biso   1.000  H
  H2       1.0000 0.73830  0.10660  0.93680  Biso   1.000  H
  C7       1.0000 0.67700  0.62600  0.28000  Biso   1.000  C
  C8       1.0000 0.32300  0.37400  0.72000  Biso   1.000  C
  H3       1.0000 0.77530  0.54530  0.23430  Biso   1.000  H
  H4       1.0000 0.22470  0.45470  0.76570  Biso   1.000  H
  C9       1.0000 0.36200  0.86700  0.41400  Biso   1.000  C
  C10      1.0000 0.63800  0.13300  0.58600  Biso   1.000  C
  H5       1.0000 0.24880  0.94640  0.45810  Biso   1.000  H
  H6       1.0000 0.75120  0.05360  0.54190  Biso   1.000  H
  C11      1.0000 0.92200  0.03000  0.17500  Biso   1.000  C
  C12      1.0000 0.07800  0.97000  0.82500  Biso   1.000  C
  H7       1.0000 0.96810  0.11760  0.14650  Biso   1.000  H
  H8       1.0000 0.03190  0.88240  0.85350  Biso   1.000  H
  C13      1.0000 0.29600  0.73600  0.44800  Biso   1.000  C
  C14      1.0000 0.70400  0.26400  0.55200  Biso   1.000  C
  C15      1.0000 0.44800  0.61400  0.37700  Biso   1.000  C
  C16      1.0000 0.55200  0.38600  0.62300  Biso   1.000  C
  H9       1.0000 0.39150  0.52540  0.39700  Biso   1.000  H
  H10      1.0000 0.60850  0.47460  0.60300  Biso   1.000  H
  C17      1.0000 0.67700  0.01000  0.27700  Biso   1.000  C
  C18      1.0000 0.32300  0.99000  0.72300  Biso   1.000  C
  H11      1.0000 0.56580  0.09070  0.32080  Biso   1.000  H
  H12      1.0000 0.43420  0.90930  0.67920  Biso   1.000  H
  C19      1.0000 0.06200  0.71400  0.56600  Biso   1.000  C
  C20      1.0000 0.93800  0.28600  0.43400  Biso   1.000  C
  H13      1.0000 0.18200  0.69430  0.64320  Biso   1.000  H
  H14      1.0000 0.81800  0.30570  0.35680  Biso   1.000  H
  H15      1.0000 0.95690  0.63480  0.54830  Biso   1.000  H
  H16      1.0000 0.04310  0.36520  0.45170  Biso   1.000  H
  H17      1.0000 0.90270  0.79840  0.57850  Biso   1.000  H
  H18      1.0000 0.09730  0.20160  0.42150  Biso   1.000  H
