data_image0
_cell_length_a       8.0423
_cell_length_b       11.531
_cell_length_c       17.3505
_cell_angle_alpha    90
_cell_angle_beta     90
_cell_angle_gamma    90

_symmetry_space_group_name_H-M    "P 1"
_symmetry_int_tables_number       1

loop_
  _symmetry_equiv_pos_as_xyz
  'x, y, z'

loop_
  _atom_site_label
  _atom_site_occupancy
  _atom_site_fract_x
  _atom_site_fract_y
  _atom_site_fract_z
  _atom_site_thermal_displace_type
  _atom_site_B_iso_or_equiv
  _atom_site_type_symbol
  Cu1      1.0000 0.81814  0.41603  0.79292  Biso   1.000  Cu
  Cu2      1.0000 0.18186  0.58397  0.79292  Biso   1.000  Cu
  Cu3      1.0000 0.31814  0.08397  0.79292  Biso   1.000  Cu
  Cu4      1.0000 0.68186  0.91603  0.79292  Biso   1.000  Cu
  Cu5      1.0000 0.31814  0.91603  0.29292  Biso   1.000  Cu
  Cu6      1.0000 0.68186  0.08397  0.29292  Biso   1.000  Cu
  Cu7      1.0000 0.81814  0.58397  0.29292  Biso   1.000  Cu
  Cu8      1.0000 0.18186  0.41603  0.29292  Biso   1.000  Cu
  N1       1.0000 0.92890  0.46510  0.69132  Biso   1.000  N
  N2       1.0000 0.07110  0.53490  0.69132  Biso   1.000  N
  N3       1.0000 0.42890  0.03490  0.69132  Biso   1.000  N
  N4       1.0000 0.57110  0.96510  0.69132  Biso   1.000  N
  N5       1.0000 0.42890  0.96510  0.19132  Biso   1.000  N
  N6       1.0000 0.57110  0.03490  0.19132  Biso   1.000  N
  N7       1.0000 0.92890  0.53490  0.19132  Biso   1.000  N
  N8       1.0000 0.07110  0.46510  0.19132  Biso   1.000  N
  N9       1.0000 0.00000  0.50000  0.56850  Biso   1.000  N
  N10      1.0000 0.50000  0.00000  0.56850  Biso   1.000  N
  N11      1.0000 0.50000  0.00000  0.06850  Biso   1.000  N
  N12      1.0000 0.00000  0.50000  0.06850  Biso   1.000  N
  N13      1.0000 0.78510  0.42530  0.33204  Biso   1.000  N
  N14      1.0000 0.21490  0.57470  0.33204  Biso   1.000  N
  N15      1.0000 0.28510  0.07470  0.33204  Biso   1.000  N
  N16      1.0000 0.71490  0.92530  0.33204  Biso   1.000  N
  N17      1.0000 0.28510  0.92530  0.83204  Biso   1.000  N
  N18      1.0000 0.71490  0.07470  0.83204  Biso   1.000  N
  N19      1.0000 0.78510  0.57470  0.83204  Biso   1.000  N
  N20      1.0000 0.21490  0.42530  0.83204  Biso   1.000  N
  N21      1.0000 0.87100  0.38030  0.39367  Biso   1.000  N
  N22      1.0000 0.12900  0.61970  0.39367  Biso   1.000  N
  N23      1.0000 0.37100  0.11970  0.39367  Biso   1.000  N
  N24      1.0000 0.62900  0.88030  0.39367  Biso   1.000  N
  N25      1.0000 0.37100  0.88030  0.89367  Biso   1.000  N
  N26      1.0000 0.62900  0.11970  0.89367  Biso   1.000  N
  N27      1.0000 0.87100  0.61970  0.89367  Biso   1.000  N
  N28      1.0000 0.12900  0.38030  0.89367  Biso   1.000  N
  N29      1.0000 0.75330  0.23410  0.32957  Biso   1.000  N
  N30      1.0000 0.24670  0.76590  0.32957  Biso   1.000  N
  N31      1.0000 0.25330  0.26590  0.32957  Biso   1.000  N
  N32      1.0000 0.74670  0.73410  0.32957  Biso   1.000  N
  N33      1.0000 0.25330  0.73410  0.82957  Biso   1.000  N
  N34      1.0000 0.74670  0.26590  0.82957  Biso   1.000  N
  N35      1.0000 0.75330  0.76590  0.82957  Biso   1.000  N
  N36      1.0000 0.24670  0.23410  0.82957  Biso   1.000  N
  C1       1.0000 0.89040  0.44940  0.61780  Biso   1.000  C
  C2       1.0000 0.10960  0.55060  0.61780  Biso   1.000  C
  C3       1.0000 0.39040  0.05060  0.61780  Biso   1.000  C
  C4       1.0000 0.60960  0.94940  0.61780  Biso   1.000  C
  C5       1.0000 0.39040  0.94940  0.11780  Biso   1.000  C
  C6       1.0000 0.60960  0.05060  0.11780  Biso   1.000  C
  C7       1.0000 0.89040  0.55060  0.11780  Biso   1.000  C
  C8       1.0000 0.10960  0.44940  0.11780  Biso   1.000  C
  C9       1.0000 0.73890  0.38670  0.59210  Biso   1.000  C
  C10      1.0000 0.26110  0.61330  0.59210  Biso   1.000  C
  C11      1.0000 0.23890  0.11330  0.59210  Biso   1.000  C
  C12      1.0000 0.76110  0.88670  0.59210  Biso   1.000  C
  C13      1.0000 0.23890  0.88670  0.09210  Biso   1.000  C
  C14      1.0000 0.76110  0.11330  0.09210  Biso   1.000  C
  C15      1.0000 0.73890  0.61330  0.09210  Biso   1.000  C
  C16      1.0000 0.26110  0.38670  0.09210  Biso   1.000  C
  H1       1.0000 0.69860  0.33870  0.63320  Biso   1.000  H
  H2       1.0000 0.30140  0.66130  0.63320  Biso   1.000  H
  H3       1.0000 0.19860  0.16130  0.63320  Biso   1.000  H
  H4       1.0000 0.80140  0.83870  0.63320  Biso   1.000  H
  H5       1.0000 0.19860  0.83870  0.13320  Biso   1.000  H
  H6       1.0000 0.80140  0.16130  0.13320  Biso   1.000  H
  H7       1.0000 0.69860  0.66130  0.13320  Biso   1.000  H
  H8       1.0000 0.30140  0.33870  0.13320  Biso   1.000  H
  H9       1.0000 0.65480  0.44180  0.57790  Biso   1.000  H
  H10      1.0000 0.34520  0.55820  0.57790  Biso   1.000  H
  H11      1.0000 0.15480  0.05820  0.57790  Biso   1.000  H
  H12      1.0000 0.84520  0.94180  0.57790  Biso   1.000  H
  H13      1.0000 0.15480  0.94180  0.07790  Biso   1.000  H
  H14      1.0000 0.84520  0.05820  0.07790  Biso   1.000  H
  H15      1.0000 0.65480  0.55820  0.07790  Biso   1.000  H
  H16      1.0000 0.34520  0.44180  0.07790  Biso   1.000  H
  H17      1.0000 0.76550  0.33920  0.54840  Biso   1.000  H
  H18      1.0000 0.23450  0.66080  0.54840  Biso   1.000  H
  H19      1.0000 0.26550  0.16080  0.54840  Biso   1.000  H
  H20      1.0000 0.73450  0.83920  0.54840  Biso   1.000  H
  H21      1.0000 0.26550  0.83920  0.04840  Biso   1.000  H
  H22      1.0000 0.73450  0.16080  0.04840  Biso   1.000  H
  H23      1.0000 0.76550  0.66080  0.04840  Biso   1.000  H
  H24      1.0000 0.23450  0.33920  0.04840  Biso   1.000  H
  C17      1.0000 0.71690  0.33600  0.29530  Biso   1.000  C
  C18      1.0000 0.28310  0.66400  0.29530  Biso   1.000  C
  C19      1.0000 0.21690  0.16400  0.29530  Biso   1.000  C
  C20      1.0000 0.78310  0.83600  0.29530  Biso   1.000  C
  C21      1.0000 0.21690  0.83600  0.79530  Biso   1.000  C
  C22      1.0000 0.78310  0.16400  0.79530  Biso   1.000  C
  C23      1.0000 0.71690  0.66400  0.79530  Biso   1.000  C
  C24      1.0000 0.28310  0.33600  0.79530  Biso   1.000  C
  C25      1.0000 0.84910  0.26570  0.39110  Biso   1.000  C
  C26      1.0000 0.15090  0.73430  0.39110  Biso   1.000  C
  C27      1.0000 0.34910  0.23430  0.39110  Biso   1.000  C
  C28      1.0000 0.65090  0.76570  0.39110  Biso   1.000  C
  C29      1.0000 0.34910  0.76570  0.89110  Biso   1.000  C
  C30      1.0000 0.65090  0.23430  0.89110  Biso   1.000  C
  C31      1.0000 0.84910  0.73430  0.89110  Biso   1.000  C
  C32      1.0000 0.15090  0.26570  0.89110  Biso   1.000  C
  C33      1.0000 0.61180  0.34760  0.22580  Biso   1.000  C
  C34      1.0000 0.38820  0.65240  0.22580  Biso   1.000  C
  C35      1.0000 0.11180  0.15240  0.22580  Biso   1.000  C
  C36      1.0000 0.88820  0.84760  0.22580  Biso   1.000  C
  C37      1.0000 0.11180  0.84760  0.72580  Biso   1.000  C
  C38      1.0000 0.88820  0.15240  0.72580  Biso   1.000  C
  C39      1.0000 0.61180  0.65240  0.72580  Biso   1.000  C
  C40      1.0000 0.38820  0.34760  0.72580  Biso   1.000  C
  H25      1.0000 0.52910  0.40620  0.23440  Biso   1.000  H
  H26      1.0000 0.47090  0.59380  0.23440  Biso   1.000  H
  H27      1.0000 0.02910  0.09380  0.23440  Biso   1.000  H
  H28      1.0000 0.97090  0.90620  0.23440  Biso   1.000  H
  H29      1.0000 0.02910  0.90620  0.73440  Biso   1.000  H
  H30      1.0000 0.97090  0.09380  0.73440  Biso   1.000  H
  H31      1.0000 0.52910  0.59380  0.73440  Biso   1.000  H
  H32      1.0000 0.47090  0.40620  0.73440  Biso   1.000  H
  H33      1.0000 0.55820  0.27490  0.21530  Biso   1.000  H
  H34      1.0000 0.44180  0.72510  0.21530  Biso   1.000  H
  H35      1.0000 0.05820  0.22510  0.21530  Biso   1.000  H
  H36      1.0000 0.94180  0.77490  0.21530  Biso   1.000  H
  H37      1.0000 0.05820  0.77490  0.71530  Biso   1.000  H
  H38      1.0000 0.94180  0.22510  0.71530  Biso   1.000  H
  H39      1.0000 0.55820  0.72510  0.71530  Biso   1.000  H
  H40      1.0000 0.44180  0.27490  0.71530  Biso   1.000  H
  H41      1.0000 0.67980  0.36910  0.18270  Biso   1.000  H
  H42      1.0000 0.32020  0.63090  0.18270  Biso   1.000  H
  H43      1.0000 0.17980  0.13090  0.18270  Biso   1.000  H
  H44      1.0000 0.82020  0.86910  0.18270  Biso   1.000  H
  H45      1.0000 0.17980  0.86910  0.68270  Biso   1.000  H
  H46      1.0000 0.82020  0.13090  0.68270  Biso   1.000  H
  H47      1.0000 0.67980  0.63090  0.68270  Biso   1.000  H
  H48      1.0000 0.32020  0.36910  0.68270  Biso   1.000  H
  C41      1.0000 0.92120  0.18260  0.44690  Biso   1.000  C
  C42      1.0000 0.07880  0.81740  0.44690  Biso   1.000  C
  C43      1.0000 0.42120  0.31740  0.44690  Biso   1.000  C
  C44      1.0000 0.57880  0.68260  0.44690  Biso   1.000  C
  C45      1.0000 0.42120  0.68260  0.94690  Biso   1.000  C
  C46      1.0000 0.57880  0.31740  0.94690  Biso   1.000  C
  C47      1.0000 0.92120  0.81740  0.94690  Biso   1.000  C
  C48      1.0000 0.07880  0.18260  0.94690  Biso   1.000  C
  H49      1.0000 0.98010  0.22430  0.48620  Biso   1.000  H
  H50      1.0000 0.01990  0.77570  0.48620  Biso   1.000  H
  H51      1.0000 0.48010  0.27570  0.48620  Biso   1.000  H
  H52      1.0000 0.51990  0.72430  0.48620  Biso   1.000  H
  H53      1.0000 0.48010  0.72430  0.98620  Biso   1.000  H
  H54      1.0000 0.51990  0.27570  0.98620  Biso   1.000  H
  H55      1.0000 0.98010  0.77570  0.98620  Biso   1.000  H
  H56      1.0000 0.01990  0.22430  0.98620  Biso   1.000  H
  H57      1.0000 0.99660  0.13160  0.42060  Biso   1.000  H
  H58      1.0000 0.00340  0.86840  0.42060  Biso   1.000  H
  H59      1.0000 0.49660  0.36840  0.42060  Biso   1.000  H
  H60      1.0000 0.50340  0.63160  0.42060  Biso   1.000  H
  H61      1.0000 0.49660  0.63160  0.92060  Biso   1.000  H
  H62      1.0000 0.50340  0.36840  0.92060  Biso   1.000  H
  H63      1.0000 0.99660  0.86840  0.92060  Biso   1.000  H
  H64      1.0000 0.00340  0.13160  0.92060  Biso   1.000  H
  H65      1.0000 0.83370  0.13790  0.47000  Biso   1.000  H
  H66      1.0000 0.16630  0.86210  0.47000  Biso   1.000  H
  H67      1.0000 0.33370  0.36210  0.47000  Biso   1.000  H
  H68      1.0000 0.66630  0.63790  0.47000  Biso   1.000  H
  H69      1.0000 0.33370  0.63790  0.97000  Biso   1.000  H
  H70      1.0000 0.66630  0.36210  0.97000  Biso   1.000  H
  H71      1.0000 0.83370  0.86210  0.97000  Biso   1.000  H
  H72      1.0000 0.16630  0.13790  0.97000  Biso   1.000  H
  Cu9      1.0000 0.00000  0.50000  0.45514  Biso   1.000  Cu
  Cu10     1.0000 0.50000  0.00000  0.45514  Biso   1.000  Cu
  Cu11     1.0000 0.50000  0.00000  0.95514  Biso   1.000  Cu
  Cu12     1.0000 0.00000  0.50000  0.95514  Biso   1.000  Cu
