data_image0
_cell_length_a       4.1322
_cell_length_b       9.4165
_cell_length_c       10.0257
_cell_angle_alpha    89.417
_cell_angle_beta     87.462
_cell_angle_gamma    80.013

_symmetry_space_group_name_H-M    "P 1"
_symmetry_int_tables_number       1

loop_
  _symmetry_equiv_pos_as_xyz
  'x, y, z'

loop_
  _atom_site_label
  _atom_site_occupancy
  _atom_site_fract_x
  _atom_site_fract_y
  _atom_site_fract_z
  _atom_site_thermal_displace_type
  _atom_site_B_iso_or_equiv
  _atom_site_type_symbol
  I1       1.0000 0.34594  0.33981  0.12285  Biso   1.000  I
  I2       1.0000 0.65406  0.66019  0.87715  Biso   1.000  I
  Cu1      1.0000 0.18640  0.59720  0.03260  Biso   1.000  Cu
  Cu2      1.0000 0.81360  0.40280  0.96740  Biso   1.000  Cu
  N1       1.0000 0.01160  0.76300  0.15380  Biso   1.000  N
  N2       1.0000 0.98840  0.23700  0.84620  Biso   1.000  N
  C1       1.0000 0.76910  0.75200  0.25120  Biso   1.000  C
  C2       1.0000 0.23090  0.24800  0.74880  Biso   1.000  C
  C3       1.0000 0.60100  0.88500  0.31510  Biso   1.000  C
  C4       1.0000 0.39900  0.11500  0.68490  Biso   1.000  C
  C5       1.0000 0.08900  0.89100  0.12410  Biso   1.000  C
  C6       1.0000 0.91100  0.10900  0.87590  Biso   1.000  C
  H1       1.0000 0.26330  0.89390  0.06270  Biso   1.000  H
  H2       1.0000 0.73670  0.10610  0.93730  Biso   1.000  H
  C7       1.0000 0.68290  0.62200  0.28110  Biso   1.000  C
  C8       1.0000 0.31710  0.37800  0.71890  Biso   1.000  C
  H3       1.0000 0.78450  0.53990  0.23480  Biso   1.000  H
  H4       1.0000 0.21550  0.46010  0.76520  Biso   1.000  H
  C9       1.0000 0.36380  0.86400  0.41800  Biso   1.000  C
  C10      1.0000 0.63620  0.13600  0.58200  Biso   1.000  C
  H5       1.0000 0.25260  0.94380  0.46440  Biso   1.000  H
  H6       1.0000 0.74740  0.05620  0.53560  Biso   1.000  H
  C11      1.0000 0.92400  0.02500  0.17990  Biso   1.000  C
  C12      1.0000 0.07600  0.97500  0.82010  Biso   1.000  C
  H7       1.0000 0.97750  0.11320  0.15280  Biso   1.000  H
  H8       1.0000 0.02250  0.88680  0.84720  Biso   1.000  H
  C13      1.0000 0.29300  0.73400  0.45080  Biso   1.000  C
  C14      1.0000 0.70700  0.26600  0.54920  Biso   1.000  C
  C15      1.0000 0.44900  0.61200  0.37840  Biso   1.000  C
  C16      1.0000 0.55100  0.38800  0.62160  Biso   1.000  C
  H9       1.0000 0.39000  0.52250  0.39760  Biso   1.000  H
  H10      1.0000 0.61000  0.47750  0.60240  Biso   1.000  H
  C17      1.0000 0.67800  0.01400  0.27800  Biso   1.000  C
  C18      1.0000 0.32200  0.98600  0.72200  Biso   1.000  C
  H11      1.0000 0.56360  0.09780  0.31840  Biso   1.000  H
  H12      1.0000 0.43640  0.90220  0.68160  Biso   1.000  H
  C19      1.0000 0.06200  0.71300  0.56750  Biso   1.000  C
  C20      1.0000 0.93800  0.28700  0.43250  Biso   1.000  C
  H13      1.0000 0.18650  0.67490  0.64210  Biso   1.000  H
  H14      1.0000 0.81350  0.32510  0.35790  Biso   1.000  H
  H15      1.0000 0.92130  0.64770  0.54280  Biso   1.000  H
  H16      1.0000 0.07870  0.35230  0.45720  Biso   1.000  H
  H17      1.0000 0.92980  0.80460  0.59160  Biso   1.000  H
  H18      1.0000 0.07020  0.19540  0.40840  Biso   1.000  H
