data_image0
_cell_length_a       4.1769
_cell_length_b       9.4845
_cell_length_c       10.1521
_cell_angle_alpha    89.116
_cell_angle_beta     86.774
_cell_angle_gamma    80.153

_symmetry_space_group_name_H-M    "P 1"
_symmetry_int_tables_number       1

loop_
  _symmetry_equiv_pos_as_xyz
  'x, y, z'

loop_
  _atom_site_label
  _atom_site_occupancy
  _atom_site_fract_x
  _atom_site_fract_y
  _atom_site_fract_z
  _atom_site_thermal_displace_type
  _atom_site_B_iso_or_equiv
  _atom_site_type_symbol
  I1       1.0000 0.34600  0.34198  0.12132  Biso   1.000  I
  I2       1.0000 0.65400  0.65802  0.87868  Biso   1.000  I
  Cu1      1.0000 0.17790  0.59890  0.03290  Biso   1.000  Cu
  Cu2      1.0000 0.82210  0.40110  0.96710  Biso   1.000  Cu
  N1       1.0000 0.00740  0.76400  0.15370  Biso   1.000  N
  N2       1.0000 0.99260  0.23600  0.84630  Biso   1.000  N
  C1       1.0000 0.76500  0.75900  0.24800  Biso   1.000  C
  C2       1.0000 0.23500  0.24100  0.75200  Biso   1.000  C
  C3       1.0000 0.60000  0.88200  0.31500  Biso   1.000  C
  C4       1.0000 0.40000  0.11800  0.68500  Biso   1.000  C
  C5       1.0000 0.08800  0.89100  0.12400  Biso   1.000  C
  C6       1.0000 0.91200  0.10900  0.87600  Biso   1.000  C
  H1       1.0000 0.26330  0.89410  0.06340  Biso   1.000  H
  H2       1.0000 0.73670  0.10590  0.93660  Biso   1.000  H
  C7       1.0000 0.67600  0.62700  0.27900  Biso   1.000  C
  C8       1.0000 0.32400  0.37300  0.72100  Biso   1.000  C
  H3       1.0000 0.77730  0.54580  0.23330  Biso   1.000  H
  H4       1.0000 0.22270  0.45420  0.76670  Biso   1.000  H
  C9       1.0000 0.36300  0.86600  0.41600  Biso   1.000  C
  C10      1.0000 0.63700  0.13400  0.58400  Biso   1.000  C
  H5       1.0000 0.25470  0.94650  0.46160  Biso   1.000  H
  H6       1.0000 0.74530  0.05350  0.53840  Biso   1.000  H
  C11      1.0000 0.92200  0.02500  0.17900  Biso   1.000  C
  C12      1.0000 0.07800  0.97500  0.82100  Biso   1.000  C
  H7       1.0000 0.97360  0.11240  0.15160  Biso   1.000  H
  H8       1.0000 0.02640  0.88760  0.84840  Biso   1.000  H
  C13      1.0000 0.29300  0.73800  0.44800  Biso   1.000  C
  C14      1.0000 0.70700  0.26200  0.55200  Biso   1.000  C
  C15      1.0000 0.44700  0.61400  0.37600  Biso   1.000  C
  C16      1.0000 0.55300  0.38600  0.62400  Biso   1.000  C
  H9       1.0000 0.38950  0.52560  0.39500  Biso   1.000  H
  H10      1.0000 0.61050  0.47440  0.60500  Biso   1.000  H
  C17      1.0000 0.67800  0.01400  0.27600  Biso   1.000  C
  C18      1.0000 0.32200  0.98600  0.72400  Biso   1.000  C
  H11      1.0000 0.56510  0.09670  0.31580  Biso   1.000  H
  H12      1.0000 0.43490  0.90330  0.68420  Biso   1.000  H
  C19      1.0000 0.06300  0.71500  0.56600  Biso   1.000  C
  C20      1.0000 0.93700  0.28500  0.43400  Biso   1.000  C
  H13      1.0000 0.18700  0.69270  0.64260  Biso   1.000  H
  H14      1.0000 0.81300  0.30730  0.35740  Biso   1.000  H
  H15      1.0000 0.95290  0.63720  0.54780  Biso   1.000  H
  H16      1.0000 0.04710  0.36280  0.45220  Biso   1.000  H
  H17      1.0000 0.90660  0.80040  0.58120  Biso   1.000  H
  H18      1.0000 0.09340  0.19960  0.41880  Biso   1.000  H
