data_image0
_cell_length_a       4.3745
_cell_length_b       9.863
_cell_length_c       10.963
_cell_angle_alpha    88.206
_cell_angle_beta     83.14
_cell_angle_gamma    80.11

_symmetry_space_group_name_H-M    "P 1"
_symmetry_int_tables_number       1

loop_
  _symmetry_equiv_pos_as_xyz
  'x, y, z'

loop_
  _atom_site_label
  _atom_site_occupancy
  _atom_site_fract_x
  _atom_site_fract_y
  _atom_site_fract_z
  _atom_site_thermal_displace_type
  _atom_site_B_iso_or_equiv
  _atom_site_type_symbol
  I1       1.0000 0.33588  0.34972  0.11041  Biso   1.000  I
  I2       1.0000 0.66412  0.65028  0.88959  Biso   1.000  I
  Cu1      1.0000 0.14940  0.60400  0.03440  Biso   1.000  Cu
  Cu2      1.0000 0.85060  0.39600  0.96560  Biso   1.000  Cu
  N1       1.0000 0.98740  0.76260  0.15160  Biso   1.000  N
  N2       1.0000 0.01260  0.23740  0.84840  Biso   1.000  N
  C1       1.0000 0.75170  0.75380  0.24730  Biso   1.000  C
  C2       1.0000 0.24830  0.24620  0.75270  Biso   1.000  C
  C3       1.0000 0.60250  0.87730  0.31370  Biso   1.000  C
  C4       1.0000 0.39750  0.12270  0.68630  Biso   1.000  C
  C5       1.0000 0.06740  0.88400  0.12310  Biso   1.000  C
  C6       1.0000 0.93260  0.11600  0.87690  Biso   1.000  C
  H1       1.0000 0.22830  0.88860  0.06030  Biso   1.000  H
  H2       1.0000 0.77170  0.11140  0.93970  Biso   1.000  H
  C7       1.0000 0.65850  0.63120  0.28030  Biso   1.000  C
  C8       1.0000 0.34150  0.36880  0.71970  Biso   1.000  C
  H3       1.0000 0.75040  0.55290  0.23590  Biso   1.000  H
  H4       1.0000 0.24960  0.44710  0.76410  Biso   1.000  H
  C9       1.0000 0.37120  0.85880  0.41350  Biso   1.000  C
  C10      1.0000 0.62880  0.14120  0.58650  Biso   1.000  C
  H5       1.0000 0.27370  0.93520  0.45940  Biso   1.000  H
  H6       1.0000 0.72630  0.06480  0.54060  Biso   1.000  H
  C11      1.0000 0.92270  0.00900  0.18260  Biso   1.000  C
  C12      1.0000 0.07730  0.99100  0.81740  Biso   1.000  C
  H7       1.0000 0.98630  0.09180  0.15860  Biso   1.000  H
  H8       1.0000 0.01370  0.90820  0.84140  Biso   1.000  H
  C13      1.0000 0.29170  0.74150  0.44270  Biso   1.000  C
  C14      1.0000 0.70830  0.25850  0.55730  Biso   1.000  C
  C15      1.0000 0.43830  0.61990  0.37490  Biso   1.000  C
  C16      1.0000 0.56170  0.38010  0.62510  Biso   1.000  C
  H9       1.0000 0.38140  0.53490  0.39640  Biso   1.000  H
  H10      1.0000 0.61860  0.46510  0.60360  Biso   1.000  H
  C17      1.0000 0.68670  0.00400  0.27620  Biso   1.000  C
  C18      1.0000 0.31330  0.99600  0.72380  Biso   1.000  C
  H11      1.0000 0.58330  0.08420  0.31460  Biso   1.000  H
  H12      1.0000 0.41670  0.91580  0.68540  Biso   1.000  H
  C19      1.0000 0.06180  0.71400  0.55900  Biso   1.000  C
  C20      1.0000 0.93820  0.28600  0.44100  Biso   1.000  C
  H13      1.0000 0.18010  0.67330  0.62330  Biso   1.000  H
  H14      1.0000 0.81990  0.32670  0.37670  Biso   1.000  H
  H15      1.0000 0.93000  0.65160  0.53800  Biso   1.000  H
  H16      1.0000 0.07000  0.34840  0.46200  Biso   1.000  H
  H17      1.0000 0.93510  0.79880  0.58670  Biso   1.000  H
  H18      1.0000 0.06490  0.20120  0.41330  Biso   1.000  H
