data_image0
_cell_length_a       14.0247
_cell_length_b       14.0247
_cell_length_c       5.2884
_cell_angle_alpha    90
_cell_angle_beta     90
_cell_angle_gamma    90

_symmetry_space_group_name_H-M    "P 1"
_symmetry_int_tables_number       1

loop_
  _symmetry_equiv_pos_as_xyz
  'x, y, z'

loop_
  _atom_site_label
  _atom_site_occupancy
  _atom_site_fract_x
  _atom_site_fract_y
  _atom_site_fract_z
  _atom_site_thermal_displace_type
  _atom_site_B_iso_or_equiv
  _atom_site_type_symbol
  C1       1.0000 0.45676  0.79771  0.28010  Biso   1.000  C
  C2       1.0000 0.54324  0.20229  0.28010  Biso   1.000  C
  C3       1.0000 0.79771  0.54324  0.71990  Biso   1.000  C
  C4       1.0000 0.20229  0.45676  0.71990  Biso   1.000  C
  C5       1.0000 0.04324  0.79771  0.46990  Biso   1.000  C
  C6       1.0000 0.95676  0.20229  0.46990  Biso   1.000  C
  C7       1.0000 0.70229  0.54324  0.03010  Biso   1.000  C
  C8       1.0000 0.29771  0.45676  0.03010  Biso   1.000  C
  C9       1.0000 0.95676  0.29771  0.78010  Biso   1.000  C
  C10      1.0000 0.04324  0.70229  0.78010  Biso   1.000  C
  C11      1.0000 0.29771  0.04324  0.21990  Biso   1.000  C
  C12      1.0000 0.70229  0.95676  0.21990  Biso   1.000  C
  C13      1.0000 0.54324  0.29771  0.96990  Biso   1.000  C
  C14      1.0000 0.45676  0.70229  0.96990  Biso   1.000  C
  C15      1.0000 0.20229  0.04324  0.53010  Biso   1.000  C
  C16      1.0000 0.79771  0.95676  0.53010  Biso   1.000  C
  C17      1.0000 0.48668  0.86177  0.49040  Biso   1.000  C
  C18      1.0000 0.51332  0.13823  0.49040  Biso   1.000  C
  C19      1.0000 0.86177  0.51332  0.50960  Biso   1.000  C
  C20      1.0000 0.13823  0.48668  0.50960  Biso   1.000  C
  C21      1.0000 0.01332  0.86177  0.25960  Biso   1.000  C
  C22      1.0000 0.98668  0.13823  0.25960  Biso   1.000  C
  C23      1.0000 0.63823  0.51332  0.24040  Biso   1.000  C
  C24      1.0000 0.36177  0.48668  0.24040  Biso   1.000  C
  C25      1.0000 0.98668  0.36177  0.99040  Biso   1.000  C
  C26      1.0000 0.01332  0.63823  0.99040  Biso   1.000  C
  C27      1.0000 0.36177  0.01332  0.00960  Biso   1.000  C
  C28      1.0000 0.63823  0.98668  0.00960  Biso   1.000  C
  C29      1.0000 0.51332  0.36177  0.75960  Biso   1.000  C
  C30      1.0000 0.48668  0.63823  0.75960  Biso   1.000  C
  C31      1.0000 0.13823  0.01332  0.74040  Biso   1.000  C
  C32      1.0000 0.86177  0.98668  0.74040  Biso   1.000  C
  H1       1.0000 0.43130  0.88360  0.58010  Biso   1.000  H
  H2       1.0000 0.56870  0.11640  0.58010  Biso   1.000  H
  H3       1.0000 0.88360  0.56870  0.41990  Biso   1.000  H
  H4       1.0000 0.11640  0.43130  0.41990  Biso   1.000  H
  H5       1.0000 0.06870  0.88360  0.16990  Biso   1.000  H
  H6       1.0000 0.93130  0.11640  0.16990  Biso   1.000  H
  H7       1.0000 0.61640  0.56870  0.33010  Biso   1.000  H
  H8       1.0000 0.38360  0.43130  0.33010  Biso   1.000  H
  H9       1.0000 0.93130  0.38360  0.08010  Biso   1.000  H
  H10      1.0000 0.06870  0.61640  0.08010  Biso   1.000  H
  H11      1.0000 0.38360  0.06870  0.91990  Biso   1.000  H
  H12      1.0000 0.61640  0.93130  0.91990  Biso   1.000  H
  H13      1.0000 0.56870  0.38360  0.66990  Biso   1.000  H
  H14      1.0000 0.43130  0.61640  0.66990  Biso   1.000  H
  H15      1.0000 0.11640  0.06870  0.83010  Biso   1.000  H
  H16      1.0000 0.88360  0.93130  0.83010  Biso   1.000  H
  H17      1.0000 0.52040  0.91550  0.42250  Biso   1.000  H
  H18      1.0000 0.47960  0.08450  0.42250  Biso   1.000  H
  H19      1.0000 0.91550  0.47960  0.57750  Biso   1.000  H
  H20      1.0000 0.08450  0.52040  0.57750  Biso   1.000  H
  H21      1.0000 0.97960  0.91550  0.32750  Biso   1.000  H
  H22      1.0000 0.02040  0.08450  0.32750  Biso   1.000  H
  H23      1.0000 0.58450  0.47960  0.17250  Biso   1.000  H
  H24      1.0000 0.41550  0.52040  0.17250  Biso   1.000  H
  H25      1.0000 0.02040  0.41550  0.92250  Biso   1.000  H
  H26      1.0000 0.97960  0.58450  0.92250  Biso   1.000  H
  H27      1.0000 0.41550  0.97960  0.07750  Biso   1.000  H
  H28      1.0000 0.58450  0.02040  0.07750  Biso   1.000  H
  H29      1.0000 0.47960  0.41550  0.82750  Biso   1.000  H
  H30      1.0000 0.52040  0.58450  0.82750  Biso   1.000  H
  H31      1.0000 0.08450  0.97960  0.67250  Biso   1.000  H
  H32      1.0000 0.91550  0.02040  0.67250  Biso   1.000  H
  H33      1.0000 0.52760  0.82750  0.60410  Biso   1.000  H
  H34      1.0000 0.47240  0.17250  0.60410  Biso   1.000  H
  H35      1.0000 0.82750  0.47240  0.39590  Biso   1.000  H
  H36      1.0000 0.17250  0.52760  0.39590  Biso   1.000  H
  H37      1.0000 0.97240  0.82750  0.14590  Biso   1.000  H
  H38      1.0000 0.02760  0.17250  0.14590  Biso   1.000  H
  H39      1.0000 0.67250  0.47240  0.35410  Biso   1.000  H
  H40      1.0000 0.32750  0.52760  0.35410  Biso   1.000  H
  H41      1.0000 0.02760  0.32750  0.10410  Biso   1.000  H
  H42      1.0000 0.97240  0.67250  0.10410  Biso   1.000  H
  H43      1.0000 0.32750  0.97240  0.89590  Biso   1.000  H
  H44      1.0000 0.67250  0.02760  0.89590  Biso   1.000  H
  H45      1.0000 0.47240  0.32750  0.64590  Biso   1.000  H
  H46      1.0000 0.52760  0.67250  0.64590  Biso   1.000  H
  H47      1.0000 0.17250  0.97240  0.85410  Biso   1.000  H
  H48      1.0000 0.82750  0.02760  0.85410  Biso   1.000  H
  N1       1.0000 0.36599  0.78093  0.22730  Biso   1.000  N
  N2       1.0000 0.63401  0.21907  0.22730  Biso   1.000  N
  N3       1.0000 0.78093  0.63401  0.77270  Biso   1.000  N
  N4       1.0000 0.21907  0.36599  0.77270  Biso   1.000  N
  N5       1.0000 0.13401  0.78093  0.52270  Biso   1.000  N
  N6       1.0000 0.86599  0.21907  0.52270  Biso   1.000  N
  N7       1.0000 0.71907  0.63401  0.97730  Biso   1.000  N
  N8       1.0000 0.28093  0.36599  0.97730  Biso   1.000  N
  N9       1.0000 0.86599  0.28093  0.72730  Biso   1.000  N
  N10      1.0000 0.13401  0.71907  0.72730  Biso   1.000  N
  N11      1.0000 0.28093  0.13401  0.27270  Biso   1.000  N
  N12      1.0000 0.71907  0.86599  0.27270  Biso   1.000  N
  N13      1.0000 0.63401  0.28093  0.02270  Biso   1.000  N
  N14      1.0000 0.36599  0.71907  0.02270  Biso   1.000  N
  N15      1.0000 0.21907  0.13401  0.47730  Biso   1.000  N
  N16      1.0000 0.78093  0.86599  0.47730  Biso   1.000  N
  N17      1.0000 0.51715  0.75000  0.12500  Biso   1.000  N
  N18      1.0000 0.48285  0.25000  0.12500  Biso   1.000  N
  N19      1.0000 0.75000  0.48285  0.87500  Biso   1.000  N
  N20      1.0000 0.25000  0.51715  0.87500  Biso   1.000  N
  N21      1.0000 0.98285  0.75000  0.62500  Biso   1.000  N
  N22      1.0000 0.01715  0.25000  0.62500  Biso   1.000  N
  N23      1.0000 0.25000  0.98285  0.37500  Biso   1.000  N
  N24      1.0000 0.75000  0.01715  0.37500  Biso   1.000  N
  Cu1      1.0000 0.25000  0.83515  0.37500  Biso   1.000  Cu
  Cu2      1.0000 0.75000  0.16485  0.37500  Biso   1.000  Cu
  Cu3      1.0000 0.83515  0.75000  0.62500  Biso   1.000  Cu
  Cu4      1.0000 0.16485  0.25000  0.62500  Biso   1.000  Cu
  Cu5      1.0000 0.66485  0.75000  0.12500  Biso   1.000  Cu
  Cu6      1.0000 0.33515  0.25000  0.12500  Biso   1.000  Cu
  Cu7      1.0000 0.75000  0.33515  0.87500  Biso   1.000  Cu
  Cu8      1.0000 0.25000  0.66485  0.87500  Biso   1.000  Cu
