data_image0
_cell_length_a       4.3025
_cell_length_b       9.705
_cell_length_c       10.594
_cell_angle_alpha    88.464
_cell_angle_beta     84.857
_cell_angle_gamma    80.103

_symmetry_space_group_name_H-M    "P 1"
_symmetry_int_tables_number       1

loop_
  _symmetry_equiv_pos_as_xyz
  'x, y, z'

loop_
  _atom_site_label
  _atom_site_occupancy
  _atom_site_fract_x
  _atom_site_fract_y
  _atom_site_fract_z
  _atom_site_thermal_displace_type
  _atom_site_B_iso_or_equiv
  _atom_site_type_symbol
  I1       1.0000 0.34272  0.34730  0.11553  Biso   1.000  I
  I2       1.0000 0.65728  0.65270  0.88447  Biso   1.000  I
  Cu1      1.0000 0.15760  0.60360  0.03280  Biso   1.000  Cu
  Cu2      1.0000 0.84240  0.39640  0.96720  Biso   1.000  Cu
  N1       1.0000 0.99300  0.76800  0.15100  Biso   1.000  N
  N2       1.0000 0.00700  0.23200  0.84900  Biso   1.000  N
  C1       1.0000 0.75800  0.76100  0.24400  Biso   1.000  C
  C2       1.0000 0.24200  0.23900  0.75600  Biso   1.000  C
  C3       1.0000 0.59800  0.88400  0.31200  Biso   1.000  C
  C4       1.0000 0.40200  0.11600  0.68800  Biso   1.000  C
  C5       1.0000 0.07600  0.88900  0.12300  Biso   1.000  C
  C6       1.0000 0.92400  0.11100  0.87700  Biso   1.000  C
  H1       1.0000 0.24840  0.89110  0.06420  Biso   1.000  H
  H2       1.0000 0.75160  0.10890  0.93580  Biso   1.000  H
  C7       1.0000 0.66700  0.63000  0.28000  Biso   1.000  C
  C8       1.0000 0.33300  0.37000  0.72000  Biso   1.000  C
  H3       1.0000 0.76400  0.54980  0.23590  Biso   1.000  H
  H4       1.0000 0.23600  0.45020  0.76410  Biso   1.000  H
  C9       1.0000 0.36800  0.85700  0.41800  Biso   1.000  C
  C10      1.0000 0.63200  0.14300  0.58200  Biso   1.000  C
  H5       1.0000 0.26780  0.93390  0.46560  Biso   1.000  H
  H6       1.0000 0.73220  0.06610  0.53440  Biso   1.000  H
  C11      1.0000 0.91900  0.02000  0.17900  Biso   1.000  C
  C12      1.0000 0.08100  0.98000  0.82100  Biso   1.000  C
  H7       1.0000 0.97200  0.10520  0.15150  Biso   1.000  H
  H8       1.0000 0.02800  0.89480  0.84850  Biso   1.000  H
  C13      1.0000 0.29200  0.73600  0.45000  Biso   1.000  C
  C14      1.0000 0.70800  0.26400  0.55000  Biso   1.000  C
  C15      1.0000 0.44300  0.61900  0.37600  Biso   1.000  C
  C16      1.0000 0.55700  0.38100  0.62400  Biso   1.000  C
  H9       1.0000 0.38430  0.53210  0.39380  Biso   1.000  H
  H10      1.0000 0.61570  0.46790  0.60620  Biso   1.000  H
  C17      1.0000 0.68000  0.00900  0.27600  Biso   1.000  C
  C18      1.0000 0.32000  0.99100  0.72400  Biso   1.000  C
  H11      1.0000 0.57560  0.08900  0.31750  Biso   1.000  H
  H12      1.0000 0.42440  0.91100  0.68250  Biso   1.000  H
  C19      1.0000 0.06000  0.71800  0.56000  Biso   1.000  C
  C20      1.0000 0.94000  0.28200  0.44000  Biso   1.000  C
  H13      1.0000 0.17080  0.67780  0.63020  Biso   1.000  H
  H14      1.0000 0.82920  0.32220  0.36980  Biso   1.000  H
  H15      1.0000 0.92130  0.65680  0.53650  Biso   1.000  H
  H16      1.0000 0.07870  0.34320  0.46350  Biso   1.000  H
  H17      1.0000 0.93760  0.80720  0.58290  Biso   1.000  H
  H18      1.0000 0.06240  0.19280  0.41710  Biso   1.000  H
