data_image0
_cell_length_a       4.3086
_cell_length_b       9.7205
_cell_length_c       10.6226
_cell_angle_alpha    88.411
_cell_angle_beta     84.745
_cell_angle_gamma    80.039

_symmetry_space_group_name_H-M    "P 1"
_symmetry_int_tables_number       1

loop_
  _symmetry_equiv_pos_as_xyz
  'x, y, z'

loop_
  _atom_site_label
  _atom_site_occupancy
  _atom_site_fract_x
  _atom_site_fract_y
  _atom_site_fract_z
  _atom_site_thermal_displace_type
  _atom_site_B_iso_or_equiv
  _atom_site_type_symbol
  I1       1.0000 0.34216  0.34727  0.11529  Biso   1.000  I
  I2       1.0000 0.65784  0.65273  0.88471  Biso   1.000  I
  Cu1      1.0000 0.15720  0.60330  0.03330  Biso   1.000  Cu
  Cu2      1.0000 0.84280  0.39670  0.96670  Biso   1.000  Cu
  N1       1.0000 0.99250  0.76480  0.15260  Biso   1.000  N
  N2       1.0000 0.00750  0.23520  0.84740  Biso   1.000  N
  C1       1.0000 0.75430  0.75700  0.24710  Biso   1.000  C
  C2       1.0000 0.24570  0.24300  0.75290  Biso   1.000  C
  C3       1.0000 0.59830  0.88000  0.31520  Biso   1.000  C
  C4       1.0000 0.40170  0.12000  0.68480  Biso   1.000  C
  C5       1.0000 0.07600  0.88500  0.12550  Biso   1.000  C
  C6       1.0000 0.92400  0.11500  0.87450  Biso   1.000  C
  H1       1.0000 0.24640  0.88680  0.06560  Biso   1.000  H
  H2       1.0000 0.75360  0.11320  0.93440  Biso   1.000  H
  C7       1.0000 0.66710  0.63000  0.27950  Biso   1.000  C
  C8       1.0000 0.33290  0.37000  0.72050  Biso   1.000  C
  H3       1.0000 0.76310  0.55160  0.23410  Biso   1.000  H
  H4       1.0000 0.23690  0.44840  0.76590  Biso   1.000  H
  C9       1.0000 0.36930  0.85600  0.41900  Biso   1.000  C
  C10      1.0000 0.63070  0.14400  0.58100  Biso   1.000  C
  H5       1.0000 0.27420  0.93200  0.46880  Biso   1.000  H
  H6       1.0000 0.72580  0.06800  0.53120  Biso   1.000  H
  C11      1.0000 0.92500  0.01500  0.18080  Biso   1.000  C
  C12      1.0000 0.07500  0.98500  0.81920  Biso   1.000  C
  H7       1.0000 0.98240  0.09960  0.15430  Biso   1.000  H
  H8       1.0000 0.01760  0.90040  0.84570  Biso   1.000  H
  C13      1.0000 0.29220  0.73900  0.44560  Biso   1.000  C
  C14      1.0000 0.70780  0.26100  0.55440  Biso   1.000  C
  C15      1.0000 0.44210  0.61700  0.37720  Biso   1.000  C
  C16      1.0000 0.55790  0.38300  0.62280  Biso   1.000  C
  H9       1.0000 0.38790  0.53040  0.39860  Biso   1.000  H
  H10      1.0000 0.61210  0.46960  0.60140  Biso   1.000  H
  C17      1.0000 0.68300  0.00600  0.27800  Biso   1.000  C
  C18      1.0000 0.31700  0.99400  0.72200  Biso   1.000  C
  H11      1.0000 0.57920  0.08720  0.31790  Biso   1.000  H
  H12      1.0000 0.42080  0.91280  0.68210  Biso   1.000  H
  C19      1.0000 0.06400  0.71700  0.56100  Biso   1.000  C
  C20      1.0000 0.93600  0.28300  0.43900  Biso   1.000  C
  H13      1.0000 0.18190  0.67330  0.62810  Biso   1.000  H
  H14      1.0000 0.81810  0.32670  0.37190  Biso   1.000  H
  H15      1.0000 0.92110  0.65780  0.53840  Biso   1.000  H
  H16      1.0000 0.07890  0.34220  0.46160  Biso   1.000  H
  H17      1.0000 0.94510  0.80530  0.58870  Biso   1.000  H
  H18      1.0000 0.05490  0.19470  0.41130  Biso   1.000  H
