data_image0
_cell_length_a       4.1436
_cell_length_b       9.432
_cell_length_c       10.0405
_cell_angle_alpha    89.342
_cell_angle_beta     87.41
_cell_angle_gamma    80.047

_symmetry_space_group_name_H-M    "P 1"
_symmetry_int_tables_number       1

loop_
  _symmetry_equiv_pos_as_xyz
  'x, y, z'

loop_
  _atom_site_label
  _atom_site_occupancy
  _atom_site_fract_x
  _atom_site_fract_y
  _atom_site_fract_z
  _atom_site_thermal_displace_type
  _atom_site_B_iso_or_equiv
  _atom_site_type_symbol
  I1       1.0000 0.34597  0.34025  0.12256  Biso   1.000  I
  I2       1.0000 0.65403  0.65975  0.87744  Biso   1.000  I
  Cu1      1.0000 0.18480  0.59680  0.03320  Biso   1.000  Cu
  Cu2      1.0000 0.81520  0.40320  0.96680  Biso   1.000  Cu
  N1       1.0000 0.01000  0.76500  0.15250  Biso   1.000  N
  N2       1.0000 0.99000  0.23500  0.84750  Biso   1.000  N
  C1       1.0000 0.76800  0.75700  0.24700  Biso   1.000  C
  C2       1.0000 0.23200  0.24300  0.75300  Biso   1.000  C
  C3       1.0000 0.60100  0.88400  0.31600  Biso   1.000  C
  C4       1.0000 0.39900  0.11600  0.68400  Biso   1.000  C
  C5       1.0000 0.08800  0.89300  0.12300  Biso   1.000  C
  C6       1.0000 0.91200  0.10700  0.87700  Biso   1.000  C
  H1       1.0000 0.25950  0.89740  0.06050  Biso   1.000  H
  H2       1.0000 0.74050  0.10260  0.93950  Biso   1.000  H
  C7       1.0000 0.68200  0.62400  0.27900  Biso   1.000  C
  C8       1.0000 0.31800  0.37600  0.72100  Biso   1.000  C
  H3       1.0000 0.78520  0.54230  0.23380  Biso   1.000  H
  H4       1.0000 0.21480  0.45770  0.76620  Biso   1.000  H
  C9       1.0000 0.36300  0.86400  0.41700  Biso   1.000  C
  C10      1.0000 0.63700  0.13600  0.58300  Biso   1.000  C
  H5       1.0000 0.24940  0.94430  0.46170  Biso   1.000  H
  H6       1.0000 0.75060  0.05570  0.53830  Biso   1.000  H
  C11      1.0000 0.92300  0.02400  0.18200  Biso   1.000  C
  C12      1.0000 0.07700  0.97600  0.81800  Biso   1.000  C
  H7       1.0000 0.97870  0.11200  0.15610  Biso   1.000  H
  H8       1.0000 0.02130  0.88800  0.84390  Biso   1.000  H
  C13      1.0000 0.29400  0.73600  0.45000  Biso   1.000  C
  C14      1.0000 0.70600  0.26400  0.55000  Biso   1.000  C
  C15      1.0000 0.44900  0.61300  0.37500  Biso   1.000  C
  C16      1.0000 0.55100  0.38700  0.62500  Biso   1.000  C
  H9       1.0000 0.38950  0.52430  0.39340  Biso   1.000  H
  H10      1.0000 0.61050  0.47570  0.60660  Biso   1.000  H
  C17      1.0000 0.68100  0.01600  0.27700  Biso   1.000  C
  C18      1.0000 0.31900  0.98400  0.72300  Biso   1.000  C
  H11      1.0000 0.56800  0.10030  0.31530  Biso   1.000  H
  H12      1.0000 0.43200  0.89970  0.68470  Biso   1.000  H
  C19      1.0000 0.06000  0.71400  0.56700  Biso   1.000  C
  C20      1.0000 0.94000  0.28600  0.43300  Biso   1.000  C
  H13      1.0000 0.18370  0.68520  0.64470  Biso   1.000  H
  H14      1.0000 0.81630  0.31480  0.35530  Biso   1.000  H
  H15      1.0000 0.93700  0.64020  0.54600  Biso   1.000  H
  H16      1.0000 0.06300  0.35980  0.45400  Biso   1.000  H
  H17      1.0000 0.91170  0.80220  0.58550  Biso   1.000  H
  H18      1.0000 0.08830  0.19780  0.41450  Biso   1.000  H
