data_image0
_cell_length_a       4.2027
_cell_length_b       9.5344
_cell_length_c       10.2292
_cell_angle_alpha    88.945
_cell_angle_beta     86.478
_cell_angle_gamma    80.055

_symmetry_space_group_name_H-M    "P 1"
_symmetry_int_tables_number       1

loop_
  _symmetry_equiv_pos_as_xyz
  'x, y, z'

loop_
  _atom_site_label
  _atom_site_occupancy
  _atom_site_fract_x
  _atom_site_fract_y
  _atom_site_fract_z
  _atom_site_thermal_displace_type
  _atom_site_B_iso_or_equiv
  _atom_site_type_symbol
  I1       1.0000 0.34620  0.34330  0.12023  Biso   1.000  I
  I2       1.0000 0.65380  0.65670  0.87977  Biso   1.000  I
  Cu1      1.0000 0.17260  0.60070  0.03210  Biso   1.000  Cu
  Cu2      1.0000 0.82740  0.39930  0.96790  Biso   1.000  Cu
  N1       1.0000 0.00500  0.76200  0.15600  Biso   1.000  N
  N2       1.0000 0.99500  0.23800  0.84400  Biso   1.000  N
  C1       1.0000 0.76800  0.75600  0.24800  Biso   1.000  C
  C2       1.0000 0.23200  0.24400  0.75200  Biso   1.000  C
  C3       1.0000 0.59700  0.87800  0.32100  Biso   1.000  C
  C4       1.0000 0.40300  0.12200  0.67900  Biso   1.000  C
  C5       1.0000 0.08400  0.89200  0.12300  Biso   1.000  C
  C6       1.0000 0.91600  0.10800  0.87700  Biso   1.000  C
  H1       1.0000 0.24730  0.89760  0.05870  Biso   1.000  H
  H2       1.0000 0.75270  0.10240  0.94130  Biso   1.000  H
  C7       1.0000 0.67600  0.62000  0.28600  Biso   1.000  C
  C8       1.0000 0.32400  0.38000  0.71400  Biso   1.000  C
  H3       1.0000 0.78230  0.53620  0.24630  Biso   1.000  H
  H4       1.0000 0.21770  0.46380  0.75370  Biso   1.000  H
  C9       1.0000 0.36700  0.86700  0.41300  Biso   1.000  C
  C10      1.0000 0.63300  0.13300  0.58700  Biso   1.000  C
  H5       1.0000 0.25150  0.94890  0.45180  Biso   1.000  H
  H6       1.0000 0.74850  0.05110  0.54820  Biso   1.000  H
  C11      1.0000 0.92400  0.01600  0.18400  Biso   1.000  C
  C12      1.0000 0.07600  0.98400  0.81600  Biso   1.000  C
  H7       1.0000 0.98580  0.10290  0.16080  Biso   1.000  H
  H8       1.0000 0.01420  0.89710  0.83920  Biso   1.000  H
  C13      1.0000 0.29100  0.73300  0.45400  Biso   1.000  C
  C14      1.0000 0.70900  0.26700  0.54600  Biso   1.000  C
  C15      1.0000 0.44400  0.61500  0.37700  Biso   1.000  C
  C16      1.0000 0.55600  0.38500  0.62300  Biso   1.000  C
  H9       1.0000 0.37430  0.52820  0.39250  Biso   1.000  H
  H10      1.0000 0.62570  0.47180  0.60750  Biso   1.000  H
  C17      1.0000 0.68400  0.01300  0.27500  Biso   1.000  C
  C18      1.0000 0.31600  0.98700  0.72500  Biso   1.000  C
  H11      1.0000 0.57030  0.09780  0.31010  Biso   1.000  H
  H12      1.0000 0.42970  0.90220  0.68990  Biso   1.000  H
  C19      1.0000 0.07100  0.71900  0.56100  Biso   1.000  C
  C20      1.0000 0.92900  0.28100  0.43900  Biso   1.000  C
  H13      1.0000 0.18310  0.70890  0.64030  Biso   1.000  H
  H14      1.0000 0.81690  0.29110  0.35970  Biso   1.000  H
  H15      1.0000 0.97360  0.63650  0.54900  Biso   1.000  H
  H16      1.0000 0.02640  0.36350  0.45100  Biso   1.000  H
  H17      1.0000 0.90510  0.80230  0.56610  Biso   1.000  H
  H18      1.0000 0.09490  0.19770  0.43390  Biso   1.000  H
