data_image0
_cell_length_a       4.1523
_cell_length_b       9.453
_cell_length_c       10.086
_cell_angle_alpha    89.285
_cell_angle_beta     87.14
_cell_angle_gamma    80.077

_symmetry_space_group_name_H-M    "P 1"
_symmetry_int_tables_number       1

loop_
  _symmetry_equiv_pos_as_xyz
  'x, y, z'

loop_
  _atom_site_label
  _atom_site_occupancy
  _atom_site_fract_x
  _atom_site_fract_y
  _atom_site_fract_z
  _atom_site_thermal_displace_type
  _atom_site_B_iso_or_equiv
  _atom_site_type_symbol
  I1       1.0000 0.34617  0.34086  0.12221  Biso   1.000  I
  I2       1.0000 0.65383  0.65914  0.87779  Biso   1.000  I
  Cu1      1.0000 0.18220  0.59760  0.03290  Biso   1.000  Cu
  Cu2      1.0000 0.81780  0.40240  0.96710  Biso   1.000  Cu
  N1       1.0000 0.00920  0.76500  0.15260  Biso   1.000  N
  N2       1.0000 0.99080  0.23500  0.84740  Biso   1.000  N
  C1       1.0000 0.76600  0.75600  0.25100  Biso   1.000  C
  C2       1.0000 0.23400  0.24400  0.74900  Biso   1.000  C
  C3       1.0000 0.60000  0.88400  0.31600  Biso   1.000  C
  C4       1.0000 0.40000  0.11600  0.68400  Biso   1.000  C
  C5       1.0000 0.08700  0.89300  0.12400  Biso   1.000  C
  C6       1.0000 0.91300  0.10700  0.87600  Biso   1.000  C
  H1       1.0000 0.26100  0.89610  0.06290  Biso   1.000  H
  H2       1.0000 0.73900  0.10390  0.93710  Biso   1.000  H
  C7       1.0000 0.67800  0.62100  0.28300  Biso   1.000  C
  C8       1.0000 0.32200  0.37900  0.71700  Biso   1.000  C
  H3       1.0000 0.78050  0.53920  0.23780  Biso   1.000  H
  H4       1.0000 0.21950  0.46080  0.76220  Biso   1.000  H
  C9       1.0000 0.36500  0.86500  0.41800  Biso   1.000  C
  C10      1.0000 0.63500  0.13500  0.58200  Biso   1.000  C
  H5       1.0000 0.25850  0.94450  0.46500  Biso   1.000  H
  H6       1.0000 0.74150  0.05550  0.53500  Biso   1.000  H
  C11      1.0000 0.92300  0.02600  0.17900  Biso   1.000  C
  C12      1.0000 0.07700  0.97400  0.82100  Biso   1.000  C
  H7       1.0000 0.97350  0.11400  0.15220  Biso   1.000  H
  H8       1.0000 0.02650  0.88600  0.84780  Biso   1.000  H
  C13      1.0000 0.29100  0.73900  0.44800  Biso   1.000  C
  C14      1.0000 0.70900  0.26100  0.55200  Biso   1.000  C
  C15      1.0000 0.45000  0.61300  0.37700  Biso   1.000  C
  C16      1.0000 0.55000  0.38700  0.62300  Biso   1.000  C
  H9       1.0000 0.39070  0.52440  0.39720  Biso   1.000  H
  H10      1.0000 0.60930  0.47560  0.60280  Biso   1.000  H
  C17      1.0000 0.67900  0.01200  0.27900  Biso   1.000  C
  C18      1.0000 0.32100  0.98800  0.72100  Biso   1.000  C
  H11      1.0000 0.56740  0.09450  0.32090  Biso   1.000  H
  H12      1.0000 0.43260  0.90550  0.67910  Biso   1.000  H
  C19      1.0000 0.06600  0.71200  0.56800  Biso   1.000  C
  C20      1.0000 0.93400  0.28800  0.43200  Biso   1.000  C
  H13      1.0000 0.19050  0.69780  0.64590  Biso   1.000  H
  H14      1.0000 0.80950  0.30220  0.35410  Biso   1.000  H
  H15      1.0000 0.97280  0.62750  0.55220  Biso   1.000  H
  H16      1.0000 0.02720  0.37250  0.44780  Biso   1.000  H
  H17      1.0000 0.89350  0.79300  0.57990  Biso   1.000  H
  H18      1.0000 0.10650  0.20700  0.42010  Biso   1.000  H
