data_image0
_cell_length_a       13.47
_cell_length_b       13.47
_cell_length_c       6.142
_cell_angle_alpha    90
_cell_angle_beta     90
_cell_angle_gamma    90

_symmetry_space_group_name_H-M    "P 1"
_symmetry_int_tables_number       1

loop_
  _symmetry_equiv_pos_as_xyz
  'x, y, z'

loop_
  _atom_site_label
  _atom_site_occupancy
  _atom_site_fract_x
  _atom_site_fract_y
  _atom_site_fract_z
  _atom_site_thermal_displace_type
  _atom_site_B_iso_or_equiv
  _atom_site_type_symbol
  Cu1      1.0000 0.60058  0.47445  0.17132  Biso   1.000  Cu
  Cu2      1.0000 0.52555  0.10058  0.67132  Biso   1.000  Cu
  Cu3      1.0000 0.97445  0.39942  0.67132  Biso   1.000  Cu
  Cu4      1.0000 0.89942  0.02555  0.17132  Biso   1.000  Cu
  Cu5      1.0000 0.39942  0.52555  0.82868  Biso   1.000  Cu
  Cu6      1.0000 0.47445  0.89942  0.32868  Biso   1.000  Cu
  Cu7      1.0000 0.02555  0.60058  0.32868  Biso   1.000  Cu
  Cu8      1.0000 0.10058  0.97445  0.82868  Biso   1.000  Cu
  N1       1.0000 0.73504  0.48678  0.29750  Biso   1.000  N
  N2       1.0000 0.51322  0.23504  0.79750  Biso   1.000  N
  N3       1.0000 0.98678  0.26496  0.79750  Biso   1.000  N
  N4       1.0000 0.76496  0.01322  0.29750  Biso   1.000  N
  N5       1.0000 0.26496  0.51322  0.70250  Biso   1.000  N
  N6       1.0000 0.48678  0.76496  0.20250  Biso   1.000  N
  N7       1.0000 0.01322  0.73504  0.20250  Biso   1.000  N
  N8       1.0000 0.23504  0.98678  0.70250  Biso   1.000  N
  N9       1.0000 0.86935  0.46553  0.50390  Biso   1.000  N
  N10      1.0000 0.53447  0.36935  0.00390  Biso   1.000  N
  N11      1.0000 0.96553  0.13065  0.00390  Biso   1.000  N
  N12      1.0000 0.63065  0.03447  0.50390  Biso   1.000  N
  N13      1.0000 0.13065  0.53447  0.49610  Biso   1.000  N
  N14      1.0000 0.46553  0.63065  0.99610  Biso   1.000  N
  N15      1.0000 0.03447  0.86935  0.99610  Biso   1.000  N
  N16      1.0000 0.36935  0.96553  0.49610  Biso   1.000  N
  N17      1.0000 0.89447  0.52839  0.33280  Biso   1.000  N
  N18      1.0000 0.47161  0.39447  0.83280  Biso   1.000  N
  N19      1.0000 0.02839  0.10553  0.83280  Biso   1.000  N
  N20      1.0000 0.60553  0.97161  0.33280  Biso   1.000  N
  N21      1.0000 0.10553  0.47161  0.66720  Biso   1.000  N
  N22      1.0000 0.52839  0.60553  0.16720  Biso   1.000  N
  N23      1.0000 0.97161  0.89447  0.16720  Biso   1.000  N
  N24      1.0000 0.39447  0.02839  0.66720  Biso   1.000  N
  C1       1.0000 0.77407  0.44388  0.47710  Biso   1.000  C
  C2       1.0000 0.55612  0.27407  0.97710  Biso   1.000  C
  C3       1.0000 0.94388  0.22593  0.97710  Biso   1.000  C
  C4       1.0000 0.72593  0.05612  0.47710  Biso   1.000  C
  C5       1.0000 0.22593  0.55612  0.52290  Biso   1.000  C
  C6       1.0000 0.44388  0.72593  0.02290  Biso   1.000  C
  C7       1.0000 0.05612  0.77407  0.02290  Biso   1.000  C
  C8       1.0000 0.27407  0.94388  0.52290  Biso   1.000  C
  C9       1.0000 0.81247  0.53918  0.21450  Biso   1.000  C
  C10      1.0000 0.46082  0.31247  0.71450  Biso   1.000  C
  C11      1.0000 0.03918  0.18753  0.71450  Biso   1.000  C
  C12      1.0000 0.68753  0.96082  0.21450  Biso   1.000  C
  C13      1.0000 0.18753  0.46082  0.78550  Biso   1.000  C
  C14      1.0000 0.53918  0.68753  0.28550  Biso   1.000  C
  C15      1.0000 0.96082  0.81247  0.28550  Biso   1.000  C
  C16      1.0000 0.31247  0.03918  0.78550  Biso   1.000  C
  C17      1.0000 0.71562  0.38337  0.63260  Biso   1.000  C
  C18      1.0000 0.61663  0.21562  0.13260  Biso   1.000  C
  C19      1.0000 0.88337  0.28438  0.13260  Biso   1.000  C
  C20      1.0000 0.78438  0.11663  0.63260  Biso   1.000  C
  C21      1.0000 0.28438  0.61663  0.36740  Biso   1.000  C
  C22      1.0000 0.38337  0.78438  0.86740  Biso   1.000  C
  C23      1.0000 0.11663  0.71562  0.86740  Biso   1.000  C
  C24      1.0000 0.21562  0.88337  0.36740  Biso   1.000  C
  H1       1.0000 0.75820  0.36030  0.74730  Biso   1.000  H
  H2       1.0000 0.63970  0.25820  0.24730  Biso   1.000  H
  H3       1.0000 0.86030  0.24180  0.24730  Biso   1.000  H
  H4       1.0000 0.74180  0.13970  0.74730  Biso   1.000  H
  H5       1.0000 0.24180  0.63970  0.25270  Biso   1.000  H
  H6       1.0000 0.36030  0.74180  0.75270  Biso   1.000  H
  H7       1.0000 0.13970  0.75820  0.75270  Biso   1.000  H
  H8       1.0000 0.25820  0.86030  0.25270  Biso   1.000  H
  H9       1.0000 0.68750  0.32750  0.55790  Biso   1.000  H
  H10      1.0000 0.67250  0.18750  0.05790  Biso   1.000  H
  H11      1.0000 0.82750  0.31250  0.05790  Biso   1.000  H
  H12      1.0000 0.81250  0.17250  0.55790  Biso   1.000  H
  H13      1.0000 0.31250  0.67250  0.44210  Biso   1.000  H
  H14      1.0000 0.32750  0.81250  0.94210  Biso   1.000  H
  H15      1.0000 0.17250  0.68750  0.94210  Biso   1.000  H
  H16      1.0000 0.18750  0.82750  0.44210  Biso   1.000  H
  H17      1.0000 0.66330  0.42310  0.69330  Biso   1.000  H
  H18      1.0000 0.57690  0.16330  0.19330  Biso   1.000  H
  H19      1.0000 0.92310  0.33670  0.19330  Biso   1.000  H
  H20      1.0000 0.83670  0.07690  0.69330  Biso   1.000  H
  H21      1.0000 0.33670  0.57690  0.30670  Biso   1.000  H
  H22      1.0000 0.42310  0.83670  0.80670  Biso   1.000  H
  H23      1.0000 0.07690  0.66330  0.80670  Biso   1.000  H
  H24      1.0000 0.16330  0.92310  0.30670  Biso   1.000  H
  C25      1.0000 0.80632  0.60099  0.01370  Biso   1.000  C
  C26      1.0000 0.39901  0.30632  0.51370  Biso   1.000  C
  C27      1.0000 0.10099  0.19368  0.51370  Biso   1.000  C
  C28      1.0000 0.69368  0.89901  0.01370  Biso   1.000  C
  C29      1.0000 0.19368  0.39901  0.98630  Biso   1.000  C
  C30      1.0000 0.60099  0.69368  0.48630  Biso   1.000  C
  C31      1.0000 0.89901  0.80632  0.48630  Biso   1.000  C
  C32      1.0000 0.30632  0.10099  0.98630  Biso   1.000  C
  H25      1.0000 0.86970  0.63110  0.98600  Biso   1.000  H
  H26      1.0000 0.36890  0.36970  0.48600  Biso   1.000  H
  H27      1.0000 0.13110  0.13030  0.48600  Biso   1.000  H
  H28      1.0000 0.63030  0.86890  0.98600  Biso   1.000  H
  H29      1.0000 0.13030  0.36890  0.01400  Biso   1.000  H
  H30      1.0000 0.63110  0.63030  0.51400  Biso   1.000  H
  H31      1.0000 0.86890  0.86970  0.51400  Biso   1.000  H
  H32      1.0000 0.36970  0.13110  0.01400  Biso   1.000  H
  H33      1.0000 0.75720  0.65180  0.03320  Biso   1.000  H
  H34      1.0000 0.34820  0.25720  0.53320  Biso   1.000  H
  H35      1.0000 0.15180  0.24280  0.53320  Biso   1.000  H
  H36      1.0000 0.74280  0.84820  0.03320  Biso   1.000  H
  H37      1.0000 0.24280  0.34820  0.96680  Biso   1.000  H
  H38      1.0000 0.65180  0.74280  0.46680  Biso   1.000  H
  H39      1.0000 0.84820  0.75720  0.46680  Biso   1.000  H
  H40      1.0000 0.25720  0.15180  0.96680  Biso   1.000  H
  H41      1.0000 0.78820  0.55980  0.89250  Biso   1.000  H
  H42      1.0000 0.44020  0.28820  0.39250  Biso   1.000  H
  H43      1.0000 0.05980  0.21180  0.39250  Biso   1.000  H
  H44      1.0000 0.71180  0.94020  0.89250  Biso   1.000  H
  H45      1.0000 0.21180  0.44020  0.10750  Biso   1.000  H
  H46      1.0000 0.55980  0.71180  0.60750  Biso   1.000  H
  H47      1.0000 0.94020  0.78820  0.60750  Biso   1.000  H
  H48      1.0000 0.28820  0.05980  0.10750  Biso   1.000  H
