data_image0
_cell_length_a       4.2128
_cell_length_b       9.5476
_cell_length_c       10.2634
_cell_angle_alpha    88.839
_cell_angle_beta     86.36
_cell_angle_gamma    80.045

_symmetry_space_group_name_H-M    "P 1"
_symmetry_int_tables_number       1

loop_
  _symmetry_equiv_pos_as_xyz
  'x, y, z'

loop_
  _atom_site_label
  _atom_site_occupancy
  _atom_site_fract_x
  _atom_site_fract_y
  _atom_site_fract_z
  _atom_site_thermal_displace_type
  _atom_site_B_iso_or_equiv
  _atom_site_type_symbol
  I1       1.0000 0.34590  0.34370  0.12008  Biso   1.000  I
  I2       1.0000 0.65410  0.65630  0.87992  Biso   1.000  I
  Cu1      1.0000 0.17130  0.60170  0.03140  Biso   1.000  Cu
  Cu2      1.0000 0.82870  0.39830  0.96860  Biso   1.000  Cu
  N1       1.0000 0.00700  0.76300  0.15500  Biso   1.000  N
  N2       1.0000 0.99300  0.23700  0.84500  Biso   1.000  N
  C1       1.0000 0.76600  0.75500  0.25000  Biso   1.000  C
  C2       1.0000 0.23400  0.24500  0.75000  Biso   1.000  C
  C3       1.0000 0.59500  0.88300  0.31800  Biso   1.000  C
  C4       1.0000 0.40500  0.11700  0.68200  Biso   1.000  C
  C5       1.0000 0.08000  0.89200  0.12400  Biso   1.000  C
  C6       1.0000 0.92000  0.10800  0.87600  Biso   1.000  C
  H1       1.0000 0.23980  0.89940  0.05920  Biso   1.000  H
  H2       1.0000 0.76020  0.10060  0.94080  Biso   1.000  H
  C7       1.0000 0.67300  0.62000  0.28600  Biso   1.000  C
  C8       1.0000 0.32700  0.38000  0.71400  Biso   1.000  C
  H3       1.0000 0.77480  0.53790  0.24320  Biso   1.000  H
  H4       1.0000 0.22520  0.46210  0.75680  Biso   1.000  H
  C9       1.0000 0.36500  0.87000  0.41100  Biso   1.000  C
  C10      1.0000 0.63500  0.13000  0.58900  Biso   1.000  C
  H5       1.0000 0.24720  0.95200  0.44930  Biso   1.000  H
  H6       1.0000 0.75280  0.04800  0.55070  Biso   1.000  H
  C11      1.0000 0.92400  0.01300  0.18700  Biso   1.000  C
  C12      1.0000 0.07600  0.98700  0.81300  Biso   1.000  C
  H7       1.0000 0.99230  0.09830  0.16530  Biso   1.000  H
  H8       1.0000 0.00770  0.90170  0.83470  Biso   1.000  H
  C13      1.0000 0.29600  0.73300  0.45300  Biso   1.000  C
  C14      1.0000 0.70400  0.26700  0.54700  Biso   1.000  C
  C15      1.0000 0.44500  0.61300  0.37800  Biso   1.000  C
  C16      1.0000 0.55500  0.38700  0.62200  Biso   1.000  C
  H9       1.0000 0.37840  0.52650  0.39510  Biso   1.000  H
  H10      1.0000 0.62160  0.47350  0.60490  Biso   1.000  H
  C17      1.0000 0.68700  0.01300  0.27400  Biso   1.000  C
  C18      1.0000 0.31300  0.98700  0.72600  Biso   1.000  C
  H11      1.0000 0.57690  0.09910  0.30810  Biso   1.000  H
  H12      1.0000 0.42310  0.90090  0.69190  Biso   1.000  H
  C19      1.0000 0.06400  0.71700  0.56200  Biso   1.000  C
  C20      1.0000 0.93600  0.28300  0.43800  Biso   1.000  C
  H13      1.0000 0.17840  0.68860  0.63860  Biso   1.000  H
  H14      1.0000 0.82160  0.31140  0.36140  Biso   1.000  H
  H15      1.0000 0.93930  0.64670  0.54120  Biso   1.000  H
  H16      1.0000 0.06070  0.35330  0.45880  Biso   1.000  H
  H17      1.0000 0.92360  0.80660  0.57730  Biso   1.000  H
  H18      1.0000 0.07640  0.19340  0.42270  Biso   1.000  H
