data_image0
_cell_length_a       4.3661
_cell_length_b       9.84
_cell_length_c       10.923
_cell_angle_alpha    88.206
_cell_angle_beta     83.346
_cell_angle_gamma    80.104

_symmetry_space_group_name_H-M    "P 1"
_symmetry_int_tables_number       1

loop_
  _symmetry_equiv_pos_as_xyz
  'x, y, z'

loop_
  _atom_site_label
  _atom_site_occupancy
  _atom_site_fract_x
  _atom_site_fract_y
  _atom_site_fract_z
  _atom_site_thermal_displace_type
  _atom_site_B_iso_or_equiv
  _atom_site_type_symbol
  I1       1.0000 0.33700  0.34950  0.11108  Biso   1.000  I
  I2       1.0000 0.66300  0.65050  0.88892  Biso   1.000  I
  Cu1      1.0000 0.15010  0.60410  0.03370  Biso   1.000  Cu
  Cu2      1.0000 0.84990  0.39590  0.96630  Biso   1.000  Cu
  N1       1.0000 0.98900  0.76500  0.15200  Biso   1.000  N
  N2       1.0000 0.01100  0.23500  0.84800  Biso   1.000  N
  C1       1.0000 0.75100  0.75600  0.24700  Biso   1.000  C
  C2       1.0000 0.24900  0.24400  0.75300  Biso   1.000  C
  C3       1.0000 0.59700  0.87500  0.31500  Biso   1.000  C
  C4       1.0000 0.40300  0.12500  0.68500  Biso   1.000  C
  C5       1.0000 0.06700  0.88500  0.12400  Biso   1.000  C
  C6       1.0000 0.93300  0.11500  0.87600  Biso   1.000  C
  H1       1.0000 0.22920  0.89010  0.06190  Biso   1.000  H
  H2       1.0000 0.77080  0.10990  0.93810  Biso   1.000  H
  C7       1.0000 0.66000  0.62900  0.28100  Biso   1.000  C
  C8       1.0000 0.34000  0.37100  0.71900  Biso   1.000  C
  H3       1.0000 0.75360  0.55070  0.23650  Biso   1.000  H
  H4       1.0000 0.24640  0.44930  0.76350  Biso   1.000  H
  C9       1.0000 0.37200  0.85900  0.41300  Biso   1.000  C
  C10      1.0000 0.62800  0.14100  0.58700  Biso   1.000  C
  H5       1.0000 0.26970  0.93720  0.45520  Biso   1.000  H
  H6       1.0000 0.73030  0.06280  0.54480  Biso   1.000  H
  C11      1.0000 0.91800  0.00800  0.18400  Biso   1.000  C
  C12      1.0000 0.08200  0.99200  0.81600  Biso   1.000  C
  H7       1.0000 0.98280  0.09140  0.16100  Biso   1.000  H
  H8       1.0000 0.01720  0.90860  0.83900  Biso   1.000  H
  C13      1.0000 0.29100  0.73400  0.45100  Biso   1.000  C
  C14      1.0000 0.70900  0.26600  0.54900  Biso   1.000  C
  C15      1.0000 0.44100  0.61900  0.37500  Biso   1.000  C
  C16      1.0000 0.55900  0.38100  0.62500  Biso   1.000  C
  H9       1.0000 0.38170  0.53380  0.39170  Biso   1.000  H
  H10      1.0000 0.61830  0.46620  0.60830  Biso   1.000  H
  C17      1.0000 0.68500  0.00400  0.27400  Biso   1.000  C
  C18      1.0000 0.31500  0.99600  0.72600  Biso   1.000  C
  H11      1.0000 0.57840  0.08600  0.30970  Biso   1.000  H
  H12      1.0000 0.42160  0.91400  0.69030  Biso   1.000  H
  C19      1.0000 0.06300  0.72100  0.55200  Biso   1.000  C
  C20      1.0000 0.93700  0.27900  0.44800  Biso   1.000  C
  H13      1.0000 0.16510  0.68480  0.62210  Biso   1.000  H
  H14      1.0000 0.83490  0.31520  0.37790  Biso   1.000  H
  H15      1.0000 0.92800  0.66060  0.53090  Biso   1.000  H
  H16      1.0000 0.07200  0.33940  0.46910  Biso   1.000  H
  H17      1.0000 0.94210  0.81060  0.57130  Biso   1.000  H
  H18      1.0000 0.05790  0.18940  0.42870  Biso   1.000  H
