data_image0
_cell_length_a       4.2509
_cell_length_b       9.6194
_cell_length_c       10.3932
_cell_angle_alpha    88.661
_cell_angle_beta     85.739
_cell_angle_gamma    80.044

_symmetry_space_group_name_H-M    "P 1"
_symmetry_int_tables_number       1

loop_
  _symmetry_equiv_pos_as_xyz
  'x, y, z'

loop_
  _atom_site_label
  _atom_site_occupancy
  _atom_site_fract_x
  _atom_site_fract_y
  _atom_site_fract_z
  _atom_site_thermal_displace_type
  _atom_site_B_iso_or_equiv
  _atom_site_type_symbol
  I1       1.0000 0.34519  0.34508  0.11833  Biso   1.000  I
  I2       1.0000 0.65481  0.65492  0.88167  Biso   1.000  I
  Cu1      1.0000 0.16520  0.60180  0.03300  Biso   1.000  Cu
  Cu2      1.0000 0.83480  0.39820  0.96700  Biso   1.000  Cu
  N1       1.0000 0.99750  0.76680  0.15250  Biso   1.000  N
  N2       1.0000 0.00250  0.23320  0.84750  Biso   1.000  N
  C1       1.0000 0.76100  0.75600  0.24840  Biso   1.000  C
  C2       1.0000 0.23900  0.24400  0.75160  Biso   1.000  C
  C3       1.0000 0.59930  0.88100  0.31520  Biso   1.000  C
  C4       1.0000 0.40070  0.11900  0.68480  Biso   1.000  C
  C5       1.0000 0.07820  0.89100  0.12350  Biso   1.000  C
  C6       1.0000 0.92180  0.10900  0.87650  Biso   1.000  C
  H1       1.0000 0.24690  0.89480  0.06190  Biso   1.000  H
  H2       1.0000 0.75310  0.10520  0.93810  Biso   1.000  H
  C7       1.0000 0.67180  0.62900  0.27780  Biso   1.000  C
  C8       1.0000 0.32820  0.37100  0.72220  Biso   1.000  C
  H3       1.0000 0.76700  0.54990  0.23080  Biso   1.000  H
  H4       1.0000 0.23300  0.45010  0.76920  Biso   1.000  H
  C9       1.0000 0.36710  0.86300  0.41590  Biso   1.000  C
  C10      1.0000 0.63290  0.13700  0.58410  Biso   1.000  C
  H5       1.0000 0.26530  0.94200  0.46220  Biso   1.000  H
  H6       1.0000 0.73470  0.05800  0.53780  Biso   1.000  H
  C11      1.0000 0.92300  0.01800  0.18070  Biso   1.000  C
  C12      1.0000 0.07700  0.98200  0.81930  Biso   1.000  C
  H7       1.0000 0.98410  0.10350  0.15550  Biso   1.000  H
  H8       1.0000 0.01590  0.89650  0.84450  Biso   1.000  H
  C13      1.0000 0.29010  0.74100  0.44650  Biso   1.000  C
  C14      1.0000 0.70990  0.25900  0.55350  Biso   1.000  C
  C15      1.0000 0.44170  0.61600  0.37650  Biso   1.000  C
  C16      1.0000 0.55830  0.38400  0.62350  Biso   1.000  C
  H9       1.0000 0.38560  0.52900  0.39750  Biso   1.000  H
  H10      1.0000 0.61440  0.47100  0.60250  Biso   1.000  H
  C17      1.0000 0.68000  0.01400  0.27450  Biso   1.000  C
  C18      1.0000 0.32000  0.98600  0.72550  Biso   1.000  C
  H11      1.0000 0.56810  0.09700  0.31110  Biso   1.000  H
  H12      1.0000 0.43190  0.90300  0.68890  Biso   1.000  H
  C19      1.0000 0.06200  0.71600  0.56310  Biso   1.000  C
  C20      1.0000 0.93800  0.28400  0.43690  Biso   1.000  C
  H13      1.0000 0.18360  0.66960  0.63070  Biso   1.000  H
  H14      1.0000 0.81640  0.33040  0.36930  Biso   1.000  H
  H15      1.0000 0.91440  0.65850  0.53820  Biso   1.000  H
  H16      1.0000 0.08560  0.34150  0.46180  Biso   1.000  H
  H17      1.0000 0.94580  0.80540  0.59340  Biso   1.000  H
  H18      1.0000 0.05420  0.19460  0.40660  Biso   1.000  H
