data_image0
_cell_length_a       4.2816
_cell_length_b       9.6687
_cell_length_c       10.5131
_cell_angle_alpha    88.493
_cell_angle_beta     85.206
_cell_angle_gamma    80.047

_symmetry_space_group_name_H-M    "P 1"
_symmetry_int_tables_number       1

loop_
  _symmetry_equiv_pos_as_xyz
  'x, y, z'

loop_
  _atom_site_label
  _atom_site_occupancy
  _atom_site_fract_x
  _atom_site_fract_y
  _atom_site_fract_z
  _atom_site_thermal_displace_type
  _atom_site_B_iso_or_equiv
  _atom_site_type_symbol
  I1       1.0000 0.34354  0.34652  0.11659  Biso   1.000  I
  I2       1.0000 0.65646  0.65348  0.88341  Biso   1.000  I
  Cu1      1.0000 0.16040  0.60300  0.03320  Biso   1.000  Cu
  Cu2      1.0000 0.83960  0.39700  0.96680  Biso   1.000  Cu
  N1       1.0000 0.99590  0.76510  0.15290  Biso   1.000  N
  N2       1.0000 0.00410  0.23490  0.84710  Biso   1.000  N
  C1       1.0000 0.75830  0.75730  0.24750  Biso   1.000  C
  C2       1.0000 0.24170  0.24270  0.75250  Biso   1.000  C
  C3       1.0000 0.59900  0.88390  0.31200  Biso   1.000  C
  C4       1.0000 0.40100  0.11610  0.68800  Biso   1.000  C
  C5       1.0000 0.07600  0.88910  0.12370  Biso   1.000  C
  C6       1.0000 0.92400  0.11090  0.87630  Biso   1.000  C
  H1       1.0000 0.24210  0.89340  0.06160  Biso   1.000  H
  H2       1.0000 0.75790  0.10660  0.93840  Biso   1.000  H
  C7       1.0000 0.66920  0.63040  0.27860  Biso   1.000  C
  C8       1.0000 0.33080  0.36960  0.72140  Biso   1.000  C
  H3       1.0000 0.76450  0.55160  0.23220  Biso   1.000  H
  H4       1.0000 0.23550  0.44840  0.76780  Biso   1.000  H
  C9       1.0000 0.36800  0.86330  0.41510  Biso   1.000  C
  C10      1.0000 0.63200  0.13670  0.58490  Biso   1.000  C
  H5       1.0000 0.26640  0.94110  0.46160  Biso   1.000  H
  H6       1.0000 0.73360  0.05890  0.53840  Biso   1.000  H
  C11      1.0000 0.92120  0.01560  0.18250  Biso   1.000  C
  C12      1.0000 0.07880  0.98440  0.81750  Biso   1.000  C
  H7       1.0000 0.97930  0.10120  0.15730  Biso   1.000  H
  H8       1.0000 0.02070  0.89880  0.84270  Biso   1.000  H
  C13      1.0000 0.29320  0.73960  0.44690  Biso   1.000  C
  C14      1.0000 0.70680  0.26040  0.55310  Biso   1.000  C
  C15      1.0000 0.44290  0.61640  0.37660  Biso   1.000  C
  C16      1.0000 0.55710  0.38360  0.62340  Biso   1.000  C
  H9       1.0000 0.38750  0.52920  0.39710  Biso   1.000  H
  H10      1.0000 0.61250  0.47080  0.60290  Biso   1.000  H
  C17      1.0000 0.68380  0.00900  0.27730  Biso   1.000  C
  C18      1.0000 0.31620  0.99100  0.72270  Biso   1.000  C
  H11      1.0000 0.58080  0.09060  0.31780  Biso   1.000  H
  H12      1.0000 0.41920  0.90940  0.68220  Biso   1.000  H
  C19      1.0000 0.06220  0.71300  0.56420  Biso   1.000  C
  C20      1.0000 0.93780  0.28700  0.43580  Biso   1.000  C
  H13      1.0000 0.18200  0.66430  0.63000  Biso   1.000  H
  H14      1.0000 0.81800  0.33570  0.37000  Biso   1.000  H
  H15      1.0000 0.91370  0.65710  0.53880  Biso   1.000  H
  H16      1.0000 0.08630  0.34290  0.46120  Biso   1.000  H
  H17      1.0000 0.94850  0.80130  0.59610  Biso   1.000  H
  H18      1.0000 0.05150  0.19870  0.40390  Biso   1.000  H
