data_image0
_cell_length_a       14.5859
_cell_length_b       14.6371
_cell_length_c       15.6526
_cell_angle_alpha    67.4428
_cell_angle_beta     69.0664
_cell_angle_gamma    64.1181

_symmetry_space_group_name_H-M    "P 1"
_symmetry_int_tables_number       1

loop_
  _symmetry_equiv_pos_as_xyz
  'x, y, z'

loop_
  _atom_site_label
  _atom_site_occupancy
  _atom_site_fract_x
  _atom_site_fract_y
  _atom_site_fract_z
  _atom_site_thermal_displace_type
  _atom_site_B_iso_or_equiv
  _atom_site_type_symbol
  Cu1      1.0000 0.47688  0.98223  0.09234  Biso   1.000  Cu
  Cu2      1.0000 0.52312  0.01777  0.90766  Biso   1.000  Cu
  Cu3      1.0000 0.56173  0.79882  0.18644  Biso   1.000  Cu
  Cu4      1.0000 0.43827  0.20118  0.81356  Biso   1.000  Cu
  Cu5      1.0000 0.43845  0.69282  0.30817  Biso   1.000  Cu
  Cu6      1.0000 0.56155  0.30718  0.69183  Biso   1.000  Cu
  Cu7      1.0000 0.47587  0.48584  0.59160  Biso   1.000  Cu
  Cu8      1.0000 0.52413  0.51416  0.40840  Biso   1.000  Cu
  I1       1.0000 0.38811  0.67466  0.50026  Biso   1.000  I
  I2       1.0000 0.61189  0.32534  0.49974  Biso   1.000  I
  I3       1.0000 0.40984  0.52975  0.30276  Biso   1.000  I
  I4       1.0000 0.59016  0.47025  0.69724  Biso   1.000  I
  I5       1.0000 0.58775  0.95679  0.20495  Biso   1.000  I
  I6       1.0000 0.41225  0.04321  0.79505  Biso   1.000  I
  I7       1.0000 0.61661  0.82811  0.99191  Biso   1.000  I
  I8       1.0000 0.38339  0.17189  0.00809  Biso   1.000  I
  I9       1.0000 0.65653  0.62293  0.29051  Biso   1.000  I
  I10      1.0000 0.34347  0.37707  0.70949  Biso   1.000  I
  I11      1.0000 0.34758  0.86691  0.19986  Biso   1.000  I
  I12      1.0000 0.65242  0.13309  0.80014  Biso   1.000  I
  K1       1.0000 0.87845  0.26627  0.02007  Biso   1.000  K
  K2       1.0000 0.12155  0.73373  0.97993  Biso   1.000  K
  C1       1.0000 0.10700  0.28110  0.82480  Biso   1.000  C
  C2       1.0000 0.89300  0.71890  0.17520  Biso   1.000  C
  C3       1.0000 0.04910  0.38850  0.84270  Biso   1.000  C
  C4       1.0000 0.95090  0.61150  0.15730  Biso   1.000  C
  C5       1.0000 0.08740  0.35860  0.98960  Biso   1.000  C
  C6       1.0000 0.91260  0.64140  0.01040  Biso   1.000  C
  C7       1.0000 0.04290  0.32620  0.09480  Biso   1.000  C
  C8       1.0000 0.95710  0.67380  0.90520  Biso   1.000  C
  C9       1.0000 0.10060  0.13790  0.13090  Biso   1.000  C
  C10      1.0000 0.89940  0.86210  0.86910  Biso   1.000  C
  C11      1.0000 0.06700  0.05460  0.12960  Biso   1.000  C
  C12      1.0000 0.93300  0.94540  0.87040  Biso   1.000  C
  C13      1.0000 0.12600  0.05830  0.96500  Biso   1.000  C
  C14      1.0000 0.87400  0.94170  0.03500  Biso   1.000  C
  C15      1.0000 0.08670  0.11280  0.87550  Biso   1.000  C
  C16      1.0000 0.91330  0.88720  0.12450  Biso   1.000  C
  O1       1.0000 0.00921  0.38374  0.94181  Biso   1.000  O
  O2       1.0000 0.99079  0.61626  0.05819  Biso   1.000  O
  O3       1.0000 0.01417  0.23531  0.12376  Biso   1.000  O
  O4       1.0000 0.98583  0.76469  0.87624  Biso   1.000  O
  O5       1.0000 0.03883  0.07813  0.04301  Biso   1.000  O
  O6       1.0000 0.96117  0.92187  0.95699  Biso   1.000  O
  O7       1.0000 0.03594  0.22495  0.86197  Biso   1.000  O
  O8       1.0000 0.96406  0.77505  0.13803  Biso   1.000  O
  C17      1.0000 0.72010  0.53160  0.96560  Biso   1.000  C
  C18      1.0000 0.27990  0.46840  0.03440  Biso   1.000  C
  C19      1.0000 0.68530  0.50970  0.07330  Biso   1.000  C
  C20      1.0000 0.31470  0.49030  0.92670  Biso   1.000  C
  C21      1.0000 0.72990  0.37050  0.21070  Biso   1.000  C
  C22      1.0000 0.27010  0.62950  0.78930  Biso   1.000  C
  C23      1.0000 0.66590  0.30470  0.22750  Biso   1.000  C
  C24      1.0000 0.33410  0.69530  0.77250  Biso   1.000  C
  C25      1.0000 0.67290  0.16940  0.17520  Biso   1.000  C
  C26      1.0000 0.32710  0.83060  0.82480  Biso   1.000  C
  C27      1.0000 0.62380  0.23090  0.09040  Biso   1.000  C
  C28      1.0000 0.37620  0.76910  0.90960  Biso   1.000  C
  C29      1.0000 0.66630  0.32730  0.92920  Biso   1.000  C
  C30      1.0000 0.33370  0.67270  0.07080  Biso   1.000  C
  C31      1.0000 0.64170  0.43720  0.93650  Biso   1.000  C
  C32      1.0000 0.35830  0.56280  0.06350  Biso   1.000  C
  O9       1.0000 0.76400  0.41800  0.11250  Biso   1.000  O
  O10      1.0000 0.23600  0.58200  0.88750  Biso   1.000  O
  O11      1.0000 0.73070  0.21937  0.18654  Biso   1.000  O
  O12      1.0000 0.26930  0.78063  0.81346  Biso   1.000  O
  O13      1.0000 0.70430  0.24662  0.00826  Biso   1.000  O
  O14      1.0000 0.29570  0.75338  0.99174  Biso   1.000  O
  O15      1.0000 0.73590  0.44568  0.93318  Biso   1.000  O
  O16      1.0000 0.26410  0.55432  0.06682  Biso   1.000  O
  K3       1.0000 0.11831  0.22973  0.48454  Biso   1.000  K
  K4       1.0000 0.88169  0.77027  0.51546  Biso   1.000  K
  C33      1.0000 0.35180  0.03760  0.56690  Biso   1.000  C
  C34      1.0000 0.64820  0.96240  0.43310  Biso   1.000  C
  C35      1.0000 0.29270  0.97540  0.56810  Biso   1.000  C
  C36      1.0000 0.70730  0.02460  0.43190  Biso   1.000  C
  C37      1.0000 0.31260  0.00220  0.40270  Biso   1.000  C
  C38      1.0000 0.68740  0.99780  0.59730  Biso   1.000  C
  C39      1.0000 0.26450  0.08230  0.32230  Biso   1.000  C
  C40      1.0000 0.73550  0.91770  0.67770  Biso   1.000  C
  C41      1.0000 0.33550  0.21730  0.27730  Biso   1.000  C
  C42      1.0000 0.66450  0.78270  0.72270  Biso   1.000  C
  C43      1.0000 0.31280  0.31650  0.30090  Biso   1.000  C
  C44      1.0000 0.68720  0.68350  0.69910  Biso   1.000  C
  C45      1.0000 0.37150  0.25440  0.44420  Biso   1.000  C
  C46      1.0000 0.62850  0.74560  0.55580  Biso   1.000  C
  C47      1.0000 0.33360  0.21390  0.54930  Biso   1.000  C
  C48      1.0000 0.66640  0.78610  0.45070  Biso   1.000  C
  O17      1.0000 0.24310  0.02166  0.48992  Biso   1.000  O
  O18      1.0000 0.75690  0.97834  0.51008  Biso   1.000  O
  O19      1.0000 0.24410  0.18831  0.31830  Biso   1.000  O
  O20      1.0000 0.75590  0.81169  0.68170  Biso   1.000  O
  O21      1.0000 0.28460  0.30373  0.40119  Biso   1.000  O
  O22      1.0000 0.71540  0.69627  0.59881  Biso   1.000  O
  O23      1.0000 0.28270  0.14026  0.57268  Biso   1.000  O
  O24      1.0000 0.71730  0.85974  0.42732  Biso   1.000  O
  C49      1.0000 0.91880  0.32610  0.66670  Biso   1.000  C
  C50      1.0000 0.08120  0.67390  0.33330  Biso   1.000  C
  C51      1.0000 0.88540  0.23810  0.67660  Biso   1.000  C
  C52      1.0000 0.11460  0.76190  0.32340  Biso   1.000  C
  C53      1.0000 0.94890  0.08770  0.61680  Biso   1.000  C
  C54      1.0000 0.05110  0.91230  0.38320  Biso   1.000  C
  C55      1.0000 0.90810  0.13410  0.52760  Biso   1.000  C
  C56      1.0000 0.09190  0.86590  0.47240  Biso   1.000  C
  C57      1.0000 0.95090  0.23430  0.36650  Biso   1.000  C
  C58      1.0000 0.04910  0.76570  0.63350  Biso   1.000  C
  C59      1.0000 0.89660  0.34660  0.37310  Biso   1.000  C
  C60      1.0000 0.10340  0.65340  0.62690  Biso   1.000  C
  C61      1.0000 0.92180  0.47260  0.41590  Biso   1.000  C
  C62      1.0000 0.07820  0.52740  0.58410  Biso   1.000  C
  C63      1.0000 0.87450  0.44970  0.52140  Biso   1.000  C
  C64      1.0000 0.12550  0.55030  0.47860  Biso   1.000  C
  O25      1.0000 0.97448  0.15975  0.63709  Biso   1.000  O
  O26      1.0000 0.02552  0.84025  0.36291  Biso   1.000  O
  O27      1.0000 0.98801  0.16256  0.44931  Biso   1.000  O
  O28      1.0000 0.01199  0.83744  0.55069  Biso   1.000  O
  O29      1.0000 0.96942  0.38011  0.38279  Biso   1.000  O
  O30      1.0000 0.03058  0.61989  0.61721  Biso   1.000  O
  O31      1.0000 0.95611  0.37664  0.56947  Biso   1.000  O
  O32      1.0000 0.04389  0.62336  0.43053  Biso   1.000  O
  H1       1.0000 0.16390  0.24320  0.85650  Biso   1.000  H
  H2       1.0000 0.83610  0.75680  0.14350  Biso   1.000  H
  H3       1.0000 0.13390  0.28780  0.75790  Biso   1.000  H
  H4       1.0000 0.86610  0.71220  0.24210  Biso   1.000  H
  H5       1.0000 0.99180  0.42330  0.81170  Biso   1.000  H
  H6       1.0000 0.00820  0.57670  0.18830  Biso   1.000  H
  H7       1.0000 0.09630  0.42720  0.81460  Biso   1.000  H
  H8       1.0000 0.90370  0.57280  0.18540  Biso   1.000  H
  H9       1.0000 0.14780  0.30140  0.97100  Biso   1.000  H
  H10      1.0000 0.85220  0.69860  0.02900  Biso   1.000  H
  H11      1.0000 0.10660  0.41940  0.97240  Biso   1.000  H
  H12      1.0000 0.89340  0.58060  0.02760  Biso   1.000  H
  H13      1.0000 0.98200  0.38450  0.11070  Biso   1.000  H
  H14      1.0000 0.01800  0.61550  0.88930  Biso   1.000  H
  H15      1.0000 0.09460  0.31200  0.12700  Biso   1.000  H
  H16      1.0000 0.90540  0.68800  0.87300  Biso   1.000  H
  H17      1.0000 0.15800  0.14650  0.07780  Biso   1.000  H
  H18      1.0000 0.84200  0.85350  0.92220  Biso   1.000  H
  H19      1.0000 0.12150  0.11890  0.18890  Biso   1.000  H
  H20      1.0000 0.87850  0.88110  0.81110  Biso   1.000  H
  H21      1.0000 0.00730  0.05080  0.18140  Biso   1.000  H
  H22      1.0000 0.99270  0.94920  0.81860  Biso   1.000  H
  H23      1.0000 0.12330  0.98810  0.13880  Biso   1.000  H
  H24      1.0000 0.87670  0.01190  0.86120  Biso   1.000  H
  H25      1.0000 0.17580  0.08580  0.96300  Biso   1.000  H
  H26      1.0000 0.82420  0.91420  0.03700  Biso   1.000  H
  H27      1.0000 0.15840  0.98370  0.97220  Biso   1.000  H
  H28      1.0000 0.84160  0.01630  0.02780  Biso   1.000  H
  H29      1.0000 0.03840  0.08300  0.87810  Biso   1.000  H
  H30      1.0000 0.96160  0.91700  0.12190  Biso   1.000  H
  H31      1.0000 0.14560  0.09980  0.82300  Biso   1.000  H
  H32      1.0000 0.85440  0.90020  0.17700  Biso   1.000  H
  H33      1.0000 0.78490  0.54380  0.94670  Biso   1.000  H
  H34      1.0000 0.21510  0.45620  0.05330  Biso   1.000  H
  H35      1.0000 0.66820  0.59390  0.93780  Biso   1.000  H
  H36      1.0000 0.33180  0.40610  0.06220  Biso   1.000  H
  H37      1.0000 0.62030  0.49710  0.09530  Biso   1.000  H
  H38      1.0000 0.37970  0.50290  0.90470  Biso   1.000  H
  H39      1.0000 0.67710  0.56760  0.09340  Biso   1.000  H
  H40      1.0000 0.32290  0.43240  0.90660  Biso   1.000  H
  H41      1.0000 0.79000  0.32480  0.23720  Biso   1.000  H
  H42      1.0000 0.21000  0.67520  0.76280  Biso   1.000  H
  H43      1.0000 0.68820  0.42460  0.24310  Biso   1.000  H
  H44      1.0000 0.31180  0.57540  0.75690  Biso   1.000  H
  H45      1.0000 0.60830  0.34720  0.19700  Biso   1.000  H
  H46      1.0000 0.39170  0.65280  0.80300  Biso   1.000  H
  H47      1.0000 0.63970  0.27800  0.29420  Biso   1.000  H
  H48      1.0000 0.36030  0.72200  0.70580  Biso   1.000  H
  H49      1.0000 0.71920  0.10140  0.16600  Biso   1.000  H
  H50      1.0000 0.28080  0.89860  0.83400  Biso   1.000  H
  H51      1.0000 0.61810  0.16100  0.23100  Biso   1.000  H
  H52      1.0000 0.38190  0.83900  0.76900  Biso   1.000  H
  H53      1.0000 0.57350  0.29790  0.09920  Biso   1.000  H
  H54      1.0000 0.42650  0.70210  0.90080  Biso   1.000  H
  H55      1.0000 0.58990  0.19230  0.08240  Biso   1.000  H
  H56      1.0000 0.41010  0.80770  0.91760  Biso   1.000  H
  H57      1.0000 0.71770  0.31770  0.87140  Biso   1.000  H
  H58      1.0000 0.28230  0.68230  0.12860  Biso   1.000  H
  H59      1.0000 0.60320  0.32300  0.92740  Biso   1.000  H
  H60      1.0000 0.39680  0.67700  0.07260  Biso   1.000  H
  H61      1.0000 0.59260  0.44710  0.99540  Biso   1.000  H
  H62      1.0000 0.40740  0.55290  0.00460  Biso   1.000  H
  H63      1.0000 0.61270  0.49030  0.88440  Biso   1.000  H
  H64      1.0000 0.38730  0.50970  0.11560  Biso   1.000  H
  H65      1.0000 0.40440  0.04240  0.50870  Biso   1.000  H
  H66      1.0000 0.59560  0.95760  0.49130  Biso   1.000  H
  H67      1.0000 0.38460  0.00360  0.61980  Biso   1.000  H
  H68      1.0000 0.61540  0.99640  0.38020  Biso   1.000  H
  H69      1.0000 0.24000  0.97310  0.62630  Biso   1.000  H
  H70      1.0000 0.76000  0.02690  0.37370  Biso   1.000  H
  H71      1.0000 0.34000  0.90500  0.56700  Biso   1.000  H
  H72      1.0000 0.66000  0.09500  0.43300  Biso   1.000  H
  H73      1.0000 0.37760  0.00830  0.39690  Biso   1.000  H
  H74      1.0000 0.62240  0.99170  0.60310  Biso   1.000  H
  H75      1.0000 0.32500  0.93230  0.40230  Biso   1.000  H
  H76      1.0000 0.67500  0.06770  0.59770  Biso   1.000  H
  H77      1.0000 0.19970  0.07430  0.33050  Biso   1.000  H
  H78      1.0000 0.80030  0.92570  0.66950  Biso   1.000  H
  H79      1.0000 0.31100  0.06740  0.26410  Biso   1.000  H
  H80      1.0000 0.68900  0.93260  0.73590  Biso   1.000  H
  H81      1.0000 0.39250  0.16150  0.30360  Biso   1.000  H
  H82      1.0000 0.60750  0.83850  0.69640  Biso   1.000  H
  H83      1.0000 0.35300  0.22830  0.20980  Biso   1.000  H
  H84      1.0000 0.64700  0.77170  0.79020  Biso   1.000  H
  H85      1.0000 0.25610  0.37080  0.27320  Biso   1.000  H
  H86      1.0000 0.74390  0.62920  0.72680  Biso   1.000  H
  H87      1.0000 0.37400  0.33630  0.27350  Biso   1.000  H
  H88      1.0000 0.62600  0.66370  0.72650  Biso   1.000  H
  H89      1.0000 0.42160  0.19690  0.41820  Biso   1.000  H
  H90      1.0000 0.57840  0.80310  0.58180  Biso   1.000  H
  H91      1.0000 0.40310  0.30500  0.43130  Biso   1.000  H
  H92      1.0000 0.59690  0.69500  0.56870  Biso   1.000  H
  H93      1.0000 0.28580  0.27330  0.57370  Biso   1.000  H
  H94      1.0000 0.71420  0.72670  0.42630  Biso   1.000  H
  H95      1.0000 0.39310  0.17990  0.57730  Biso   1.000  H
  H96      1.0000 0.60690  0.82010  0.42270  Biso   1.000  H
  H97      1.0000 0.97400  0.29640  0.69960  Biso   1.000  H
  H98      1.0000 0.02600  0.70360  0.30040  Biso   1.000  H
  H99      1.0000 0.86020  0.37700  0.69590  Biso   1.000  H
  H100     1.0000 0.13980  0.62300  0.30410  Biso   1.000  H
  H101     1.0000 0.83200  0.26480  0.64220  Biso   1.000  H
  H102     1.0000 0.16800  0.73520  0.35780  Biso   1.000  H
  H103     1.0000 0.85920  0.20690  0.74220  Biso   1.000  H
  H104     1.0000 0.14080  0.79310  0.25780  Biso   1.000  H
  H105     1.0000 0.01050  0.02700  0.60850  Biso   1.000  H
  H106     1.0000 0.98950  0.97300  0.39150  Biso   1.000  H
  H107     1.0000 0.89620  0.06620  0.66890  Biso   1.000  H
  H108     1.0000 0.10380  0.93380  0.33110  Biso   1.000  H
  H109     1.0000 0.84700  0.19600  0.53290  Biso   1.000  H
  H110     1.0000 0.15300  0.80400  0.46710  Biso   1.000  H
  H111     1.0000 0.89110  0.08360  0.51690  Biso   1.000  H
  H112     1.0000 0.10890  0.91640  0.48310  Biso   1.000  H
  H113     1.0000 0.00920  0.23340  0.31250  Biso   1.000  H
  H114     1.0000 0.99080  0.76660  0.68750  Biso   1.000  H
  H115     1.0000 0.90270  0.21310  0.35650  Biso   1.000  H
  H116     1.0000 0.09730  0.78690  0.64350  Biso   1.000  H
  H117     1.0000 0.83960  0.34970  0.42820  Biso   1.000  H
  H118     1.0000 0.16040  0.65030  0.57180  Biso   1.000  H
  H119     1.0000 0.87040  0.39240  0.31740  Biso   1.000  H
  H120     1.0000 0.12960  0.60760  0.68260  Biso   1.000  H
  H121     1.0000 0.97370  0.50260  0.40320  Biso   1.000  H
  H122     1.0000 0.02630  0.49740  0.59680  Biso   1.000  H
  H123     1.0000 0.86730  0.52300  0.38340  Biso   1.000  H
  H124     1.0000 0.13270  0.47700  0.61660  Biso   1.000  H
  H125     1.0000 0.82220  0.41930  0.53670  Biso   1.000  H
  H126     1.0000 0.17780  0.58070  0.46330  Biso   1.000  H
  H127     1.0000 0.84340  0.51330  0.54130  Biso   1.000  H
  H128     1.0000 0.15660  0.48670  0.45870  Biso   1.000  H
