data_image0
_cell_length_a       7.0462
_cell_length_b       9.8461
_cell_length_c       13.7673
_cell_angle_alpha    105.834
_cell_angle_beta     94.917
_cell_angle_gamma    108.076

_symmetry_space_group_name_H-M    "P 1"
_symmetry_int_tables_number       1

loop_
  _symmetry_equiv_pos_as_xyz
  'x, y, z'

loop_
  _atom_site_label
  _atom_site_occupancy
  _atom_site_fract_x
  _atom_site_fract_y
  _atom_site_fract_z
  _atom_site_thermal_displace_type
  _atom_site_B_iso_or_equiv
  _atom_site_type_symbol
  Sn1      1.0000 0.70730  0.82290  0.07240  Biso   1.000  Sn
  Sn2      1.0000 0.29270  0.17710  0.92760  Biso   1.000  Sn
  Cu1      1.0000 0.38320  0.50480  0.68260  Biso   1.000  Cu
  Cu2      1.0000 0.61680  0.49520  0.31740  Biso   1.000  Cu
  Cu3      1.0000 0.17240  0.99600  0.43630  Biso   1.000  Cu
  Cu4      1.0000 0.82760  0.00400  0.56370  Biso   1.000  Cu
  C1       1.0000 0.85930  0.66650  0.03920  Biso   1.000  C
  C2       1.0000 0.14070  0.33350  0.96080  Biso   1.000  C
  N1       1.0000 0.32480  0.29580  0.60510  Biso   1.000  N
  N2       1.0000 0.67520  0.70420  0.39490  Biso   1.000  N
  C3       1.0000 0.24950  0.58840  0.48310  Biso   1.000  C
  C4       1.0000 0.75050  0.41160  0.51690  Biso   1.000  C
  C5       1.0000 0.20370  0.68980  0.43550  Biso   1.000  C
  C6       1.0000 0.79630  0.31020  0.56450  Biso   1.000  C
  C7       1.0000 0.11670  0.63510  0.33000  Biso   1.000  C
  C8       1.0000 0.88330  0.36490  0.67000  Biso   1.000  C
  N3       1.0000 0.33700  0.63830  0.58570  Biso   1.000  N
  N4       1.0000 0.66300  0.36170  0.41430  Biso   1.000  N
  C9       1.0000 0.45580  0.77110  0.14610  Biso   1.000  C
  C10      1.0000 0.54420  0.22890  0.85390  Biso   1.000  C
  C11      1.0000 0.46250  0.63170  0.82170  Biso   1.000  C
  C12      1.0000 0.53750  0.36830  0.17830  Biso   1.000  C
  C13      1.0000 0.78590  0.03300  0.04380  Biso   1.000  C
  C14      1.0000 0.21410  0.96700  0.95620  Biso   1.000  C
  C15      1.0000 0.20810  0.43830  0.42430  Biso   1.000  C
  C16      1.0000 0.79190  0.56170  0.57570  Biso   1.000  C
  N5       1.0000 0.24730  0.83810  0.49030  Biso   1.000  N
  N6       1.0000 0.75270  0.16190  0.50970  Biso   1.000  N
  C17      1.0000 0.37840  0.78190  0.63500  Biso   1.000  C
  C18      1.0000 0.62160  0.21810  0.36500  Biso   1.000  C
  C19      1.0000 0.03450  0.96500  0.30340  Biso   1.000  C
  C20      1.0000 0.96550  0.03500  0.69660  Biso   1.000  C
  C21      1.0000 0.07490  0.49000  0.27520  Biso   1.000  C
  C22      1.0000 0.92510  0.51000  0.72480  Biso   1.000  C
  C23      1.0000 0.12250  0.38840  0.32140  Biso   1.000  C
  C24      1.0000 0.87750  0.61160  0.67860  Biso   1.000  C
  C25      1.0000 0.27870  0.17540  0.55070  Biso   1.000  C
  C26      1.0000 0.72130  0.82460  0.44930  Biso   1.000  C
  N7       1.0000 0.93380  0.94270  0.22870  Biso   1.000  N
  N8       1.0000 0.06620  0.05730  0.77130  Biso   1.000  N
  C27      1.0000 0.33690  0.88200  0.58710  Biso   1.000  C
  C28      1.0000 0.66310  0.11800  0.41290  Biso   1.000  C
  N9       1.0000 0.51280  0.70430  0.90610  Biso   1.000  N
  N10      1.0000 0.48720  0.29570  0.09390  Biso   1.000  N
  H1       1.0000 0.08689  0.70240  0.29711  Biso   1.000  H
  H2       1.0000 0.91311  0.29760  0.70289  Biso   1.000  H
  H3       1.0000 0.23995  0.37024  0.45569  Biso   1.000  H
  H4       1.0000 0.76005  0.62976  0.54431  Biso   1.000  H
  H5       1.0000 0.44118  0.82185  0.70639  Biso   1.000  H
  H6       1.0000 0.55882  0.17815  0.29361  Biso   1.000  H
  H7       1.0000 0.01372  0.45402  0.20373  Biso   1.000  H
  H8       1.0000 0.98628  0.54598  0.79627  Biso   1.000  H
  H9       1.0000 0.09401  0.28523  0.28185  Biso   1.000  H
  H10      1.0000 0.90599  0.71477  0.71815  Biso   1.000  H
  H11      1.0000 0.37703  0.98637  0.62679  Biso   1.000  H
  H12      1.0000 0.62297  0.01363  0.37321  Biso   1.000  H
  H13      1.0000 0.40050  0.85058  0.15764  Biso   1.000  H
  H14      1.0000 0.59950  0.14942  0.84236  Biso   1.000  H
  H15      1.0000 0.49860  0.76006  0.21075  Biso   1.000  H
  H16      1.0000 0.50140  0.23994  0.78925  Biso   1.000  H
  H17      1.0000 0.35384  0.67854  0.10331  Biso   1.000  H
  H18      1.0000 0.64616  0.32146  0.89669  Biso   1.000  H
  H19      1.0000 0.96983  0.70398  0.00621  Biso   1.000  H
  H20      1.0000 0.03017  0.29602  0.99379  Biso   1.000  H
  H21      1.0000 0.76652  0.57167  0.99391  Biso   1.000  H
  H22      1.0000 0.23348  0.42833  0.00609  Biso   1.000  H
  H23      1.0000 0.91129  0.65318  0.10134  Biso   1.000  H
  H24      1.0000 0.08871  0.34682  0.89866  Biso   1.000  H
  H25      1.0000 0.69167  0.08143  0.06725  Biso   1.000  H
  H26      1.0000 0.30833  0.91857  0.93275  Biso   1.000  H
  H27      1.0000 0.77940  0.01662  0.97136  Biso   1.000  H
  H28      1.0000 0.22060  0.98338  0.02864  Biso   1.000  H
  H29      1.0000 0.92106  0.09597  0.07975  Biso   1.000  H
  H30      1.0000 0.07894  0.90403  0.92025  Biso   1.000  H
