data_image0
_cell_length_a       15.0627
_cell_length_b       16.6949
_cell_length_c       18.0047
_cell_angle_alpha    115.295
_cell_angle_beta     101.985
_cell_angle_gamma    90.845

_symmetry_space_group_name_H-M    "P 1"
_symmetry_int_tables_number       1

loop_
  _symmetry_equiv_pos_as_xyz
  'x, y, z'

loop_
  _atom_site_label
  _atom_site_occupancy
  _atom_site_fract_x
  _atom_site_fract_y
  _atom_site_fract_z
  _atom_site_thermal_displace_type
  _atom_site_B_iso_or_equiv
  _atom_site_type_symbol
  Pr1      1.0000 0.97215  0.39936  0.54798  Biso   1.000  Pr
  Pr2      1.0000 0.02785  0.60064  0.45202  Biso   1.000  Pr
  Pr3      1.0000 0.75385  0.29472  0.62187  Biso   1.000  Pr
  Pr4      1.0000 0.24615  0.70528  0.37813  Biso   1.000  Pr
  Pr5      1.0000 0.50853  0.40333  0.54523  Biso   1.000  Pr
  Pr6      1.0000 0.49147  0.59667  0.45477  Biso   1.000  Pr
  Cu1      1.0000 0.56529  0.71115  0.09133  Biso   1.000  Cu
  Cu2      1.0000 0.43471  0.28885  0.90867  Biso   1.000  Cu
  Cu3      1.0000 0.73592  0.80293  0.17717  Biso   1.000  Cu
  Cu4      1.0000 0.26408  0.19707  0.82283  Biso   1.000  Cu
  Cu5      1.0000 0.78346  0.80634  0.01506  Biso   1.000  Cu
  Cu6      1.0000 0.21654  0.19366  0.98494  Biso   1.000  Cu
  Cu7      1.0000 0.92242  0.98779  0.92490  Biso   1.000  Cu
  Cu8      1.0000 0.07758  0.01221  0.07510  Biso   1.000  Cu
  Cu9      1.0000 0.79199  0.07753  0.00699  Biso   1.000  Cu
  Cu10     1.0000 0.20801  0.92247  0.99301  Biso   1.000  Cu
  Cu11     1.0000 0.66363  0.09711  0.87253  Biso   1.000  Cu
  Cu12     1.0000 0.33637  0.90289  0.12747  Biso   1.000  Cu
  Cu13     1.0000 0.57292  0.17764  0.99188  Biso   1.000  Cu
  Cu14     1.0000 0.42708  0.82236  0.00812  Biso   1.000  Cu
  I1       1.0000 0.65358  0.70710  0.22994  Biso   1.000  I
  I2       1.0000 0.34642  0.29290  0.77006  Biso   1.000  I
  I3       1.0000 0.62646  0.84935  0.06720  Biso   1.000  I
  I4       1.0000 0.37354  0.15065  0.93280  Biso   1.000  I
  I5       1.0000 0.87277  0.73753  0.10594  Biso   1.000  I
  I6       1.0000 0.12723  0.26247  0.89406  Biso   1.000  I
  I7       1.0000 0.89019  0.96234  0.05053  Biso   1.000  I
  I8       1.0000 0.10981  0.03766  0.94947  Biso   1.000  I
  I9       1.0000 0.84184  0.10740  0.88616  Biso   1.000  I
  I10      1.0000 0.15816  0.89260  0.11384  Biso   1.000  I
  I11      1.0000 0.61707  0.01985  0.96449  Biso   1.000  I
  I12      1.0000 0.38293  0.98015  0.03551  Biso   1.000  I
  I13      1.0000 0.61232  0.26367  0.91136  Biso   1.000  I
  I14      1.0000 0.38768  0.73633  0.08864  Biso   1.000  I
  O1       1.0000 0.89248  0.41432  0.42434  Biso   1.000  O
  O2       1.0000 0.10752  0.58568  0.57566  Biso   1.000  O
  O3       1.0000 0.89044  0.49782  0.35520  Biso   1.000  O
  O4       1.0000 0.10956  0.50218  0.64480  Biso   1.000  O
  O5       1.0000 0.92376  0.55074  0.61978  Biso   1.000  O
  O6       1.0000 0.07624  0.44926  0.38022  Biso   1.000  O
  O7       1.0000 0.92391  0.62585  0.54215  Biso   1.000  O
  O8       1.0000 0.07609  0.37415  0.45785  Biso   1.000  O
  O9       1.0000 0.91292  0.24180  0.45958  Biso   1.000  O
  O10      1.0000 0.08708  0.75820  0.54042  Biso   1.000  O
  O11      1.0000 0.86108  0.20454  0.54978  Biso   1.000  O
  O12      1.0000 0.13892  0.79546  0.45022  Biso   1.000  O
  O13      1.0000 0.95177  0.39518  0.67702  Biso   1.000  O
  O14      1.0000 0.04823  0.60482  0.32298  Biso   1.000  O
  O15      1.0000 0.83614  0.44181  0.73766  Biso   1.000  O
  O16      1.0000 0.16386  0.55819  0.26234  Biso   1.000  O
  O17      1.0000 0.67777  0.19800  0.46986  Biso   1.000  O
  O18      1.0000 0.32223  0.80200  0.53014  Biso   1.000  O
  O19      1.0000 0.55917  0.25636  0.51882  Biso   1.000  O
  O20      1.0000 0.44083  0.74364  0.48118  Biso   1.000  O
  O21      1.0000 0.66995  0.36378  0.73621  Biso   1.000  O
  O22      1.0000 0.33005  0.63622  0.26379  Biso   1.000  O
  O23      1.0000 0.55286  0.42205  0.68783  Biso   1.000  O
  O24      1.0000 0.44714  0.57795  0.31217  Biso   1.000  O
  O25      1.0000 0.57861  0.36362  0.42163  Biso   1.000  O
  O26      1.0000 0.42139  0.63638  0.57837  Biso   1.000  O
  O27      1.0000 0.60163  0.48819  0.40613  Biso   1.000  O
  O28      1.0000 0.39837  0.51181  0.59387  Biso   1.000  O
  O29      1.0000 0.57983  0.55282  0.58506  Biso   1.000  O
  O30      1.0000 0.42017  0.44718  0.41494  Biso   1.000  O
  O31      1.0000 0.61531  0.68128  0.58504  Biso   1.000  O
  O32      1.0000 0.38469  0.31872  0.41496  Biso   1.000  O
  O33      1.0000 0.08510  0.30410  0.58391  Biso   1.000  O
  O34      1.0000 0.91490  0.69590  0.41609  Biso   1.000  O
  O35      1.0000 0.86092  0.26162  0.72583  Biso   1.000  O
  O36      1.0000 0.13908  0.73838  0.27417  Biso   1.000  O
  O37      1.0000 0.66709  0.17382  0.62932  Biso   1.000  O
  O38      1.0000 0.33291  0.82618  0.37068  Biso   1.000  O
  O39      1.0000 0.39584  0.31218  0.56970  Biso   1.000  O
  O40      1.0000 0.60416  0.68782  0.43030  Biso   1.000  O
  O41      1.0000 0.80573  0.37910  0.54342  Biso   1.000  O
  O42      1.0000 0.19427  0.62090  0.45658  Biso   1.000  O
  O43      1.0000 0.68155  0.41438  0.58943  Biso   1.000  O
  O44      1.0000 0.31845  0.58562  0.41057  Biso   1.000  O
  N1       1.0000 0.81607  0.18912  0.11981  Biso   1.000  N
  N2       1.0000 0.18393  0.81088  0.88019  Biso   1.000  N
  N3       1.0000 0.91282  0.86810  0.82252  Biso   1.000  N
  N4       1.0000 0.08718  0.13190  0.17748  Biso   1.000  N
  N5       1.0000 0.79220  0.92148  0.28001  Biso   1.000  N
  N6       1.0000 0.20780  0.07852  0.71999  Biso   1.000  N
  N7       1.0000 0.11570  0.59590  0.97300  Biso   1.000  N
  N8       1.0000 0.88430  0.40410  0.02700  Biso   1.000  N
  N9       1.0000 0.41437  0.98948  0.24461  Biso   1.000  N
  N10      1.0000 0.58563  0.01052  0.75539  Biso   1.000  N
  N11      1.0000 0.57336  0.59206  0.99160  Biso   1.000  N
  N12      1.0000 0.42664  0.40794  0.00840  Biso   1.000  N
  N13      1.0000 0.59000  0.24750  0.11807  Biso   1.000  N
  N14      1.0000 0.41000  0.75250  0.88193  Biso   1.000  N
  N15      1.0000 0.74205  0.74907  0.88781  Biso   1.000  N
  N16      1.0000 0.25795  0.25093  0.11219  Biso   1.000  N
  N17      1.0000 0.05480  0.24040  0.66720  Biso   1.000  N
  N18      1.0000 0.94520  0.75960  0.33280  Biso   1.000  N
  H1       1.0000 0.99730  0.25110  0.66190  Biso   1.000  H
  H2       1.0000 0.00270  0.74890  0.33810  Biso   1.000  H
  H3       1.0000 0.07720  0.21310  0.69800  Biso   1.000  H
  H4       1.0000 0.92280  0.78690  0.30200  Biso   1.000  H
  N19      1.0000 0.81060  0.32160  0.84603  Biso   1.000  N
  N20      1.0000 0.18940  0.67840  0.15397  Biso   1.000  N
  H5       1.0000 0.76040  0.33560  0.82170  Biso   1.000  H
  H6       1.0000 0.23960  0.66440  0.17830  Biso   1.000  H
  H7       1.0000 0.82130  0.33410  0.90000  Biso   1.000  H
  H8       1.0000 0.17870  0.66590  0.10000  Biso   1.000  H
  N21      1.0000 0.52170  0.19730  0.64680  Biso   1.000  N
  N22      1.0000 0.47830  0.80270  0.35320  Biso   1.000  N
  H9       1.0000 0.51010  0.22120  0.61110  Biso   1.000  H
  H10      1.0000 0.48990  0.77880  0.38890  Biso   1.000  H
  H11      1.0000 0.47980  0.19200  0.67230  Biso   1.000  H
  H12      1.0000 0.52020  0.80800  0.32770  Biso   1.000  H
  N23      1.0000 0.26140  0.37050  0.56620  Biso   1.000  N
  N24      1.0000 0.73860  0.62950  0.43380  Biso   1.000  N
  H13      1.0000 0.28630  0.42200  0.57310  Biso   1.000  H
  H14      1.0000 0.71370  0.57800  0.42690  Biso   1.000  H
  H15      1.0000 0.20230  0.36180  0.56120  Biso   1.000  H
  H16      1.0000 0.79770  0.63820  0.43880  Biso   1.000  H
  C1       1.0000 0.81230  0.18450  0.19130  Biso   1.000  C
  C2       1.0000 0.18770  0.81550  0.80870  Biso   1.000  C
  H17      1.0000 0.79640  0.12780  0.18840  Biso   1.000  H
  H18      1.0000 0.20360  0.87220  0.81160  Biso   1.000  H
  C3       1.0000 0.83070  0.25860  0.27010  Biso   1.000  C
  C4       1.0000 0.16930  0.74140  0.72990  Biso   1.000  C
  H19      1.0000 0.82820  0.25230  0.31970  Biso   1.000  H
  H20      1.0000 0.17180  0.74770  0.68030  Biso   1.000  H
  C5       1.0000 0.85260  0.34140  0.27420  Biso   1.000  C
  C6       1.0000 0.14740  0.65860  0.72580  Biso   1.000  C
  C7       1.0000 0.85500  0.34660  0.20030  Biso   1.000  C
  C8       1.0000 0.14500  0.65340  0.79970  Biso   1.000  C
  H21      1.0000 0.86950  0.40260  0.20110  Biso   1.000  H
  H22      1.0000 0.13050  0.59740  0.79890  Biso   1.000  H
  C9       1.0000 0.83590  0.26950  0.12460  Biso   1.000  C
  C10      1.0000 0.16410  0.73050  0.87540  Biso   1.000  C
  H23      1.0000 0.83700  0.27420  0.07400  Biso   1.000  H
  H24      1.0000 0.16300  0.72580  0.92600  Biso   1.000  H
  C11      1.0000 0.87990  0.42440  0.35800  Biso   1.000  C
  C12      1.0000 0.12010  0.57560  0.64200  Biso   1.000  C
  C13      1.0000 0.92750  0.79330  0.83150  Biso   1.000  C
  C14      1.0000 0.07250  0.20670  0.16850  Biso   1.000  C
  H25      1.0000 0.93910  0.79670  0.88680  Biso   1.000  H
  H26      1.0000 0.06090  0.20330  0.11320  Biso   1.000  H
  C15      1.0000 0.92650  0.71150  0.76400  Biso   1.000  C
  C16      1.0000 0.07350  0.28850  0.23600  Biso   1.000  C
  H27      1.0000 0.93560  0.65970  0.77280  Biso   1.000  H
  H28      1.0000 0.06440  0.34030  0.22720  Biso   1.000  H
  C17      1.0000 0.91200  0.70630  0.68330  Biso   1.000  C
  C18      1.0000 0.08800  0.29370  0.31670  Biso   1.000  C
  C19      1.0000 0.89650  0.78290  0.67320  Biso   1.000  C
  C20      1.0000 0.10350  0.21710  0.32680  Biso   1.000  C
  H29      1.0000 0.88600  0.78170  0.61880  Biso   1.000  H
  H30      1.0000 0.11400  0.21830  0.38120  Biso   1.000  H
  C21      1.0000 0.89670  0.86130  0.74390  Biso   1.000  C
  C22      1.0000 0.10330  0.13870  0.25610  Biso   1.000  C
  H31      1.0000 0.88480  0.91340  0.73630  Biso   1.000  H
  H32      1.0000 0.11520  0.08660  0.26370  Biso   1.000  H
  C23      1.0000 0.91940  0.62030  0.60890  Biso   1.000  C
  C24      1.0000 0.08060  0.37970  0.39110  Biso   1.000  C
  C25      1.0000 0.84410  0.98090  0.27050  Biso   1.000  C
  C26      1.0000 0.15590  0.01910  0.72950  Biso   1.000  C
  H33      1.0000 0.86140  0.96330  0.21840  Biso   1.000  H
  H34      1.0000 0.13860  0.03670  0.78160  Biso   1.000  H
  C27      1.0000 0.87360  0.06660  0.33330  Biso   1.000  C
  C28      1.0000 0.12640  0.93340  0.66670  Biso   1.000  C
  H35      1.0000 0.90990  0.10690  0.32400  Biso   1.000  H
  H36      1.0000 0.09010  0.89310  0.67600  Biso   1.000  H
  C29      1.0000 0.84960  0.09300  0.40980  Biso   1.000  C
  C30      1.0000 0.15040  0.90700  0.59020  Biso   1.000  C
  C31      1.0000 0.79820  0.03130  0.42060  Biso   1.000  C
  C32      1.0000 0.20180  0.96870  0.57940  Biso   1.000  C
  H37      1.0000 0.78140  0.04680  0.47260  Biso   1.000  H
  H38      1.0000 0.21860  0.95320  0.52740  Biso   1.000  H
  C33      1.0000 0.77140  0.94680  0.35490  Biso   1.000  C
  C34      1.0000 0.22860  0.05320  0.64510  Biso   1.000  C
  H39      1.0000 0.73670  0.90480  0.36330  Biso   1.000  H
  H40      1.0000 0.26330  0.09520  0.63670  Biso   1.000  H
  C35      1.0000 0.87670  0.18730  0.47820  Biso   1.000  C
  C36      1.0000 0.12330  0.81270  0.52180  Biso   1.000  C
  C37      1.0000 0.13650  0.52350  0.91320  Biso   1.000  C
  C38      1.0000 0.86350  0.47650  0.08680  Biso   1.000  C
  H41      1.0000 0.19600  0.50640  0.92330  Biso   1.000  H
  H42      1.0000 0.80400  0.49360  0.07670  Biso   1.000  H
  C39      1.0000 0.07550  0.47140  0.83640  Biso   1.000  C
  C40      1.0000 0.92450  0.52860  0.16360  Biso   1.000  C
  H43      1.0000 0.09380  0.42100  0.79460  Biso   1.000  H
  H44      1.0000 0.90620  0.57900  0.20540  Biso   1.000  H
  C41      1.0000 0.98770  0.49410  0.82170  Biso   1.000  C
  C42      1.0000 0.01230  0.50590  0.17830  Biso   1.000  C
  C43      1.0000 0.96480  0.56930  0.88470  Biso   1.000  C
  C44      1.0000 0.03520  0.43070  0.11530  Biso   1.000  C
  H45      1.0000 0.90490  0.58630  0.87740  Biso   1.000  H
  H46      1.0000 0.09510  0.41370  0.12260  Biso   1.000  H
  C45      1.0000 0.03060  0.61870  0.95760  Biso   1.000  C
  C46      1.0000 0.96940  0.38130  0.04240  Biso   1.000  C
  H47      1.0000 0.01540  0.67150  0.99910  Biso   1.000  H
  H48      1.0000 0.98460  0.32850  0.00090  Biso   1.000  H
  C47      1.0000 0.91930  0.44150  0.73970  Biso   1.000  C
  C48      1.0000 0.08070  0.55850  0.26030  Biso   1.000  C
  C49      1.0000 0.50520  0.99790  0.25320  Biso   1.000  C
  C50      1.0000 0.49480  0.00210  0.74680  Biso   1.000  C
  H49      1.0000 0.52980  0.95580  0.20970  Biso   1.000  H
  H50      1.0000 0.47020  0.04420  0.79030  Biso   1.000  H
  C51      1.0000 0.56490  0.06490  0.32230  Biso   1.000  C
  C52      1.0000 0.43510  0.93510  0.67770  Biso   1.000  C
  H51      1.0000 0.62870  0.06860  0.32560  Biso   1.000  H
  H52      1.0000 0.37130  0.93140  0.67440  Biso   1.000  H
  C53      1.0000 0.53010  0.12650  0.38650  Biso   1.000  C
  C54      1.0000 0.46990  0.87350  0.61350  Biso   1.000  C
  C55      1.0000 0.43630  0.11830  0.37910  Biso   1.000  C
  C56      1.0000 0.56370  0.88170  0.62090  Biso   1.000  C
  H53      1.0000 0.41000  0.15910  0.42200  Biso   1.000  H
  H54      1.0000 0.59000  0.84090  0.57800  Biso   1.000  H
  C57      1.0000 0.38180  0.04890  0.30710  Biso   1.000  C
  C58      1.0000 0.61820  0.95110  0.69290  Biso   1.000  C
  H55      1.0000 0.31770  0.04360  0.30230  Biso   1.000  H
  H56      1.0000 0.68230  0.95640  0.69770  Biso   1.000  H
  C59      1.0000 0.59400  0.19910  0.46310  Biso   1.000  C
  C60      1.0000 0.40600  0.80090  0.53690  Biso   1.000  C
  C61      1.0000 0.65460  0.56440  0.98130  Biso   1.000  C
  C62      1.0000 0.34540  0.43560  0.01870  Biso   1.000  C
  H57      1.0000 0.70540  0.58840  0.02880  Biso   1.000  H
  H58      1.0000 0.29460  0.41160  0.97120  Biso   1.000  H
  C63      1.0000 0.66880  0.50260  0.90490  Biso   1.000  C
  C64      1.0000 0.33120  0.49740  0.09510  Biso   1.000  C
  H59      1.0000 0.72720  0.48290  0.90090  Biso   1.000  H
  H60      1.0000 0.27280  0.51710  0.09910  Biso   1.000  H
  C65      1.0000 0.59550  0.47000  0.83410  Biso   1.000  C
  C66      1.0000 0.40450  0.53000  0.16590  Biso   1.000  C
  C67      1.0000 0.51060  0.49490  0.84570  Biso   1.000  C
  C68      1.0000 0.48940  0.50510  0.15430  Biso   1.000  C
  H61      1.0000 0.45850  0.47190  0.79950  Biso   1.000  H
  H62      1.0000 0.54150  0.52810  0.20050  Biso   1.000  H
  C69      1.0000 0.50210  0.55420  0.92570  Biso   1.000  C
  C70      1.0000 0.49790  0.44580  0.07430  Biso   1.000  C
  H63      1.0000 0.44290  0.56820  0.93360  Biso   1.000  H
  H64      1.0000 0.55710  0.43180  0.06640  Biso   1.000  H
  C71      1.0000 0.60720  0.41370  0.74620  Biso   1.000  C
  C72      1.0000 0.39280  0.58630  0.25380  Biso   1.000  C
  C73      1.0000 0.55960  0.21160  0.16290  Biso   1.000  C
  C74      1.0000 0.44040  0.78840  0.83710  Biso   1.000  C
  H65      1.0000 0.53480  0.15060  0.13500  Biso   1.000  H
  H66      1.0000 0.46520  0.84940  0.86500  Biso   1.000  H
  C75      1.0000 0.56220  0.25900  0.24800  Biso   1.000  C
  C76      1.0000 0.43780  0.74100  0.75200  Biso   1.000  C
  H67      1.0000 0.54100  0.23040  0.27770  Biso   1.000  H
  H68      1.0000 0.45900  0.76960  0.72230  Biso   1.000  H
  C77      1.0000 0.59600  0.34840  0.28920  Biso   1.000  C
  C78      1.0000 0.40400  0.65160  0.71080  Biso   1.000  C
  C79      1.0000 0.63110  0.38550  0.24430  Biso   1.000  C
  C80      1.0000 0.36890  0.61450  0.75570  Biso   1.000  C
  H69      1.0000 0.65710  0.44600  0.27100  Biso   1.000  H
  H70      1.0000 0.34290  0.55400  0.72900  Biso   1.000  H
  C81      1.0000 0.62760  0.33270  0.15970  Biso   1.000  C
  C82      1.0000 0.37240  0.66730  0.84030  Biso   1.000  C
  H71      1.0000 0.65320  0.35820  0.12960  Biso   1.000  H
  H72      1.0000 0.34680  0.64180  0.87040  Biso   1.000  H
  C83      1.0000 0.59280  0.40420  0.37980  Biso   1.000  C
  C84      1.0000 0.40720  0.59580  0.62020  Biso   1.000  C
  C85      1.0000 0.73150  0.66040  0.84120  Biso   1.000  C
  C86      1.0000 0.26850  0.33960  0.15880  Biso   1.000  C
  H73      1.0000 0.75150  0.62400  0.86860  Biso   1.000  H
  H74      1.0000 0.24850  0.37600  0.13140  Biso   1.000  H
  C87      1.0000 0.69290  0.61920  0.75480  Biso   1.000  C
  C88      1.0000 0.30710  0.38080  0.24520  Biso   1.000  C
  H75      1.0000 0.68580  0.55600  0.72410  Biso   1.000  H
  H76      1.0000 0.31420  0.44400  0.27590  Biso   1.000  H
  C89      1.0000 0.66520  0.67170  0.71419  Biso   1.000  C
  C90      1.0000 0.33480  0.32830  0.28581  Biso   1.000  C
  C91      1.0000 0.67870  0.76380  0.76180  Biso   1.000  C
  C92      1.0000 0.32130  0.23620  0.23820  Biso   1.000  C
  H77      1.0000 0.66230  0.80190  0.73550  Biso   1.000  H
  H78      1.0000 0.33770  0.19810  0.26450  Biso   1.000  H
  C93      1.0000 0.71620  0.79920  0.84750  Biso   1.000  C
  C94      1.0000 0.28380  0.20080  0.15250  Biso   1.000  C
  H79      1.0000 0.72410  0.86220  0.87950  Biso   1.000  H
  H80      1.0000 0.27590  0.13780  0.12050  Biso   1.000  H
  C95      1.0000 0.61810  0.63270  0.62185  Biso   1.000  C
  C96      1.0000 0.38190  0.36730  0.37815  Biso   1.000  C
  C97      1.0000 0.74130  0.42620  0.55430  Biso   1.000  C
  C98      1.0000 0.25870  0.57380  0.44570  Biso   1.000  C
  H81      1.0000 0.73900  0.47000  0.53900  Biso   1.000  H
  H82      1.0000 0.26100  0.53000  0.46100  Biso   1.000  H
  C99      1.0000 0.10710  0.26540  0.62900  Biso   1.000  C
  C100     1.0000 0.89290  0.73460  0.37100  Biso   1.000  C
  H83      1.0000 0.16850  0.25220  0.63690  Biso   1.000  H
  H84      1.0000 0.83150  0.74780  0.36310  Biso   1.000  H
  C101     1.0000 0.86870  0.28260  0.80250  Biso   1.000  C
  C102     1.0000 0.13130  0.71740  0.19750  Biso   1.000  C
  H85      1.0000 0.92200  0.26860  0.83130  Biso   1.000  H
  H86      1.0000 0.07800  0.73140  0.16870  Biso   1.000  H
  C103     1.0000 0.60230  0.16960  0.66190  Biso   1.000  C
  C104     1.0000 0.39770  0.83040  0.33810  Biso   1.000  C
  H87      1.0000 0.61200  0.14430  0.70080  Biso   1.000  H
  H88      1.0000 0.38800  0.85570  0.29920  Biso   1.000  H
  C105     1.0000 0.31240  0.30690  0.56340  Biso   1.000  C
  C106     1.0000 0.68760  0.69310  0.43660  Biso   1.000  C
  H89      1.0000 0.28290  0.25240  0.55590  Biso   1.000  H
  H90      1.0000 0.71710  0.74760  0.44410  Biso   1.000  H
  C107     1.0000 0.85360  0.97000  0.59340  Biso   1.000  C
  C108     1.0000 0.14640  0.03000  0.40660  Biso   1.000  C
  N25      1.0000 0.81500  0.90310  0.55100  Biso   1.000  N
  N26      1.0000 0.18500  0.09690  0.44900  Biso   1.000  N
  C109     1.0000 0.90740  0.05560  0.64670  Biso   1.000  C
  C110     1.0000 0.09260  0.94440  0.35330  Biso   1.000  C
  O45      1.0000 0.74700  0.53500  0.22000  Biso   1.000  O
  O46      1.0000 0.25300  0.46500  0.78000  Biso   1.000  O
