data_image0
_cell_length_a       5.6854
_cell_length_b       10.4925
_cell_length_c       10.5743
_cell_angle_alpha    91.885
_cell_angle_beta     98.407
_cell_angle_gamma    96.318

_symmetry_space_group_name_H-M    "P 1"
_symmetry_int_tables_number       1

loop_
  _symmetry_equiv_pos_as_xyz
  'x, y, z'

loop_
  _atom_site_label
  _atom_site_occupancy
  _atom_site_fract_x
  _atom_site_fract_y
  _atom_site_fract_z
  _atom_site_thermal_displace_type
  _atom_site_B_iso_or_equiv
  _atom_site_type_symbol
  Cu1      1.0000 0.14331  0.63084  0.50429  Biso   1.000  Cu
  Cu2      1.0000 0.85669  0.36916  0.49571  Biso   1.000  Cu
  S1       1.0000 0.01290  0.82187  0.46679  Biso   1.000  S
  S2       1.0000 0.98710  0.17813  0.53321  Biso   1.000  S
  S3       1.0000 0.66110  0.67762  0.25979  Biso   1.000  S
  S4       1.0000 0.33890  0.32238  0.74021  Biso   1.000  S
  S5       1.0000 0.59720  0.93496  0.33346  Biso   1.000  S
  S6       1.0000 0.40280  0.06504  0.66654  Biso   1.000  S
  S7       1.0000 0.24100  0.64638  0.04728  Biso   1.000  S
  S8       1.0000 0.75900  0.35362  0.95272  Biso   1.000  S
  S9       1.0000 0.15300  0.94010  0.13360  Biso   1.000  S
  S10      1.0000 0.84700  0.05990  0.86640  Biso   1.000  S
  S11      1.0000 0.20400  0.95600  0.11000  Biso   1.000  S
  S12      1.0000 0.79600  0.04400  0.89000  Biso   1.000  S
  S13      1.0000 0.09110  0.46732  0.33539  Biso   1.000  S
  S14      1.0000 0.90890  0.53268  0.66461  Biso   1.000  S
  N1       1.0000 0.52710  0.36760  0.40920  Biso   1.000  N
  N2       1.0000 0.47290  0.63240  0.59080  Biso   1.000  N
  C1       1.0000 0.76770  0.80820  0.35810  Biso   1.000  C
  C2       1.0000 0.23230  0.19180  0.64190  Biso   1.000  C
  C3       1.0000 0.41980  0.74000  0.17260  Biso   1.000  C
  C4       1.0000 0.58020  0.26000  0.82740  Biso   1.000  C
  C5       1.0000 0.38790  0.86200  0.20740  Biso   1.000  C
  C6       1.0000 0.61210  0.13800  0.79260  Biso   1.000  C
  C7       1.0000 0.40800  0.69060  0.92670  Biso   1.000  C
  C8       1.0000 0.59200  0.30940  0.07330  Biso   1.000  C
  H1       1.0000 0.33390  0.64680  0.84730  Biso   1.000  H
  H2       1.0000 0.66610  0.35320  0.15270  Biso   1.000  H
  H3       1.0000 0.56730  0.66770  0.94840  Biso   1.000  H
  H4       1.0000 0.43270  0.33230  0.05160  Biso   1.000  H
  H5       1.0000 0.41480  0.78170  0.91790  Biso   1.000  H
  H6       1.0000 0.58520  0.21830  0.08210  Biso   1.000  H
  C9       1.0000 0.17750  0.08480  0.22440  Biso   1.000  C
  C10      1.0000 0.82250  0.91520  0.77560  Biso   1.000  C
  H7       1.0000 0.05330  0.13440  0.18980  Biso   1.000  H
  H8       1.0000 0.94670  0.86560  0.81020  Biso   1.000  H
  H9       1.0000 0.33090  0.13230  0.22170  Biso   1.000  H
  H10      1.0000 0.66910  0.86770  0.77830  Biso   1.000  H
  H11      1.0000 0.16180  0.06700  0.31140  Biso   1.000  H
  H12      1.0000 0.83820  0.93300  0.68860  Biso   1.000  H
  C11      1.0000 0.34710  0.40690  0.37910  Biso   1.000  C
  C12      1.0000 0.65290  0.59310  0.62090  Biso   1.000  C
