data_image0
_cell_length_a       9.401
_cell_length_b       10.841
_cell_length_c       10.035
_cell_angle_alpha    90
_cell_angle_beta     98.48
_cell_angle_gamma    90

_symmetry_space_group_name_H-M    "P 1"
_symmetry_int_tables_number       1

loop_
  _symmetry_equiv_pos_as_xyz
  'x, y, z'

loop_
  _atom_site_label
  _atom_site_occupancy
  _atom_site_fract_x
  _atom_site_fract_y
  _atom_site_fract_z
  _atom_site_thermal_displace_type
  _atom_site_B_iso_or_equiv
  _atom_site_type_symbol
  Br1      1.0000 0.86137  0.85496  0.97506  Biso   1.000  Br
  Br2      1.0000 0.36137  0.64504  0.47506  Biso   1.000  Br
  Br3      1.0000 0.13863  0.14504  0.02494  Biso   1.000  Br
  Br4      1.0000 0.63863  0.35496  0.52494  Biso   1.000  Br
  Br5      1.0000 0.76929  0.15846  0.21914  Biso   1.000  Br
  Br6      1.0000 0.26929  0.34154  0.71914  Biso   1.000  Br
  Br7      1.0000 0.23071  0.84154  0.78086  Biso   1.000  Br
  Br8      1.0000 0.73071  0.65846  0.28086  Biso   1.000  Br
  Cu1      1.0000 0.89227  0.07115  0.05096  Biso   1.000  Cu
  Cu2      1.0000 0.39227  0.42885  0.55096  Biso   1.000  Cu
  Cu3      1.0000 0.10773  0.92885  0.94904  Biso   1.000  Cu
  Cu4      1.0000 0.60773  0.57115  0.44904  Biso   1.000  Cu
  S1       1.0000 0.78050  0.18610  0.86150  Biso   1.000  S
  S2       1.0000 0.28050  0.31390  0.36150  Biso   1.000  S
  S3       1.0000 0.21950  0.81390  0.13850  Biso   1.000  S
  S4       1.0000 0.71950  0.68610  0.63850  Biso   1.000  S
  S5       1.0000 0.54070  0.98040  0.66750  Biso   1.000  S
  S6       1.0000 0.04070  0.51960  0.16750  Biso   1.000  S
  S7       1.0000 0.45930  0.01960  0.33250  Biso   1.000  S
  S8       1.0000 0.95930  0.48040  0.83250  Biso   1.000  S
  S9       1.0000 0.97840  0.11150  0.67550  Biso   1.000  S
  S10      1.0000 0.47840  0.38850  0.17550  Biso   1.000  S
  S11      1.0000 0.02160  0.88850  0.32450  Biso   1.000  S
  S12      1.0000 0.52160  0.61150  0.82450  Biso   1.000  S
  S13      1.0000 0.77800  0.95500  0.50990  Biso   1.000  S
  S14      1.0000 0.27800  0.54500  0.00990  Biso   1.000  S
  S15      1.0000 0.22200  0.04500  0.49010  Biso   1.000  S
  S16      1.0000 0.72200  0.45500  0.99010  Biso   1.000  S
  C1       1.0000 0.58790  0.17440  0.85310  Biso   1.000  C
  C2       1.0000 0.08790  0.32560  0.35310  Biso   1.000  C
  C3       1.0000 0.41210  0.82560  0.14690  Biso   1.000  C
  C4       1.0000 0.91210  0.67440  0.64690  Biso   1.000  C
  C5       1.0000 0.53040  0.04460  0.83380  Biso   1.000  C
  C6       1.0000 0.03040  0.45540  0.33380  Biso   1.000  C
  C7       1.0000 0.46960  0.95540  0.16620  Biso   1.000  C
  C8       1.0000 0.96960  0.54460  0.66620  Biso   1.000  C
  C9       1.0000 0.80820  0.10040  0.72070  Biso   1.000  C
  C10      1.0000 0.30820  0.39960  0.22070  Biso   1.000  C
  C11      1.0000 0.19180  0.89960  0.27930  Biso   1.000  C
  C12      1.0000 0.69180  0.60040  0.77930  Biso   1.000  C
  C13      1.0000 0.71280  0.02350  0.64600  Biso   1.000  C
  C14      1.0000 0.21280  0.47650  0.14600  Biso   1.000  C
  C15      1.0000 0.28720  0.97650  0.35400  Biso   1.000  C
  C16      1.0000 0.78720  0.52350  0.85400  Biso   1.000  C
  C17      1.0000 0.94640  0.01440  0.54050  Biso   1.000  C
  C18      1.0000 0.44640  0.48560  0.04050  Biso   1.000  C
  C19      1.0000 0.05360  0.98560  0.45950  Biso   1.000  C
  C20      1.0000 0.55360  0.51440  0.95950  Biso   1.000  C
  H1       1.0000 0.56240  0.20580  0.93470  Biso   1.000  H
  H2       1.0000 0.06240  0.29420  0.43470  Biso   1.000  H
  H3       1.0000 0.43760  0.79420  0.06530  Biso   1.000  H
  H4       1.0000 0.93760  0.70580  0.56530  Biso   1.000  H
  H5       1.0000 0.54410  0.22310  0.77970  Biso   1.000  H
  H6       1.0000 0.04410  0.27690  0.27970  Biso   1.000  H
  H7       1.0000 0.45590  0.77690  0.22030  Biso   1.000  H
  H8       1.0000 0.95590  0.72310  0.72030  Biso   1.000  H
  H9       1.0000 0.58440  0.99310  0.89930  Biso   1.000  H
  H10      1.0000 0.08440  0.50690  0.39930  Biso   1.000  H
  H11      1.0000 0.41560  0.00690  0.10070  Biso   1.000  H
  H12      1.0000 0.91560  0.49310  0.60070  Biso   1.000  H
  H13      1.0000 0.43250  0.04490  0.84730  Biso   1.000  H
  H14      1.0000 0.93250  0.45510  0.34730  Biso   1.000  H
  H15      1.0000 0.56750  0.95510  0.15270  Biso   1.000  H
  H16      1.0000 0.06750  0.54490  0.65270  Biso   1.000  H
