data_image0
_cell_length_a       14.708
_cell_length_b       9.219
_cell_length_c       17.087
_cell_angle_alpha    90
_cell_angle_beta     110.62
_cell_angle_gamma    90

_symmetry_space_group_name_H-M    "P 1"
_symmetry_int_tables_number       1

loop_
  _symmetry_equiv_pos_as_xyz
  'x, y, z'

loop_
  _atom_site_label
  _atom_site_occupancy
  _atom_site_fract_x
  _atom_site_fract_y
  _atom_site_fract_z
  _atom_site_thermal_displace_type
  _atom_site_B_iso_or_equiv
  _atom_site_type_symbol
  Br1      1.0000 0.67540  0.79200  0.63310  Biso   1.000  Br
  Br2      1.0000 0.32460  0.29200  0.36690  Biso   1.000  Br
  Br3      1.0000 0.85460  0.09200  0.79830  Biso   1.000  Br
  Br4      1.0000 0.14540  0.59200  0.20170  Biso   1.000  Br
  Br5      1.0000 0.72060  0.76100  0.88180  Biso   1.000  Br
  Br6      1.0000 0.27940  0.26100  0.11820  Biso   1.000  Br
  Br7      1.0000 0.00950  0.89600  0.01360  Biso   1.000  Br
  Br8      1.0000 0.99050  0.39600  0.98640  Biso   1.000  Br
  Br9      1.0000 0.77360  0.11300  0.02070  Biso   1.000  Br
  Br10     1.0000 0.22640  0.61300  0.97930  Biso   1.000  Br
  Br11     1.0000 0.61350  0.79300  0.09740  Biso   1.000  Br
  Br12     1.0000 0.38650  0.29300  0.90260  Biso   1.000  Br
  Br13     1.0000 0.80820  0.07700  0.28260  Biso   1.000  Br
  Br14     1.0000 0.19180  0.57700  0.71740  Biso   1.000  Br
  Br15     1.0000 0.66760  0.77700  0.35520  Biso   1.000  Br
  Br16     1.0000 0.33240  0.27700  0.64480  Biso   1.000  Br
  Br17     1.0000 0.82680  0.09300  0.55030  Biso   1.000  Br
  Br18     1.0000 0.17320  0.59300  0.44970  Biso   1.000  Br
  Cu1      1.0000 0.81920  0.94800  0.66990  Biso   1.000  Cu
  Cu2      1.0000 0.18080  0.44800  0.33010  Biso   1.000  Cu
  Cu3      1.0000 0.70230  0.91800  0.76560  Biso   1.000  Cu
  Cu4      1.0000 0.29770  0.41800  0.23440  Biso   1.000  Cu
  Cu5      1.0000 0.84450  0.94800  0.92290  Biso   1.000  Cu
  Cu6      1.0000 0.15550  0.44800  0.07710  Biso   1.000  Cu
  Cu7      1.0000 0.76050  0.92000  0.10740  Biso   1.000  Cu
  Cu8      1.0000 0.23950  0.42000  0.89260  Biso   1.000  Cu
  Cu9      1.0000 0.66520  0.91500  0.23130  Biso   1.000  Cu
  Cu10     1.0000 0.33480  0.41500  0.76870  Biso   1.000  Cu
  Cu11     1.0000 0.76240  0.98800  0.41140  Biso   1.000  Cu
  Cu12     1.0000 0.23760  0.48800  0.58860  Biso   1.000  Cu
  Cu13     1.0000 0.74510  0.93900  0.45640  Biso   1.000  Cu
  Cu14     1.0000 0.25490  0.43900  0.54360  Biso   1.000  Cu
  Br19     1.0000 0.92480  0.14500  0.00530  Biso   1.000  Br
  Br20     1.0000 0.07520  0.64500  0.99470  Biso   1.000  Br
  S1       1.0000 0.96140  0.80200  0.70780  Biso   1.000  S
  S2       1.0000 0.03860  0.30200  0.29220  Biso   1.000  S
  S3       1.0000 0.88520  0.43900  0.69710  Biso   1.000  S
  S4       1.0000 0.11480  0.93900  0.30290  Biso   1.000  S
  S5       1.0000 0.94730  0.75500  0.53470  Biso   1.000  S
  S6       1.0000 0.05270  0.25500  0.46530  Biso   1.000  S
  S7       1.0000 0.87450  0.46200  0.52280  Biso   1.000  S
  S8       1.0000 0.12550  0.96200  0.47720  Biso   1.000  S
  S9       1.0000 0.92240  0.74700  0.33850  Biso   1.000  S
  S10      1.0000 0.07760  0.24700  0.66150  Biso   1.000  S
  S11      1.0000 0.84300  0.45500  0.32800  Biso   1.000  S
  S12      1.0000 0.15700  0.95500  0.67200  Biso   1.000  S
  S13      1.0000 0.89410  0.77100  0.15970  Biso   1.000  S
  S14      1.0000 0.10590  0.27100  0.84030  Biso   1.000  S
  S15      1.0000 0.80530  0.41100  0.15100  Biso   1.000  S
  S16      1.0000 0.19470  0.91100  0.84900  Biso   1.000  S
  S17      1.0000 0.58520  0.09600  0.73660  Biso   1.000  S
  S18      1.0000 0.41480  0.59600  0.26340  Biso   1.000  S
  S19      1.0000 0.65450  0.46400  0.74920  Biso   1.000  S
  S20      1.0000 0.34550  0.96400  0.25080  Biso   1.000  S
  S21      1.0000 0.57330  0.12500  0.56120  Biso   1.000  S
  S22      1.0000 0.42670  0.62500  0.43880  Biso   1.000  S
  S23      1.0000 0.63160  0.42500  0.57290  Biso   1.000  S
  S24      1.0000 0.36840  0.92500  0.42710  Biso   1.000  S
  S25      1.0000 0.56220  0.12100  0.36970  Biso   1.000  S
  S26      1.0000 0.43780  0.62100  0.63030  Biso   1.000  S
  S27      1.0000 0.61540  0.42700  0.38400  Biso   1.000  S
  S28      1.0000 0.38460  0.92700  0.61600  Biso   1.000  S
  S29      1.0000 0.53560  0.09200  0.19190  Biso   1.000  S
  S30      1.0000 0.46440  0.59200  0.80810  Biso   1.000  S
  S31      1.0000 0.59530  0.46600  0.20790  Biso   1.000  S
  S32      1.0000 0.40470  0.96600  0.79210  Biso   1.000  S
  C1       1.0000 0.97900  0.68000  0.79200  Biso   1.000  C
  C2       1.0000 0.02100  0.18000  0.20800  Biso   1.000  C
  C3       1.0000 0.89300  0.56900  0.77750  Biso   1.000  C
  C4       1.0000 0.10700  0.06900  0.22250  Biso   1.000  C
  C5       1.0000 0.93000  0.68100  0.62200  Biso   1.000  C
  C6       1.0000 0.07000  0.18100  0.37800  Biso   1.000  C
  C7       1.0000 0.90300  0.54900  0.61800  Biso   1.000  C
  C8       1.0000 0.09700  0.04900  0.38200  Biso   1.000  C
  C9       1.0000 0.90500  0.61300  0.47200  Biso   1.000  C
  C10      1.0000 0.09500  0.11300  0.52800  Biso   1.000  C
  C11      1.0000 0.89000  0.60600  0.38600  Biso   1.000  C
  C12      1.0000 0.11000  0.10600  0.61400  Biso   1.000  C
  C13      1.0000 0.87800  0.66600  0.24100  Biso   1.000  C
  C14      1.0000 0.12200  0.16600  0.75900  Biso   1.000  C
  C15      1.0000 0.84700  0.53800  0.23600  Biso   1.000  C
  C16      1.0000 0.15300  0.03800  0.76400  Biso   1.000  C
  C17      1.0000 0.88400  0.62400  0.08300  Biso   1.000  C
  C18      1.0000 0.11600  0.12400  0.91700  Biso   1.000  C
  C19      1.0000 0.80300  0.53300  0.06900  Biso   1.000  C
  C20      1.0000 0.19700  0.03300  0.93100  Biso   1.000  C
  C21      1.0000 0.58800  0.22000  0.81800  Biso   1.000  C
  C22      1.0000 0.41200  0.72000  0.18200  Biso   1.000  C
  C23      1.0000 0.67100  0.34300  0.83200  Biso   1.000  C
  C24      1.0000 0.32900  0.84300  0.16800  Biso   1.000  C
  C25      1.0000 0.60100  0.21000  0.65800  Biso   1.000  C
  C26      1.0000 0.39900  0.71000  0.34200  Biso   1.000  C
  C27      1.0000 0.62900  0.34600  0.66700  Biso   1.000  C
  C28      1.0000 0.37100  0.84600  0.33300  Biso   1.000  C
  C29      1.0000 0.59700  0.27700  0.51400  Biso   1.000  C
  C30      1.0000 0.40300  0.77700  0.48600  Biso   1.000  C
  C31      1.0000 0.59400  0.27800  0.43000  Biso   1.000  C
  C32      1.0000 0.40600  0.77800  0.57000  Biso   1.000  C
  C33      1.0000 0.56300  0.21100  0.27900  Biso   1.000  C
  C34      1.0000 0.43700  0.71100  0.72100  Biso   1.000  C
  C35      1.0000 0.58800  0.34900  0.28500  Biso   1.000  C
  C36      1.0000 0.41200  0.84900  0.71500  Biso   1.000  C
  C37      1.0000 0.57500  0.20600  0.12300  Biso   1.000  C
  C38      1.0000 0.42500  0.70600  0.87700  Biso   1.000  C
  C39      1.0000 0.53700  0.34400  0.11600  Biso   1.000  C
  C40      1.0000 0.46300  0.84400  0.88400  Biso   1.000  C
  H1       1.0000 0.03670  0.64450  0.80020  Biso   1.000  H
  H2       1.0000 0.96330  0.14450  0.19980  Biso   1.000  H
  H3       1.0000 0.98580  0.75290  0.84080  Biso   1.000  H
  H4       1.0000 0.01420  0.25290  0.15920  Biso   1.000  H
  H5       1.0000 0.83320  0.63940  0.76160  Biso   1.000  H
  H6       1.0000 0.16680  0.13940  0.23840  Biso   1.000  H
  H7       1.0000 0.90200  0.53670  0.82830  Biso   1.000  H
  H8       1.0000 0.09800  0.03670  0.17170  Biso   1.000  H
  H9       1.0000 0.88060  0.68480  0.03150  Biso   1.000  H
  H10      1.0000 0.11940  0.18480  0.96850  Biso   1.000  H
  H11      1.0000 0.94150  0.58370  0.10350  Biso   1.000  H
  H12      1.0000 0.05850  0.08370  0.89650  Biso   1.000  H
  H13      1.0000 0.79700  0.49400  0.02050  Biso   1.000  H
  H14      1.0000 0.20300  0.99400  0.97950  Biso   1.000  H
  H15      1.0000 0.74800  0.61130  0.05740  Biso   1.000  H
  H16      1.0000 0.25200  0.11130  0.94260  Biso   1.000  H
  H17      1.0000 0.52670  0.28390  0.80400  Biso   1.000  H
  H18      1.0000 0.47330  0.78390  0.19600  Biso   1.000  H
  H19      1.0000 0.60110  0.18500  0.86900  Biso   1.000  H
  H20      1.0000 0.39890  0.68500  0.13100  Biso   1.000  H
  H21      1.0000 0.73140  0.31200  0.84280  Biso   1.000  H
  H22      1.0000 0.26860  0.81200  0.15720  Biso   1.000  H
  H23      1.0000 0.67420  0.41540  0.88020  Biso   1.000  H
  H24      1.0000 0.32580  0.91540  0.11980  Biso   1.000  H
  H25      1.0000 0.64420  0.23010  0.14490  Biso   1.000  H
  H26      1.0000 0.35580  0.73010  0.85510  Biso   1.000  H
  H27      1.0000 0.55490  0.18130  0.06910  Biso   1.000  H
  H28      1.0000 0.44510  0.68130  0.93090  Biso   1.000  H
  H29      1.0000 0.47050  0.35370  0.10890  Biso   1.000  H
  H30      1.0000 0.52950  0.85370  0.89110  Biso   1.000  H
  H31      1.0000 0.54420  0.40620  0.06860  Biso   1.000  H
  H32      1.0000 0.45580  0.90620  0.93140  Biso   1.000  H
