data_image0
_cell_length_a       53.06
_cell_length_b       6.611
_cell_length_c       15.03
_cell_angle_alpha    90
_cell_angle_beta     97.723
_cell_angle_gamma    90

_symmetry_space_group_name_H-M    "P 1"
_symmetry_int_tables_number       1

loop_
  _symmetry_equiv_pos_as_xyz
  'x, y, z'

loop_
  _atom_site_label
  _atom_site_occupancy
  _atom_site_fract_x
  _atom_site_fract_y
  _atom_site_fract_z
  _atom_site_thermal_displace_type
  _atom_site_B_iso_or_equiv
  _atom_site_type_symbol
  Br1      1.0000 0.35384  0.54110  0.24054  Biso   1.000  Br
  Br2      1.0000 0.35384  0.45890  0.74054  Biso   1.000  Br
  Br3      1.0000 0.85384  0.04110  0.24054  Biso   1.000  Br
  Br4      1.0000 0.85384  0.95890  0.74054  Biso   1.000  Br
  Br5      1.0000 0.64616  0.45890  0.75946  Biso   1.000  Br
  Br6      1.0000 0.64616  0.54110  0.25946  Biso   1.000  Br
  Br7      1.0000 0.14616  0.95890  0.75946  Biso   1.000  Br
  Br8      1.0000 0.14616  0.04110  0.25946  Biso   1.000  Br
  Br9      1.0000 0.30901  0.53000  0.99644  Biso   1.000  Br
  Br10     1.0000 0.30901  0.47000  0.49644  Biso   1.000  Br
  Br11     1.0000 0.80901  0.03000  0.99644  Biso   1.000  Br
  Br12     1.0000 0.80901  0.97000  0.49644  Biso   1.000  Br
  Br13     1.0000 0.69099  0.47000  0.00356  Biso   1.000  Br
  Br14     1.0000 0.69099  0.53000  0.50356  Biso   1.000  Br
  Br15     1.0000 0.19099  0.97000  0.00356  Biso   1.000  Br
  Br16     1.0000 0.19099  0.03000  0.50356  Biso   1.000  Br
  Br17     1.0000 0.34919  0.04190  0.07582  Biso   1.000  Br
  Br18     1.0000 0.34919  0.95810  0.57582  Biso   1.000  Br
  Br19     1.0000 0.84919  0.54190  0.07582  Biso   1.000  Br
  Br20     1.0000 0.84919  0.45810  0.57582  Biso   1.000  Br
  Br21     1.0000 0.65081  0.95810  0.92418  Biso   1.000  Br
  Br22     1.0000 0.65081  0.04190  0.42418  Biso   1.000  Br
  Br23     1.0000 0.15081  0.45810  0.92418  Biso   1.000  Br
  Br24     1.0000 0.15081  0.54190  0.42418  Biso   1.000  Br
  Cu1      1.0000 0.32550  0.32700  0.12841  Biso   1.000  Cu
  Cu2      1.0000 0.32550  0.67300  0.62841  Biso   1.000  Cu
  Cu3      1.0000 0.82550  0.82700  0.12841  Biso   1.000  Cu
  Cu4      1.0000 0.82550  0.17300  0.62841  Biso   1.000  Cu
  Cu5      1.0000 0.67450  0.67300  0.87159  Biso   1.000  Cu
  Cu6      1.0000 0.67450  0.32700  0.37159  Biso   1.000  Cu
  Cu7      1.0000 0.17450  0.17300  0.87159  Biso   1.000  Cu
  Cu8      1.0000 0.17450  0.82700  0.37159  Biso   1.000  Cu
  Cu9      1.0000 0.33598  0.71380  0.10795  Biso   1.000  Cu
  Cu10     1.0000 0.33598  0.28620  0.60795  Biso   1.000  Cu
  Cu11     1.0000 0.83598  0.21380  0.10795  Biso   1.000  Cu
  Cu12     1.0000 0.83598  0.78620  0.60795  Biso   1.000  Cu
  Cu13     1.0000 0.66402  0.28620  0.89205  Biso   1.000  Cu
  Cu14     1.0000 0.66402  0.71380  0.39205  Biso   1.000  Cu
  Cu15     1.0000 0.16402  0.78620  0.89205  Biso   1.000  Cu
  Cu16     1.0000 0.16402  0.21380  0.39205  Biso   1.000  Cu
  S1       1.0000 0.29706  0.20600  0.21890  Biso   1.000  S
  S2       1.0000 0.29706  0.79400  0.71890  Biso   1.000  S
  S3       1.0000 0.79706  0.70600  0.21890  Biso   1.000  S
  S4       1.0000 0.79706  0.29400  0.71890  Biso   1.000  S
  S5       1.0000 0.70294  0.79400  0.78110  Biso   1.000  S
  S6       1.0000 0.70294  0.20600  0.28110  Biso   1.000  S
  S7       1.0000 0.20294  0.29400  0.78110  Biso   1.000  S
  S8       1.0000 0.20294  0.70600  0.28110  Biso   1.000  S
  S9       1.0000 0.28558  0.73850  0.31460  Biso   1.000  S
  S10      1.0000 0.28558  0.26150  0.81460  Biso   1.000  S
  S11      1.0000 0.78558  0.23850  0.31460  Biso   1.000  S
  S12      1.0000 0.78558  0.76150  0.81460  Biso   1.000  S
  S13      1.0000 0.71442  0.26150  0.68540  Biso   1.000  S
  S14      1.0000 0.71442  0.73850  0.18540  Biso   1.000  S
  S15      1.0000 0.21442  0.76150  0.68540  Biso   1.000  S
  S16      1.0000 0.21442  0.23850  0.18540  Biso   1.000  S
  S17      1.0000 0.26975  0.02280  0.05200  Biso   1.000  S
  S18      1.0000 0.26975  0.97720  0.55200  Biso   1.000  S
  S19      1.0000 0.76975  0.52280  0.05200  Biso   1.000  S
  S20      1.0000 0.76975  0.47720  0.55200  Biso   1.000  S
  S21      1.0000 0.73025  0.97720  0.94800  Biso   1.000  S
  S22      1.0000 0.73025  0.02280  0.44800  Biso   1.000  S
  S23      1.0000 0.23025  0.47720  0.94800  Biso   1.000  S
  S24      1.0000 0.23025  0.52280  0.44800  Biso   1.000  S
  S25      1.0000 0.25926  0.64160  0.13640  Biso   1.000  S
  S26      1.0000 0.25926  0.35840  0.63640  Biso   1.000  S
  S27      1.0000 0.75926  0.14160  0.13640  Biso   1.000  S
  S28      1.0000 0.75926  0.85840  0.63640  Biso   1.000  S
  S29      1.0000 0.74074  0.35840  0.86360  Biso   1.000  S
  S30      1.0000 0.74074  0.64160  0.36360  Biso   1.000  S
  S31      1.0000 0.24074  0.85840  0.86360  Biso   1.000  S
  S32      1.0000 0.24074  0.14160  0.36360  Biso   1.000  S
  S33      1.0000 0.55849  0.90190  0.22270  Biso   1.000  S
  S34      1.0000 0.55849  0.09810  0.72270  Biso   1.000  S
  S35      1.0000 0.05849  0.40190  0.22270  Biso   1.000  S
  S36      1.0000 0.05849  0.59810  0.72270  Biso   1.000  S
  S37      1.0000 0.44151  0.09810  0.77730  Biso   1.000  S
  S38      1.0000 0.44151  0.90190  0.27730  Biso   1.000  S
  S39      1.0000 0.94151  0.59810  0.77730  Biso   1.000  S
  S40      1.0000 0.94151  0.40190  0.27730  Biso   1.000  S
  S41      1.0000 0.57557  0.41390  0.24920  Biso   1.000  S
  S42      1.0000 0.57557  0.58610  0.74920  Biso   1.000  S
  S43      1.0000 0.07557  0.91390  0.24920  Biso   1.000  S
  S44      1.0000 0.07557  0.08610  0.74920  Biso   1.000  S
  S45      1.0000 0.42443  0.58610  0.75080  Biso   1.000  S
  S46      1.0000 0.42443  0.41390  0.25080  Biso   1.000  S
  S47      1.0000 0.92443  0.08610  0.75080  Biso   1.000  S
  S48      1.0000 0.92443  0.91390  0.25080  Biso   1.000  S
  S49      1.0000 0.50998  0.05950  0.13310  Biso   1.000  S
  S50      1.0000 0.50998  0.94050  0.63310  Biso   1.000  S
  S51      1.0000 0.00998  0.55950  0.13310  Biso   1.000  S
  S52      1.0000 0.00998  0.44050  0.63310  Biso   1.000  S
  S53      1.0000 0.49002  0.94050  0.86690  Biso   1.000  S
  S54      1.0000 0.49002  0.05950  0.36690  Biso   1.000  S
  S55      1.0000 0.99002  0.44050  0.86690  Biso   1.000  S
  S56      1.0000 0.99002  0.55950  0.36690  Biso   1.000  S
  S57      1.0000 0.52318  0.48910  0.16190  Biso   1.000  S
  S58      1.0000 0.52318  0.51090  0.66190  Biso   1.000  S
  S59      1.0000 0.02318  0.98910  0.16190  Biso   1.000  S
  S60      1.0000 0.02318  0.01090  0.66190  Biso   1.000  S
  S61      1.0000 0.47682  0.51090  0.83810  Biso   1.000  S
  S62      1.0000 0.47682  0.48910  0.33810  Biso   1.000  S
  S63      1.0000 0.97682  0.01090  0.83810  Biso   1.000  S
  S64      1.0000 0.97682  0.98910  0.33810  Biso   1.000  S
  S65      1.0000 0.45471  0.19450  0.03070  Biso   1.000  S
  S66      1.0000 0.45471  0.80550  0.53070  Biso   1.000  S
  S67      1.0000 0.95471  0.69450  0.03070  Biso   1.000  S
  S68      1.0000 0.95471  0.30550  0.53070  Biso   1.000  S
  S69      1.0000 0.54529  0.80550  0.96930  Biso   1.000  S
  S70      1.0000 0.54529  0.19450  0.46930  Biso   1.000  S
  S71      1.0000 0.04529  0.30550  0.96930  Biso   1.000  S
  S72      1.0000 0.04529  0.69450  0.46930  Biso   1.000  S
  S73      1.0000 0.46664  0.61770  0.07750  Biso   1.000  S
  S74      1.0000 0.46664  0.38230  0.57750  Biso   1.000  S
  S75      1.0000 0.96664  0.11770  0.07750  Biso   1.000  S
  S76      1.0000 0.96664  0.88230  0.57750  Biso   1.000  S
  S77      1.0000 0.53336  0.38230  0.92250  Biso   1.000  S
  S78      1.0000 0.53336  0.61770  0.42250  Biso   1.000  S
  S79      1.0000 0.03336  0.88230  0.92250  Biso   1.000  S
  S80      1.0000 0.03336  0.11770  0.42250  Biso   1.000  S
  S81      1.0000 0.40118  0.27480  0.95400  Biso   1.000  S
  S82      1.0000 0.40118  0.72520  0.45400  Biso   1.000  S
  S83      1.0000 0.90118  0.77480  0.95400  Biso   1.000  S
  S84      1.0000 0.90118  0.22520  0.45400  Biso   1.000  S
  S85      1.0000 0.59882  0.72520  0.04600  Biso   1.000  S
  S86      1.0000 0.59882  0.27480  0.54600  Biso   1.000  S
  S87      1.0000 0.09882  0.22520  0.04600  Biso   1.000  S
  S88      1.0000 0.09882  0.77480  0.54600  Biso   1.000  S
  S89      1.0000 0.41611  0.77860  0.01380  Biso   1.000  S
  S90      1.0000 0.41611  0.22140  0.51380  Biso   1.000  S
  S91      1.0000 0.91611  0.27860  0.01380  Biso   1.000  S
  S92      1.0000 0.91611  0.72140  0.51380  Biso   1.000  S
  S93      1.0000 0.58389  0.22140  0.98620  Biso   1.000  S
  S94      1.0000 0.58389  0.77860  0.48620  Biso   1.000  S
  S95      1.0000 0.08389  0.72140  0.98620  Biso   1.000  S
  S96      1.0000 0.08389  0.27860  0.48620  Biso   1.000  S
  C1       1.0000 0.31860  0.06600  0.30390  Biso   1.000  C
  C2       1.0000 0.31860  0.93400  0.80390  Biso   1.000  C
  C3       1.0000 0.81860  0.56600  0.30390  Biso   1.000  C
  C4       1.0000 0.81860  0.43400  0.80390  Biso   1.000  C
  C5       1.0000 0.68140  0.93400  0.69610  Biso   1.000  C
  C6       1.0000 0.68140  0.06600  0.19610  Biso   1.000  C
  C7       1.0000 0.18140  0.43400  0.69610  Biso   1.000  C
  C8       1.0000 0.18140  0.56600  0.19610  Biso   1.000  C
  C9       1.0000 0.30720  0.93500  0.35910  Biso   1.000  C
  C10      1.0000 0.30720  0.06500  0.85910  Biso   1.000  C
  C11      1.0000 0.80720  0.43500  0.35910  Biso   1.000  C
  C12      1.0000 0.80720  0.56500  0.85910  Biso   1.000  C
  C13      1.0000 0.69280  0.06500  0.64090  Biso   1.000  C
  C14      1.0000 0.69280  0.93500  0.14090  Biso   1.000  C
  C15      1.0000 0.19280  0.56500  0.64090  Biso   1.000  C
  C16      1.0000 0.19280  0.43500  0.14090  Biso   1.000  C
  C17      1.0000 0.28080  0.00000  0.16630  Biso   1.000  C
  C18      1.0000 0.28080  0.00000  0.66630  Biso   1.000  C
  C19      1.0000 0.78080  0.50000  0.16630  Biso   1.000  C
  C20      1.0000 0.78080  0.50000  0.66630  Biso   1.000  C
  C21      1.0000 0.71920  0.00000  0.83370  Biso   1.000  C
  C22      1.0000 0.71920  0.00000  0.33370  Biso   1.000  C
  C23      1.0000 0.21920  0.50000  0.83370  Biso   1.000  C
  C24      1.0000 0.21920  0.50000  0.33370  Biso   1.000  C
  C25      1.0000 0.27580  0.82400  0.20440  Biso   1.000  C
  C26      1.0000 0.27580  0.17600  0.70440  Biso   1.000  C
  C27      1.0000 0.77580  0.32400  0.20440  Biso   1.000  C
  C28      1.0000 0.77580  0.67600  0.70440  Biso   1.000  C
  C29      1.0000 0.72420  0.17600  0.79560  Biso   1.000  C
  C30      1.0000 0.72420  0.82400  0.29560  Biso   1.000  C
  C31      1.0000 0.22420  0.67600  0.79560  Biso   1.000  C
  C32      1.0000 0.22420  0.32400  0.29560  Biso   1.000  C
  C33      1.0000 0.25590  0.78400  0.03920  Biso   1.000  C
  C34      1.0000 0.25590  0.21600  0.53920  Biso   1.000  C
  C35      1.0000 0.75590  0.28400  0.03920  Biso   1.000  C
  C36      1.0000 0.75590  0.71600  0.53920  Biso   1.000  C
  C37      1.0000 0.74410  0.21600  0.96080  Biso   1.000  C
  C38      1.0000 0.74410  0.78400  0.46080  Biso   1.000  C
  C39      1.0000 0.24410  0.71600  0.96080  Biso   1.000  C
  C40      1.0000 0.24410  0.28400  0.46080  Biso   1.000  C
  C41      1.0000 0.59020  0.00800  0.24030  Biso   1.000  C
  C42      1.0000 0.59020  0.99200  0.74030  Biso   1.000  C
  C43      1.0000 0.09020  0.50800  0.24030  Biso   1.000  C
  C44      1.0000 0.09020  0.49200  0.74030  Biso   1.000  C
  C45      1.0000 0.40980  0.99200  0.75970  Biso   1.000  C
  C46      1.0000 0.40980  0.00800  0.25970  Biso   1.000  C
  C47      1.0000 0.90980  0.49200  0.75970  Biso   1.000  C
  C48      1.0000 0.90980  0.50800  0.25970  Biso   1.000  C
  C49      1.0000 0.59170  0.19200  0.29710  Biso   1.000  C
  C50      1.0000 0.59170  0.80800  0.79710  Biso   1.000  C
  C51      1.0000 0.09170  0.69200  0.29710  Biso   1.000  C
  C52      1.0000 0.09170  0.30800  0.79710  Biso   1.000  C
  C53      1.0000 0.40830  0.80800  0.70290  Biso   1.000  C
  C54      1.0000 0.40830  0.19200  0.20290  Biso   1.000  C
  C55      1.0000 0.90830  0.30800  0.70290  Biso   1.000  C
  C56      1.0000 0.90830  0.69200  0.20290  Biso   1.000  C
  C57      1.0000 0.54030  0.11400  0.19030  Biso   1.000  C
  C58      1.0000 0.54030  0.88600  0.69030  Biso   1.000  C
  C59      1.0000 0.04030  0.61400  0.19030  Biso   1.000  C
  C60      1.0000 0.04030  0.38600  0.69030  Biso   1.000  C
  C61      1.0000 0.45970  0.88600  0.80970  Biso   1.000  C
  C62      1.0000 0.45970  0.11400  0.30970  Biso   1.000  C
  C63      1.0000 0.95970  0.38600  0.80970  Biso   1.000  C
  C64      1.0000 0.95970  0.61400  0.30970  Biso   1.000  C
  C65      1.0000 0.54620  0.31100  0.20160  Biso   1.000  C
  C66      1.0000 0.54620  0.68900  0.70160  Biso   1.000  C
  C67      1.0000 0.04620  0.81100  0.20160  Biso   1.000  C
  C68      1.0000 0.04620  0.18900  0.70160  Biso   1.000  C
  C69      1.0000 0.45380  0.68900  0.79840  Biso   1.000  C
  C70      1.0000 0.45380  0.31100  0.29840  Biso   1.000  C
  C71      1.0000 0.95380  0.18900  0.79840  Biso   1.000  C
  C72      1.0000 0.95380  0.81100  0.29840  Biso   1.000  C
  C73      1.0000 0.50040  0.31200  0.12110  Biso   1.000  C
  C74      1.0000 0.50040  0.68800  0.62110  Biso   1.000  C
  C75      1.0000 0.00040  0.81200  0.12110  Biso   1.000  C
  C76      1.0000 0.00040  0.18800  0.62110  Biso   1.000  C
  C77      1.0000 0.49960  0.68800  0.87890  Biso   1.000  C
  C78      1.0000 0.49960  0.31200  0.37890  Biso   1.000  C
  C79      1.0000 0.99960  0.18800  0.87890  Biso   1.000  C
  C80      1.0000 0.99960  0.81200  0.37890  Biso   1.000  C
  C81      1.0000 0.47610  0.36700  0.07930  Biso   1.000  C
  C82      1.0000 0.47610  0.63300  0.57930  Biso   1.000  C
  C83      1.0000 0.97610  0.86700  0.07930  Biso   1.000  C
  C84      1.0000 0.97610  0.13300  0.57930  Biso   1.000  C
  C85      1.0000 0.52390  0.63300  0.92070  Biso   1.000  C
  C86      1.0000 0.52390  0.36700  0.42070  Biso   1.000  C
  C87      1.0000 0.02390  0.13300  0.92070  Biso   1.000  C
  C88      1.0000 0.02390  0.86700  0.42070  Biso   1.000  C
  C89      1.0000 0.43030  0.37200  0.00350  Biso   1.000  C
  C90      1.0000 0.43030  0.62800  0.50350  Biso   1.000  C
  C91      1.0000 0.93030  0.87200  0.00350  Biso   1.000  C
  C92      1.0000 0.93030  0.12800  0.50350  Biso   1.000  C
  C93      1.0000 0.56970  0.62800  0.99650  Biso   1.000  C
  C94      1.0000 0.56970  0.37200  0.49650  Biso   1.000  C
  C95      1.0000 0.06970  0.12800  0.99650  Biso   1.000  C
  C96      1.0000 0.06970  0.87200  0.49650  Biso   1.000  C
  C97      1.0000 0.43580  0.56600  0.02450  Biso   1.000  C
  C98      1.0000 0.43580  0.43400  0.52450  Biso   1.000  C
  C99      1.0000 0.93580  0.06600  0.02450  Biso   1.000  C
  C100     1.0000 0.93580  0.93400  0.52450  Biso   1.000  C
  C101     1.0000 0.56420  0.43400  0.97550  Biso   1.000  C
  C102     1.0000 0.56420  0.56600  0.47550  Biso   1.000  C
  C103     1.0000 0.06420  0.93400  0.97550  Biso   1.000  C
  C104     1.0000 0.06420  0.06600  0.47550  Biso   1.000  C
  C105     1.0000 0.38040  0.47400  0.98440  Biso   1.000  C
  C106     1.0000 0.38040  0.52600  0.48440  Biso   1.000  C
  C107     1.0000 0.88040  0.97400  0.98440  Biso   1.000  C
  C108     1.0000 0.88040  0.02600  0.48440  Biso   1.000  C
  C109     1.0000 0.61960  0.52600  0.01560  Biso   1.000  C
  C110     1.0000 0.61960  0.47400  0.51560  Biso   1.000  C
  C111     1.0000 0.11960  0.02600  0.01560  Biso   1.000  C
  C112     1.0000 0.11960  0.97400  0.51560  Biso   1.000  C
  C113     1.0000 0.38750  0.68000  0.95140  Biso   1.000  C
  C114     1.0000 0.38750  0.32000  0.45140  Biso   1.000  C
  C115     1.0000 0.88750  0.18000  0.95140  Biso   1.000  C
  C116     1.0000 0.88750  0.82000  0.45140  Biso   1.000  C
  C117     1.0000 0.61250  0.32000  0.04860  Biso   1.000  C
  C118     1.0000 0.61250  0.68000  0.54860  Biso   1.000  C
  C119     1.0000 0.11250  0.82000  0.04860  Biso   1.000  C
  C120     1.0000 0.11250  0.18000  0.54860  Biso   1.000  C
  H1       1.0000 0.32790  0.16400  0.34140  Biso   1.000  H
  H2       1.0000 0.32790  0.83600  0.84140  Biso   1.000  H
  H3       1.0000 0.82790  0.66400  0.34140  Biso   1.000  H
  H4       1.0000 0.82790  0.33600  0.84140  Biso   1.000  H
  H5       1.0000 0.67210  0.83600  0.65860  Biso   1.000  H
  H6       1.0000 0.67210  0.16400  0.15860  Biso   1.000  H
  H7       1.0000 0.17210  0.33600  0.65860  Biso   1.000  H
  H8       1.0000 0.17210  0.66400  0.15860  Biso   1.000  H
  H9       1.0000 0.32980  0.99030  0.27320  Biso   1.000  H
  H10      1.0000 0.32980  0.00970  0.77320  Biso   1.000  H
  H11      1.0000 0.82980  0.49030  0.27320  Biso   1.000  H
  H12      1.0000 0.82980  0.50970  0.77320  Biso   1.000  H
  H13      1.0000 0.67020  0.00970  0.72680  Biso   1.000  H
  H14      1.0000 0.67020  0.99030  0.22680  Biso   1.000  H
  H15      1.0000 0.17020  0.50970  0.72680  Biso   1.000  H
  H16      1.0000 0.17020  0.49030  0.22680  Biso   1.000  H
  H17      1.0000 0.29830  0.01750  0.39570  Biso   1.000  H
  H18      1.0000 0.29830  0.98250  0.89570  Biso   1.000  H
  H19      1.0000 0.79830  0.51750  0.39570  Biso   1.000  H
  H20      1.0000 0.79830  0.48250  0.89570  Biso   1.000  H
  H21      1.0000 0.70170  0.98250  0.60430  Biso   1.000  H
  H22      1.0000 0.70170  0.01750  0.10430  Biso   1.000  H
  H23      1.0000 0.20170  0.48250  0.60430  Biso   1.000  H
  H24      1.0000 0.20170  0.51750  0.10430  Biso   1.000  H
  H25      1.0000 0.32090  0.86930  0.39520  Biso   1.000  H
  H26      1.0000 0.32090  0.13070  0.89520  Biso   1.000  H
  H27      1.0000 0.82090  0.36930  0.39520  Biso   1.000  H
  H28      1.0000 0.82090  0.63070  0.89520  Biso   1.000  H
  H29      1.0000 0.67910  0.13070  0.60480  Biso   1.000  H
  H30      1.0000 0.67910  0.86930  0.10480  Biso   1.000  H
  H31      1.0000 0.17910  0.63070  0.60480  Biso   1.000  H
  H32      1.0000 0.17910  0.36930  0.10480  Biso   1.000  H
  H33      1.0000 0.60160  0.90880  0.26880  Biso   1.000  H
  H34      1.0000 0.60160  0.09120  0.76880  Biso   1.000  H
  H35      1.0000 0.10160  0.40880  0.26880  Biso   1.000  H
  H36      1.0000 0.10160  0.59120  0.76880  Biso   1.000  H
  H37      1.0000 0.39840  0.09120  0.73120  Biso   1.000  H
  H38      1.0000 0.39840  0.90880  0.23120  Biso   1.000  H
  H39      1.0000 0.89840  0.59120  0.73120  Biso   1.000  H
  H40      1.0000 0.89840  0.40880  0.23120  Biso   1.000  H
  H41      1.0000 0.59510  0.04140  0.18360  Biso   1.000  H
  H42      1.0000 0.59510  0.95860  0.68360  Biso   1.000  H
  H43      1.0000 0.09510  0.54140  0.18360  Biso   1.000  H
  H44      1.0000 0.09510  0.45860  0.68360  Biso   1.000  H
  H45      1.0000 0.40490  0.95860  0.81640  Biso   1.000  H
  H46      1.0000 0.40490  0.04140  0.31640  Biso   1.000  H
  H47      1.0000 0.90490  0.45860  0.81640  Biso   1.000  H
  H48      1.0000 0.90490  0.54140  0.31640  Biso   1.000  H
  H49      1.0000 0.58480  0.16000  0.35050  Biso   1.000  H
  H50      1.0000 0.58480  0.84000  0.85050  Biso   1.000  H
  H51      1.0000 0.08480  0.66000  0.35050  Biso   1.000  H
  H52      1.0000 0.08480  0.34000  0.85050  Biso   1.000  H
  H53      1.0000 0.41520  0.84000  0.64950  Biso   1.000  H
  H54      1.0000 0.41520  0.16000  0.14950  Biso   1.000  H
  H55      1.0000 0.91520  0.34000  0.64950  Biso   1.000  H
  H56      1.0000 0.91520  0.66000  0.14950  Biso   1.000  H
  H57      1.0000 0.60920  0.22570  0.31200  Biso   1.000  H
  H58      1.0000 0.60920  0.77430  0.81200  Biso   1.000  H
  H59      1.0000 0.10920  0.72570  0.31200  Biso   1.000  H
  H60      1.0000 0.10920  0.27430  0.81200  Biso   1.000  H
  H61      1.0000 0.39080  0.77430  0.68800  Biso   1.000  H
  H62      1.0000 0.39080  0.22570  0.18800  Biso   1.000  H
  H63      1.0000 0.89080  0.27430  0.68800  Biso   1.000  H
  H64      1.0000 0.89080  0.72570  0.18800  Biso   1.000  H
  H65      1.0000 0.36350  0.44390  0.95840  Biso   1.000  H
  H66      1.0000 0.36350  0.55610  0.45840  Biso   1.000  H
  H67      1.0000 0.86350  0.94390  0.95840  Biso   1.000  H
  H68      1.0000 0.86350  0.05610  0.45840  Biso   1.000  H
  H69      1.0000 0.63650  0.55610  0.04160  Biso   1.000  H
  H70      1.0000 0.63650  0.44390  0.54160  Biso   1.000  H
  H71      1.0000 0.13650  0.05610  0.04160  Biso   1.000  H
  H72      1.0000 0.13650  0.94390  0.54160  Biso   1.000  H
  H73      1.0000 0.38140  0.47780  0.04760  Biso   1.000  H
  H74      1.0000 0.38140  0.52220  0.54760  Biso   1.000  H
  H75      1.0000 0.88140  0.97780  0.04760  Biso   1.000  H
  H76      1.0000 0.88140  0.02220  0.54760  Biso   1.000  H
  H77      1.0000 0.61860  0.52220  0.95240  Biso   1.000  H
  H78      1.0000 0.61860  0.47780  0.45240  Biso   1.000  H
  H79      1.0000 0.11860  0.02220  0.95240  Biso   1.000  H
  H80      1.0000 0.11860  0.97780  0.45240  Biso   1.000  H
  H81      1.0000 0.39000  0.66960  0.89010  Biso   1.000  H
  H82      1.0000 0.39000  0.33040  0.39010  Biso   1.000  H
  H83      1.0000 0.89000  0.16960  0.89010  Biso   1.000  H
  H84      1.0000 0.89000  0.83040  0.39010  Biso   1.000  H
  H85      1.0000 0.61000  0.33040  0.10990  Biso   1.000  H
  H86      1.0000 0.61000  0.66960  0.60990  Biso   1.000  H
  H87      1.0000 0.11000  0.83040  0.10990  Biso   1.000  H
  H88      1.0000 0.11000  0.16960  0.60990  Biso   1.000  H
  H89      1.0000 0.37400  0.77160  0.95690  Biso   1.000  H
  H90      1.0000 0.37400  0.22840  0.45690  Biso   1.000  H
  H91      1.0000 0.87400  0.27160  0.95690  Biso   1.000  H
  H92      1.0000 0.87400  0.72840  0.45690  Biso   1.000  H
  H93      1.0000 0.62600  0.22840  0.04310  Biso   1.000  H
  H94      1.0000 0.62600  0.77160  0.54310  Biso   1.000  H
  H95      1.0000 0.12600  0.72840  0.04310  Biso   1.000  H
  H96      1.0000 0.12600  0.27160  0.54310  Biso   1.000  H
