data_image0
_cell_length_a       14.6811
_cell_length_b       13.5626
_cell_length_c       11.17
_cell_angle_alpha    90
_cell_angle_beta     108.416
_cell_angle_gamma    90

_symmetry_space_group_name_H-M    "P 1"
_symmetry_int_tables_number       1

loop_
  _symmetry_equiv_pos_as_xyz
  'x, y, z'

loop_
  _atom_site_label
  _atom_site_occupancy
  _atom_site_fract_x
  _atom_site_fract_y
  _atom_site_fract_z
  _atom_site_thermal_displace_type
  _atom_site_B_iso_or_equiv
  _atom_site_type_symbol
  I1       1.0000 0.39299  0.02810  0.75631  Biso   1.000  I
  I2       1.0000 0.39299  0.97190  0.25631  Biso   1.000  I
  I3       1.0000 0.89299  0.52810  0.75631  Biso   1.000  I
  I4       1.0000 0.89299  0.47190  0.25631  Biso   1.000  I
  I5       1.0000 0.10543  0.89938  0.74170  Biso   1.000  I
  I6       1.0000 0.10543  0.10062  0.24170  Biso   1.000  I
  I7       1.0000 0.60543  0.39938  0.74170  Biso   1.000  I
  I8       1.0000 0.60543  0.60062  0.24170  Biso   1.000  I
  Cu1      1.0000 0.26433  0.88725  0.68435  Biso   1.000  Cu
  Cu2      1.0000 0.26433  0.11275  0.18435  Biso   1.000  Cu
  Cu3      1.0000 0.76433  0.38725  0.68435  Biso   1.000  Cu
  Cu4      1.0000 0.76433  0.61275  0.18435  Biso   1.000  Cu
  Cu5      1.0000 0.22267  0.04978  0.77090  Biso   1.000  Cu
  Cu6      1.0000 0.22267  0.95022  0.27090  Biso   1.000  Cu
  Cu7      1.0000 0.72267  0.54978  0.77090  Biso   1.000  Cu
  Cu8      1.0000 0.72267  0.45022  0.27090  Biso   1.000  Cu
  S1       1.0000 0.23637  0.86503  0.46807  Biso   1.000  S
  S2       1.0000 0.23637  0.13497  0.96807  Biso   1.000  S
  S3       1.0000 0.73637  0.36503  0.46807  Biso   1.000  S
  S4       1.0000 0.73637  0.63497  0.96807  Biso   1.000  S
  N1       1.0000 0.31130  0.74210  0.70150  Biso   1.000  N
  N2       1.0000 0.31130  0.25790  0.20150  Biso   1.000  N
  N3       1.0000 0.81130  0.24210  0.70150  Biso   1.000  N
  N4       1.0000 0.81130  0.75790  0.20150  Biso   1.000  N
  N5       1.0000 0.30680  0.70940  0.90490  Biso   1.000  N
  N6       1.0000 0.30680  0.29060  0.40490  Biso   1.000  N
  N7       1.0000 0.80680  0.20940  0.90490  Biso   1.000  N
  N8       1.0000 0.80680  0.79060  0.40490  Biso   1.000  N
  N9       1.0000 0.24150  0.59570  0.75960  Biso   1.000  N
  N10      1.0000 0.24150  0.40430  0.25960  Biso   1.000  N
  N11      1.0000 0.74150  0.09570  0.75960  Biso   1.000  N
  N12      1.0000 0.74150  0.90430  0.25960  Biso   1.000  N
  N13      1.0000 0.13640  0.83180  0.19280  Biso   1.000  N
  N14      1.0000 0.13640  0.16820  0.69280  Biso   1.000  N
  N15      1.0000 0.63640  0.33180  0.19280  Biso   1.000  N
  N16      1.0000 0.63640  0.66820  0.69280  Biso   1.000  N
  C1       1.0000 0.28840  0.68450  0.78290  Biso   1.000  C
  C2       1.0000 0.28840  0.31550  0.28290  Biso   1.000  C
  C3       1.0000 0.78840  0.18450  0.78290  Biso   1.000  C
  C4       1.0000 0.78840  0.81550  0.28290  Biso   1.000  C
  C5       1.0000 0.37470  0.78410  0.96890  Biso   1.000  C
  C6       1.0000 0.37470  0.21590  0.46890  Biso   1.000  C
  C7       1.0000 0.87470  0.28410  0.96890  Biso   1.000  C
  C8       1.0000 0.87470  0.71590  0.46890  Biso   1.000  C
  H1       1.0000 0.43430  0.75250  0.02030  Biso   1.000  H
  H2       1.0000 0.43430  0.24750  0.52030  Biso   1.000  H
  H3       1.0000 0.93430  0.25250  0.02030  Biso   1.000  H
  H4       1.0000 0.93430  0.74750  0.52030  Biso   1.000  H
  H5       1.0000 0.34770  0.82310  0.02330  Biso   1.000  H
  H6       1.0000 0.34770  0.17690  0.52330  Biso   1.000  H
  H7       1.0000 0.84770  0.32310  0.02330  Biso   1.000  H
  H8       1.0000 0.84770  0.67690  0.52330  Biso   1.000  H
  H9       1.0000 0.38850  0.82730  0.90640  Biso   1.000  H
  H10      1.0000 0.38850  0.17270  0.40640  Biso   1.000  H
  H11      1.0000 0.88850  0.32730  0.90640  Biso   1.000  H
  H12      1.0000 0.88850  0.67270  0.40640  Biso   1.000  H
  C9       1.0000 0.27920  0.63080  0.97570  Biso   1.000  C
  C10      1.0000 0.27920  0.36920  0.47570  Biso   1.000  C
  C11      1.0000 0.77920  0.13080  0.97570  Biso   1.000  C
  C12      1.0000 0.77920  0.86920  0.47570  Biso   1.000  C
  H13      1.0000 0.24320  0.65710  0.03020  Biso   1.000  H
  H14      1.0000 0.24320  0.34290  0.53020  Biso   1.000  H
  H15      1.0000 0.74320  0.15710  0.03020  Biso   1.000  H
  H16      1.0000 0.74320  0.84290  0.53020  Biso   1.000  H
  H17      1.0000 0.33610  0.59420  0.02840  Biso   1.000  H
  H18      1.0000 0.33610  0.40580  0.52840  Biso   1.000  H
  H19      1.0000 0.83610  0.09420  0.02840  Biso   1.000  H
  H20      1.0000 0.83610  0.90580  0.52840  Biso   1.000  H
  C13      1.0000 0.21590  0.56620  0.87140  Biso   1.000  C
  C14      1.0000 0.21590  0.43380  0.37140  Biso   1.000  C
  C15      1.0000 0.71590  0.06620  0.87140  Biso   1.000  C
  C16      1.0000 0.71590  0.93380  0.37140  Biso   1.000  C
  H21      1.0000 0.22970  0.49550  0.89070  Biso   1.000  H
  H22      1.0000 0.22970  0.50450  0.39070  Biso   1.000  H
  H23      1.0000 0.72970  0.99550  0.89070  Biso   1.000  H
  H24      1.0000 0.72970  0.00450  0.39070  Biso   1.000  H
  H25      1.0000 0.14710  0.57870  0.85910  Biso   1.000  H
  H26      1.0000 0.14710  0.42130  0.35910  Biso   1.000  H
  H27      1.0000 0.64710  0.07870  0.85910  Biso   1.000  H
  H28      1.0000 0.64710  0.92130  0.35910  Biso   1.000  H
  C17      1.0000 0.17130  0.57170  0.63930  Biso   1.000  C
  C18      1.0000 0.17130  0.42830  0.13930  Biso   1.000  C
  C19      1.0000 0.67130  0.07170  0.63930  Biso   1.000  C
  C20      1.0000 0.67130  0.92830  0.13930  Biso   1.000  C
  H29      1.0000 0.11090  0.60580  0.63170  Biso   1.000  H
  H30      1.0000 0.11090  0.39420  0.13170  Biso   1.000  H
  H31      1.0000 0.61090  0.10580  0.63170  Biso   1.000  H
  H32      1.0000 0.61090  0.89420  0.13170  Biso   1.000  H
  H33      1.0000 0.16030  0.50030  0.63400  Biso   1.000  H
  H34      1.0000 0.16030  0.49970  0.13400  Biso   1.000  H
  H35      1.0000 0.66030  0.00030  0.63400  Biso   1.000  H
  H36      1.0000 0.66030  0.99970  0.13400  Biso   1.000  H
  H37      1.0000 0.19530  0.59270  0.57080  Biso   1.000  H
  H38      1.0000 0.19530  0.40730  0.07080  Biso   1.000  H
  H39      1.0000 0.69530  0.09270  0.57080  Biso   1.000  H
  H40      1.0000 0.69530  0.90730  0.07080  Biso   1.000  H
  C21      1.0000 0.33030  0.70250  0.59630  Biso   1.000  C
  C22      1.0000 0.33030  0.29750  0.09630  Biso   1.000  C
  C23      1.0000 0.83030  0.20250  0.59630  Biso   1.000  C
  C24      1.0000 0.83030  0.79750  0.09630  Biso   1.000  C
  C25      1.0000 0.38670  0.61750  0.60430  Biso   1.000  C
  C26      1.0000 0.38670  0.38250  0.10430  Biso   1.000  C
  C27      1.0000 0.88670  0.11750  0.60430  Biso   1.000  C
  C28      1.0000 0.88670  0.88250  0.10430  Biso   1.000  C
  H41      1.0000 0.40780  0.58200  0.68150  Biso   1.000  H
  H42      1.0000 0.40780  0.41800  0.18150  Biso   1.000  H
  H43      1.0000 0.90780  0.08200  0.68150  Biso   1.000  H
  H44      1.0000 0.90780  0.91800  0.18150  Biso   1.000  H
  C29      1.0000 0.41200  0.58450  0.50300  Biso   1.000  C
  C30      1.0000 0.41200  0.41550  0.00300  Biso   1.000  C
  C31      1.0000 0.91200  0.08450  0.50300  Biso   1.000  C
  C32      1.0000 0.91200  0.91550  0.00300  Biso   1.000  C
  H45      1.0000 0.45040  0.52690  0.51140  Biso   1.000  H
  H46      1.0000 0.45040  0.47310  0.01140  Biso   1.000  H
  H47      1.0000 0.95040  0.02690  0.51140  Biso   1.000  H
  H48      1.0000 0.95040  0.97310  0.01140  Biso   1.000  H
  C33      1.0000 0.38230  0.63420  0.38820  Biso   1.000  C
  C34      1.0000 0.38230  0.36580  0.88820  Biso   1.000  C
  C35      1.0000 0.88230  0.13420  0.38820  Biso   1.000  C
  C36      1.0000 0.88230  0.86580  0.88820  Biso   1.000  C
  H49      1.0000 0.39870  0.61000  0.31780  Biso   1.000  H
  H50      1.0000 0.39870  0.39000  0.81780  Biso   1.000  H
  H51      1.0000 0.89870  0.11000  0.31780  Biso   1.000  H
  H52      1.0000 0.89870  0.89000  0.81780  Biso   1.000  H
  C37      1.0000 0.32870  0.71930  0.37820  Biso   1.000  C
  C38      1.0000 0.32870  0.28070  0.87820  Biso   1.000  C
  C39      1.0000 0.82870  0.21930  0.37820  Biso   1.000  C
  C40      1.0000 0.82870  0.78070  0.87820  Biso   1.000  C
  H53      1.0000 0.30920  0.75470  0.30090  Biso   1.000  H
  H54      1.0000 0.30920  0.24530  0.80090  Biso   1.000  H
  H55      1.0000 0.80920  0.25470  0.30090  Biso   1.000  H
  H56      1.0000 0.80920  0.74530  0.80090  Biso   1.000  H
  C41      1.0000 0.30300  0.75340  0.48060  Biso   1.000  C
  C42      1.0000 0.30300  0.24660  0.98060  Biso   1.000  C
  C43      1.0000 0.80300  0.25340  0.48060  Biso   1.000  C
  C44      1.0000 0.80300  0.74660  0.98060  Biso   1.000  C
  C45      1.0000 0.11490  0.81860  0.39840  Biso   1.000  C
  C46      1.0000 0.11490  0.18140  0.89840  Biso   1.000  C
  C47      1.0000 0.61490  0.31860  0.39840  Biso   1.000  C
  C48      1.0000 0.61490  0.68140  0.89840  Biso   1.000  C
  H57      1.0000 0.10280  0.76540  0.45220  Biso   1.000  H
  H58      1.0000 0.10280  0.23460  0.95220  Biso   1.000  H
  H59      1.0000 0.60280  0.26540  0.45220  Biso   1.000  H
  H60      1.0000 0.60280  0.73460  0.95220  Biso   1.000  H
  H61      1.0000 0.06850  0.87240  0.39470  Biso   1.000  H
  H62      1.0000 0.06850  0.12760  0.89470  Biso   1.000  H
  H63      1.0000 0.56850  0.37240  0.39470  Biso   1.000  H
  H64      1.0000 0.56850  0.62760  0.89470  Biso   1.000  H
  C49      1.0000 0.09960  0.77920  0.26730  Biso   1.000  C
  C50      1.0000 0.09960  0.22080  0.76730  Biso   1.000  C
  C51      1.0000 0.59960  0.27920  0.26730  Biso   1.000  C
  C52      1.0000 0.59960  0.72080  0.76730  Biso   1.000  C
  C53      1.0000 0.02850  0.66370  0.10120  Biso   1.000  C
  C54      1.0000 0.02850  0.33630  0.60120  Biso   1.000  C
  C55      1.0000 0.52850  0.16370  0.10120  Biso   1.000  C
  C56      1.0000 0.52850  0.83630  0.60120  Biso   1.000  C
  H65      1.0000 0.99210  0.60600  0.07000  Biso   1.000  H
  H66      1.0000 0.99210  0.39400  0.57000  Biso   1.000  H
  H67      1.0000 0.49210  0.10600  0.07000  Biso   1.000  H
  H68      1.0000 0.49210  0.89400  0.57000  Biso   1.000  H
  C57      1.0000 0.06480  0.71950  0.02500  Biso   1.000  C
  C58      1.0000 0.06480  0.28050  0.52500  Biso   1.000  C
  C59      1.0000 0.56480  0.21950  0.02500  Biso   1.000  C
  C60      1.0000 0.56480  0.78050  0.52500  Biso   1.000  C
  H69      1.0000 0.05240  0.70170  0.93910  Biso   1.000  H
  H70      1.0000 0.05240  0.29830  0.43910  Biso   1.000  H
  H71      1.0000 0.55240  0.20170  0.93910  Biso   1.000  H
  H72      1.0000 0.55240  0.79830  0.43910  Biso   1.000  H
  C61      1.0000 0.11960  0.80190  0.07320  Biso   1.000  C
  C62      1.0000 0.11960  0.19810  0.57320  Biso   1.000  C
  C63      1.0000 0.61960  0.30190  0.07320  Biso   1.000  C
  C64      1.0000 0.61960  0.69810  0.57320  Biso   1.000  C
  H73      1.0000 0.14630  0.83860  0.01990  Biso   1.000  H
  H74      1.0000 0.14630  0.16140  0.51990  Biso   1.000  H
  H75      1.0000 0.64630  0.33860  0.01990  Biso   1.000  H
  H76      1.0000 0.64630  0.66140  0.51990  Biso   1.000  H
  C65      1.0000 0.04650  0.69380  0.22610  Biso   1.000  C
  C66      1.0000 0.04650  0.30620  0.72610  Biso   1.000  C
  C67      1.0000 0.54650  0.19380  0.22610  Biso   1.000  C
  C68      1.0000 0.54650  0.80620  0.72610  Biso   1.000  C
  H77      1.0000 0.02290  0.65650  0.28200  Biso   1.000  H
  H78      1.0000 0.02290  0.34350  0.78200  Biso   1.000  H
  H79      1.0000 0.52290  0.15650  0.28200  Biso   1.000  H
  H80      1.0000 0.52290  0.84350  0.78200  Biso   1.000  H
