data_image0
_cell_length_a       9.3027
_cell_length_b       12.09
_cell_length_c       8.8738
_cell_angle_alpha    90
_cell_angle_beta     105.927
_cell_angle_gamma    90

_symmetry_space_group_name_H-M    "P 1"
_symmetry_int_tables_number       1

loop_
  _symmetry_equiv_pos_as_xyz
  'x, y, z'

loop_
  _atom_site_label
  _atom_site_occupancy
  _atom_site_fract_x
  _atom_site_fract_y
  _atom_site_fract_z
  _atom_site_thermal_displace_type
  _atom_site_B_iso_or_equiv
  _atom_site_type_symbol
  C1       1.0000 0.37960  0.82370  0.85350  Biso   1.000  C
  C2       1.0000 0.62040  0.32370  0.64650  Biso   1.000  C
  C3       1.0000 0.62040  0.17630  0.14650  Biso   1.000  C
  C4       1.0000 0.37960  0.67630  0.35350  Biso   1.000  C
  H1       1.0000 0.48150  0.82160  0.91680  Biso   1.000  H
  H2       1.0000 0.51850  0.32160  0.58320  Biso   1.000  H
  H3       1.0000 0.51850  0.17840  0.08320  Biso   1.000  H
  H4       1.0000 0.48150  0.67840  0.41680  Biso   1.000  H
  H5       1.0000 0.36950  0.87830  0.77270  Biso   1.000  H
  H6       1.0000 0.63050  0.37830  0.72730  Biso   1.000  H
  H7       1.0000 0.63050  0.12170  0.22730  Biso   1.000  H
  H8       1.0000 0.36950  0.62170  0.27270  Biso   1.000  H
  H9       1.0000 0.35200  0.75250  0.80670  Biso   1.000  H
  H10      1.0000 0.64800  0.25250  0.69330  Biso   1.000  H
  H11      1.0000 0.64800  0.24750  0.19330  Biso   1.000  H
  H12      1.0000 0.35200  0.74750  0.30670  Biso   1.000  H
  C5       1.0000 0.27970  0.85290  0.95370  Biso   1.000  C
  C6       1.0000 0.72030  0.35290  0.54630  Biso   1.000  C
  C7       1.0000 0.72030  0.14710  0.04630  Biso   1.000  C
  C8       1.0000 0.27970  0.64710  0.45370  Biso   1.000  C
  C9       1.0000 0.17400  0.77510  0.96750  Biso   1.000  C
  C10      1.0000 0.82600  0.27510  0.53250  Biso   1.000  C
  C11      1.0000 0.82600  0.22490  0.03250  Biso   1.000  C
  C12      1.0000 0.17400  0.72490  0.46750  Biso   1.000  C
  H13      1.0000 0.16770  0.70760  0.91570  Biso   1.000  H
  H14      1.0000 0.83230  0.20760  0.58430  Biso   1.000  H
  H15      1.0000 0.83230  0.29240  0.08430  Biso   1.000  H
  H16      1.0000 0.16770  0.79240  0.41570  Biso   1.000  H
  N1       1.0000 0.07780  0.79810  0.05870  Biso   1.000  N
  N2       1.0000 0.92220  0.29810  0.44130  Biso   1.000  N
  N3       1.0000 0.92220  0.20190  0.94130  Biso   1.000  N
  N4       1.0000 0.07780  0.70190  0.55870  Biso   1.000  N
  C13      1.0000 0.08720  0.89900  0.13610  Biso   1.000  C
  C14      1.0000 0.91280  0.39900  0.36390  Biso   1.000  C
  C15      1.0000 0.91280  0.10100  0.86390  Biso   1.000  C
  C16      1.0000 0.08720  0.60100  0.63610  Biso   1.000  C
  H17      1.0000 0.02280  0.91440  0.19710  Biso   1.000  H
  H18      1.0000 0.97720  0.41440  0.30290  Biso   1.000  H
  H19      1.0000 0.97720  0.08560  0.80290  Biso   1.000  H
  H20      1.0000 0.02280  0.58560  0.69710  Biso   1.000  H
  C17      1.0000 0.19290  0.97680  0.12220  Biso   1.000  C
  C18      1.0000 0.80710  0.47680  0.37780  Biso   1.000  C
  C19      1.0000 0.80710  0.02320  0.87780  Biso   1.000  C
  C20      1.0000 0.19290  0.52320  0.62220  Biso   1.000  C
  H21      1.0000 0.19920  0.04420  0.17400  Biso   1.000  H
  H22      1.0000 0.80080  0.54420  0.32600  Biso   1.000  H
  H23      1.0000 0.80080  0.95580  0.82600  Biso   1.000  H
  H24      1.0000 0.19920  0.45580  0.67400  Biso   1.000  H
  C21      1.0000 0.28910  0.95370  0.03100  Biso   1.000  C
  C22      1.0000 0.71090  0.45370  0.46900  Biso   1.000  C
  C23      1.0000 0.71090  0.04630  0.96900  Biso   1.000  C
  C24      1.0000 0.28910  0.54630  0.53100  Biso   1.000  C
  H25      1.0000 0.35990  0.00570  0.02180  Biso   1.000  H
  H26      1.0000 0.64010  0.50570  0.47820  Biso   1.000  H
  H27      1.0000 0.64010  0.99430  0.97820  Biso   1.000  H
  H28      1.0000 0.35990  0.49430  0.52180  Biso   1.000  H
  C25      1.0000 0.72740  0.79960  0.24810  Biso   1.000  C
  C26      1.0000 0.27260  0.29960  0.25190  Biso   1.000  C
  C27      1.0000 0.27260  0.20040  0.75190  Biso   1.000  C
  C28      1.0000 0.72740  0.70040  0.74810  Biso   1.000  C
  Cu1      1.0000 0.92318  0.68136  0.07839  Biso   1.000  Cu
  Cu2      1.0000 0.07682  0.18136  0.42161  Biso   1.000  Cu
  Cu3      1.0000 0.07682  0.31864  0.92161  Biso   1.000  Cu
  Cu4      1.0000 0.92318  0.81864  0.57839  Biso   1.000  Cu
  Cu5      1.0000 0.64487  0.88478  0.37450  Biso   1.000  Cu
  Cu6      1.0000 0.35513  0.38478  0.12550  Biso   1.000  Cu
  Cu7      1.0000 0.35513  0.11522  0.62550  Biso   1.000  Cu
  Cu8      1.0000 0.64487  0.61522  0.87450  Biso   1.000  Cu
  N5       1.0000 0.79070  0.75080  0.17680  Biso   1.000  N
  N6       1.0000 0.20930  0.25080  0.32320  Biso   1.000  N
  N7       1.0000 0.20930  0.24920  0.82320  Biso   1.000  N
  N8       1.0000 0.79070  0.74920  0.67680  Biso   1.000  N
  N9       1.0000 0.98090  0.54200  0.01910  Biso   1.000  N
  N10      1.0000 0.01910  0.04200  0.48090  Biso   1.000  N
  N11      1.0000 0.01910  0.45800  0.98090  Biso   1.000  N
  N12      1.0000 0.98090  0.95800  0.51910  Biso   1.000  N
  N13      1.0000 0.53470  0.97310  0.46970  Biso   1.000  N
  N14      1.0000 0.46530  0.47310  0.03030  Biso   1.000  N
  N15      1.0000 0.46530  0.02690  0.53030  Biso   1.000  N
  N16      1.0000 0.53470  0.52690  0.96970  Biso   1.000  N
