data_image0
_cell_length_a       9.3017
_cell_length_b       12.4273
_cell_length_c       16.0505
_cell_angle_alpha    90
_cell_angle_beta     91.688
_cell_angle_gamma    90

_symmetry_space_group_name_H-M    "P 1"
_symmetry_int_tables_number       1

loop_
  _symmetry_equiv_pos_as_xyz
  'x, y, z'

loop_
  _atom_site_label
  _atom_site_occupancy
  _atom_site_fract_x
  _atom_site_fract_y
  _atom_site_fract_z
  _atom_site_thermal_displace_type
  _atom_site_B_iso_or_equiv
  _atom_site_type_symbol
  Cu1      1.0000 0.33474  0.42493  0.07494  Biso   1.000  Cu
  Cu2      1.0000 0.16526  0.92493  0.42506  Biso   1.000  Cu
  Cu3      1.0000 0.66526  0.57507  0.92506  Biso   1.000  Cu
  Cu4      1.0000 0.83474  0.07507  0.57494  Biso   1.000  Cu
  Cu5      1.0000 0.83502  0.52533  0.10848  Biso   1.000  Cu
  Cu6      1.0000 0.66498  0.02533  0.39152  Biso   1.000  Cu
  Cu7      1.0000 0.16498  0.47467  0.89152  Biso   1.000  Cu
  Cu8      1.0000 0.33502  0.97467  0.60848  Biso   1.000  Cu
  N1       1.0000 0.51660  0.49805  0.10149  Biso   1.000  N
  N2       1.0000 0.98340  0.99805  0.39851  Biso   1.000  N
  N3       1.0000 0.48340  0.50195  0.89851  Biso   1.000  N
  N4       1.0000 0.01660  0.00195  0.60149  Biso   1.000  N
  N5       1.0000 0.03160  0.50576  0.10622  Biso   1.000  N
  N6       1.0000 0.46840  0.00576  0.39378  Biso   1.000  N
  N7       1.0000 0.96840  0.49424  0.89378  Biso   1.000  N
  N8       1.0000 0.53160  0.99424  0.60622  Biso   1.000  N
  P1       1.0000 0.38039  0.25044  0.04376  Biso   1.000  P
  P2       1.0000 0.11961  0.75044  0.45624  Biso   1.000  P
  P3       1.0000 0.61961  0.74956  0.95624  Biso   1.000  P
  P4       1.0000 0.88039  0.24956  0.54376  Biso   1.000  P
  C1       1.0000 0.56920  0.21204  0.05600  Biso   1.000  C
  C2       1.0000 0.93080  0.71204  0.44400  Biso   1.000  C
  C3       1.0000 0.43080  0.78796  0.94400  Biso   1.000  C
  C4       1.0000 0.06920  0.28796  0.55600  Biso   1.000  C
  C5       1.0000 0.86140  0.17110  0.07706  Biso   1.000  C
  C6       1.0000 0.63860  0.67110  0.42294  Biso   1.000  C
  C7       1.0000 0.13860  0.82890  0.92294  Biso   1.000  C
  C8       1.0000 0.36140  0.32890  0.57706  Biso   1.000  C
  H1       1.0000 0.95930  0.15710  0.08380  Biso   1.000  H
  H2       1.0000 0.54070  0.65710  0.41620  Biso   1.000  H
  H3       1.0000 0.04070  0.84290  0.91620  Biso   1.000  H
  H4       1.0000 0.45930  0.34290  0.58380  Biso   1.000  H
  C9       1.0000 0.61700  0.12850  0.10737  Biso   1.000  C
  C10      1.0000 0.88300  0.62850  0.39263  Biso   1.000  C
  C11      1.0000 0.38300  0.87150  0.89263  Biso   1.000  C
  C12      1.0000 0.11700  0.37150  0.60737  Biso   1.000  C
  H5       1.0000 0.55120  0.08570  0.13470  Biso   1.000  H
  H6       1.0000 0.94880  0.58570  0.36530  Biso   1.000  H
  H7       1.0000 0.44880  0.91430  0.86530  Biso   1.000  H
  H8       1.0000 0.05120  0.41430  0.63470  Biso   1.000  H
  C13      1.0000 0.66950  0.27470  0.01589  Biso   1.000  C
  C14      1.0000 0.83050  0.77470  0.48411  Biso   1.000  C
  C15      1.0000 0.33050  0.72530  0.98411  Biso   1.000  C
  C16      1.0000 0.16950  0.22530  0.51589  Biso   1.000  C
  H9       1.0000 0.63870  0.33120  0.98180  Biso   1.000  H
  H10      1.0000 0.86130  0.83120  0.51820  Biso   1.000  H
  H11      1.0000 0.36130  0.66880  0.01820  Biso   1.000  H
  H12      1.0000 0.13870  0.16880  0.48180  Biso   1.000  H
  C17      1.0000 0.81470  0.25370  0.02640  Biso   1.000  C
  C18      1.0000 0.68530  0.75370  0.47360  Biso   1.000  C
  C19      1.0000 0.18530  0.74630  0.97360  Biso   1.000  C
  C20      1.0000 0.31470  0.24630  0.52640  Biso   1.000  C
  H13      1.0000 0.88110  0.29580  0.99900  Biso   1.000  H
  H14      1.0000 0.61890  0.79580  0.50100  Biso   1.000  H
  H15      1.0000 0.11890  0.70420  0.00100  Biso   1.000  H
  H16      1.0000 0.38110  0.20420  0.49900  Biso   1.000  H
  C21      1.0000 0.76380  0.10920  0.11767  Biso   1.000  C
  C22      1.0000 0.73620  0.60920  0.38233  Biso   1.000  C
  C23      1.0000 0.23620  0.89080  0.88233  Biso   1.000  C
  C24      1.0000 0.26380  0.39080  0.61767  Biso   1.000  C
  H17      1.0000 0.79590  0.05370  0.15240  Biso   1.000  H
  H18      1.0000 0.70410  0.55370  0.34760  Biso   1.000  H
  H19      1.0000 0.20410  0.94630  0.84760  Biso   1.000  H
  H20      1.0000 0.29590  0.44630  0.65240  Biso   1.000  H
  C25      1.0000 0.28410  0.15443  0.10702  Biso   1.000  C
  C26      1.0000 0.21590  0.65443  0.39298  Biso   1.000  C
  C27      1.0000 0.71590  0.84557  0.89298  Biso   1.000  C
  C28      1.0000 0.78410  0.34557  0.60702  Biso   1.000  C
  C29      1.0000 0.18250  0.98000  0.13129  Biso   1.000  C
  C30      1.0000 0.31750  0.48000  0.36871  Biso   1.000  C
  C31      1.0000 0.81750  0.02000  0.86871  Biso   1.000  C
  C32      1.0000 0.68250  0.52000  0.63129  Biso   1.000  C
  H21      1.0000 0.16390  0.91010  0.11320  Biso   1.000  H
  H22      1.0000 0.33610  0.41010  0.38680  Biso   1.000  H
  H23      1.0000 0.83610  0.08990  0.88680  Biso   1.000  H
  H24      1.0000 0.66390  0.58990  0.61320  Biso   1.000  H
  C33      1.0000 0.16430  0.11590  0.23440  Biso   1.000  C
  C34      1.0000 0.33570  0.61590  0.26560  Biso   1.000  C
  C35      1.0000 0.83570  0.88410  0.76560  Biso   1.000  C
  C36      1.0000 0.66430  0.38410  0.73440  Biso   1.000  C
  H25      1.0000 0.13400  0.13810  0.28640  Biso   1.000  H
  H26      1.0000 0.36600  0.63810  0.21360  Biso   1.000  H
  H27      1.0000 0.86600  0.86190  0.71360  Biso   1.000  H
  H28      1.0000 0.63400  0.36190  0.78640  Biso   1.000  H
  C37      1.0000 0.23730  0.18680  0.18405  Biso   1.000  C
  C38      1.0000 0.26270  0.68680  0.31595  Biso   1.000  C
  C39      1.0000 0.76270  0.81320  0.81595  Biso   1.000  C
  C40      1.0000 0.73730  0.31320  0.68405  Biso   1.000  C
  H29      1.0000 0.25490  0.25680  0.20220  Biso   1.000  H
  H30      1.0000 0.24510  0.75680  0.29780  Biso   1.000  H
  H31      1.0000 0.74510  0.74320  0.79780  Biso   1.000  H
  H32      1.0000 0.75490  0.24320  0.70220  Biso   1.000  H
  C41      1.0000 0.13710  0.01320  0.20745  Biso   1.000  C
  C42      1.0000 0.36290  0.51320  0.29255  Biso   1.000  C
  C43      1.0000 0.86290  0.98680  0.79255  Biso   1.000  C
  C44      1.0000 0.63710  0.48680  0.70745  Biso   1.000  C
  H33      1.0000 0.08760  0.96580  0.24100  Biso   1.000  H
  H34      1.0000 0.41240  0.46580  0.25900  Biso   1.000  H
  H35      1.0000 0.91240  0.03420  0.75900  Biso   1.000  H
  H36      1.0000 0.58760  0.53420  0.74100  Biso   1.000  H
  C45      1.0000 0.25620  0.05060  0.08117  Biso   1.000  C
  C46      1.0000 0.24380  0.55060  0.41883  Biso   1.000  C
  C47      1.0000 0.74380  0.94940  0.91883  Biso   1.000  C
  C48      1.0000 0.75620  0.44940  0.58117  Biso   1.000  C
  H37      1.0000 0.28720  0.02760  0.02960  Biso   1.000  H
  H38      1.0000 0.21280  0.52760  0.47040  Biso   1.000  H
  H39      1.0000 0.71280  0.97240  0.97040  Biso   1.000  H
  H40      1.0000 0.78720  0.47240  0.52960  Biso   1.000  H
  C49      1.0000 0.32740  0.21430  0.93686  Biso   1.000  C
  C50      1.0000 0.17260  0.71430  0.56314  Biso   1.000  C
  C51      1.0000 0.67260  0.78570  0.06314  Biso   1.000  C
  C52      1.0000 0.82740  0.28570  0.43686  Biso   1.000  C
  C53      1.0000 0.18590  0.23500  0.91201  Biso   1.000  C
  C54      1.0000 0.31410  0.73500  0.58799  Biso   1.000  C
  C55      1.0000 0.81410  0.76500  0.08799  Biso   1.000  C
  C56      1.0000 0.68590  0.26500  0.41201  Biso   1.000  C
  H41      1.0000 0.12180  0.26020  0.95090  Biso   1.000  H
  H42      1.0000 0.37820  0.76020  0.54910  Biso   1.000  H
  H43      1.0000 0.87820  0.73980  0.04910  Biso   1.000  H
  H44      1.0000 0.62180  0.23980  0.45090  Biso   1.000  H
  C57      1.0000 0.13870  0.21890  0.83107  Biso   1.000  C
  C58      1.0000 0.36130  0.71890  0.66893  Biso   1.000  C
  C59      1.0000 0.86130  0.78110  0.16893  Biso   1.000  C
  C60      1.0000 0.63870  0.28110  0.33107  Biso   1.000  C
  H45      1.0000 0.04330  0.23240  0.81550  Biso   1.000  H
  H46      1.0000 0.45670  0.73240  0.68450  Biso   1.000  H
  H47      1.0000 0.95670  0.76760  0.18450  Biso   1.000  H
  H48      1.0000 0.54330  0.26760  0.31550  Biso   1.000  H
  C61      1.0000 0.23320  0.18280  0.77345  Biso   1.000  C
  C62      1.0000 0.26680  0.68280  0.72655  Biso   1.000  C
  C63      1.0000 0.76680  0.81720  0.22655  Biso   1.000  C
  C64      1.0000 0.73320  0.31720  0.27345  Biso   1.000  C
  H49      1.0000 0.20240  0.17380  0.71820  Biso   1.000  H
  H50      1.0000 0.29760  0.67380  0.78180  Biso   1.000  H
  H51      1.0000 0.79760  0.82620  0.28180  Biso   1.000  H
  H52      1.0000 0.70240  0.32620  0.21820  Biso   1.000  H
  C65      1.0000 0.37320  0.15980  0.79681  Biso   1.000  C
  C66      1.0000 0.12680  0.65980  0.70319  Biso   1.000  C
  C67      1.0000 0.62680  0.84020  0.20319  Biso   1.000  C
  C68      1.0000 0.87320  0.34020  0.29681  Biso   1.000  C
  H53      1.0000 0.43610  0.13320  0.75780  Biso   1.000  H
  H54      1.0000 0.06390  0.63320  0.74220  Biso   1.000  H
  H55      1.0000 0.56390  0.86680  0.24220  Biso   1.000  H
  H56      1.0000 0.93610  0.36680  0.25780  Biso   1.000  H
  C69      1.0000 0.42110  0.17630  0.87881  Biso   1.000  C
  C70      1.0000 0.07890  0.67630  0.62119  Biso   1.000  C
  C71      1.0000 0.57890  0.82370  0.12119  Biso   1.000  C
  C72      1.0000 0.92110  0.32370  0.37881  Biso   1.000  C
  H57      1.0000 0.51620  0.16160  0.89440  Biso   1.000  H
  H58      1.0000 0.98380  0.66160  0.60560  Biso   1.000  H
  H59      1.0000 0.48380  0.83840  0.10560  Biso   1.000  H
  H60      1.0000 0.01620  0.33840  0.39440  Biso   1.000  H
  C73      1.0000 0.63670  0.51618  0.10742  Biso   1.000  C
  C74      1.0000 0.86330  0.01618  0.39258  Biso   1.000  C
  C75      1.0000 0.36330  0.48382  0.89258  Biso   1.000  C
  C76      1.0000 0.13670  0.98382  0.60742  Biso   1.000  C
  C77      1.0000 0.14770  0.47983  0.09471  Biso   1.000  C
  C78      1.0000 0.35230  0.97983  0.40529  Biso   1.000  C
  C79      1.0000 0.85230  0.52017  0.90529  Biso   1.000  C
  C80      1.0000 0.64770  0.02017  0.59471  Biso   1.000  C
