data_image0
_cell_length_a       9.9408
_cell_length_b       7.60946
_cell_length_c       7.63997
_cell_angle_alpha    98.9803
_cell_angle_beta     96.2793
_cell_angle_gamma    108.873

_symmetry_space_group_name_H-M    "P 1"
_symmetry_int_tables_number       1

loop_
  _symmetry_equiv_pos_as_xyz
  'x, y, z'

loop_
  _atom_site_label
  _atom_site_occupancy
  _atom_site_fract_x
  _atom_site_fract_y
  _atom_site_fract_z
  _atom_site_thermal_displace_type
  _atom_site_B_iso_or_equiv
  _atom_site_type_symbol
  Cu1      1.0000 0.37310  0.99680  0.40470  Biso   1.000  Cu
  Cu2      1.0000 0.62690  0.00320  0.59530  Biso   1.000  Cu
  C1       1.0000 0.88200  0.65900  0.47200  Biso   1.000  C
  C2       1.0000 0.11800  0.34100  0.52800  Biso   1.000  C
  H1       1.0000 0.78900  0.59600  0.48800  Biso   1.000  H
  H2       1.0000 0.21100  0.40400  0.51200  Biso   1.000  H
  C3       1.0000 0.97500  0.78600  0.60700  Biso   1.000  C
  C4       1.0000 0.02500  0.21400  0.39300  Biso   1.000  C
  H3       1.0000 0.94800  0.80800  0.70800  Biso   1.000  H
  H4       1.0000 0.05200  0.19200  0.29200  Biso   1.000  H
  C5       1.0000 0.11100  0.88200  0.59100  Biso   1.000  C
  C6       1.0000 0.88900  0.11800  0.40900  Biso   1.000  C
  H5       1.0000 0.17300  0.97100  0.68900  Biso   1.000  H
  H6       1.0000 0.82700  0.02900  0.31100  Biso   1.000  H
  N1       1.0000 0.15800  0.84800  0.43400  Biso   1.000  N
  N2       1.0000 0.84200  0.15200  0.56600  Biso   1.000  N
  C7       1.0000 0.06300  0.71700  0.29000  Biso   1.000  C
  C8       1.0000 0.93700  0.28300  0.71000  Biso   1.000  C
  H7       1.0000 0.09400  0.69300  0.18100  Biso   1.000  H
  H8       1.0000 0.90600  0.30700  0.81900  Biso   1.000  H
  C9       1.0000 0.92300  0.62100  0.30900  Biso   1.000  C
  C10      1.0000 0.07700  0.37900  0.69100  Biso   1.000  C
  C11      1.0000 0.81500  0.48400  0.15500  Biso   1.000  C
  C12      1.0000 0.18500  0.51600  0.84500  Biso   1.000  C
  H9       1.0000 0.78300  0.55400  0.07200  Biso   1.000  H
  H10      1.0000 0.21700  0.44600  0.92800  Biso   1.000  H
  H11      1.0000 0.85700  0.40000  0.09200  Biso   1.000  H
  H12      1.0000 0.14300  0.60000  0.90800  Biso   1.000  H
  N3       1.0000 0.68200  0.36100  0.21000  Biso   1.000  N
  N4       1.0000 0.31800  0.63900  0.79000  Biso   1.000  N
  H13      1.0000 0.62900  0.43000  0.25000  Biso   1.000  H
  H14      1.0000 0.37100  0.57000  0.75000  Biso   1.000  H
  H15      1.0000 0.70600  0.30300  0.29700  Biso   1.000  H
  H16      1.0000 0.29400  0.69700  0.70300  Biso   1.000  H
  Cu3      1.0000 0.44260  0.81720  0.04480  Biso   1.000  Cu
  Cu4      1.0000 0.55740  0.18280  0.95520  Biso   1.000  Cu
  I1       1.0000 0.48070  0.71170  0.34990  Biso   1.000  I
  I2       1.0000 0.51930  0.28830  0.65010  Biso   1.000  I
  I3       1.0000 0.31680  0.09160  0.08980  Biso   1.000  I
  I4       1.0000 0.68320  0.90840  0.91020  Biso   1.000  I
