data_image0
_cell_length_a       8.3526
_cell_length_b       13.8271
_cell_length_c       7.27148
_cell_angle_alpha    90
_cell_angle_beta     98.5544
_cell_angle_gamma    90

_symmetry_space_group_name_H-M    "P 1"
_symmetry_int_tables_number       1

loop_
  _symmetry_equiv_pos_as_xyz
  'x, y, z'

loop_
  _atom_site_label
  _atom_site_occupancy
  _atom_site_fract_x
  _atom_site_fract_y
  _atom_site_fract_z
  _atom_site_thermal_displace_type
  _atom_site_B_iso_or_equiv
  _atom_site_type_symbol
  I1       1.0000 0.02596  0.35879  0.13464  Biso   1.000  I
  I2       1.0000 0.97404  0.85879  0.36536  Biso   1.000  I
  I3       1.0000 0.97404  0.64121  0.86536  Biso   1.000  I
  I4       1.0000 0.02596  0.14121  0.63464  Biso   1.000  I
  Cu1      1.0000 0.04150  0.54821  0.19260  Biso   1.000  Cu
  Cu2      1.0000 0.95850  0.04821  0.30740  Biso   1.000  Cu
  Cu3      1.0000 0.95850  0.45179  0.80740  Biso   1.000  Cu
  Cu4      1.0000 0.04150  0.95179  0.69260  Biso   1.000  Cu
  N1       1.0000 0.27040  0.59100  0.33350  Biso   1.000  N
  N2       1.0000 0.72960  0.09100  0.16650  Biso   1.000  N
  N3       1.0000 0.72960  0.40900  0.66650  Biso   1.000  N
  N4       1.0000 0.27040  0.90900  0.83350  Biso   1.000  N
  N5       1.0000 0.84850  0.59610  0.34330  Biso   1.000  N
  N6       1.0000 0.15150  0.09610  0.15670  Biso   1.000  N
  N7       1.0000 0.15150  0.40390  0.65670  Biso   1.000  N
  N8       1.0000 0.84850  0.90390  0.84330  Biso   1.000  N
  C1       1.0000 0.39600  0.56550  0.25030  Biso   1.000  C
  C2       1.0000 0.60400  0.06550  0.24970  Biso   1.000  C
  C3       1.0000 0.60400  0.43450  0.74970  Biso   1.000  C
  C4       1.0000 0.39600  0.93450  0.75030  Biso   1.000  C
  C5       1.0000 0.54910  0.59710  0.32100  Biso   1.000  C
  C6       1.0000 0.45090  0.09710  0.17900  Biso   1.000  C
  C7       1.0000 0.45090  0.40290  0.67900  Biso   1.000  C
  C8       1.0000 0.54910  0.90290  0.82100  Biso   1.000  C
  C9       1.0000 0.56740  0.65350  0.48020  Biso   1.000  C
  C10      1.0000 0.43260  0.15350  0.01980  Biso   1.000  C
  C11      1.0000 0.43260  0.34650  0.51980  Biso   1.000  C
  C12      1.0000 0.56740  0.84650  0.98020  Biso   1.000  C
  C13      1.0000 0.43430  0.67760  0.56260  Biso   1.000  C
  C14      1.0000 0.56570  0.17760  0.93740  Biso   1.000  C
  C15      1.0000 0.56570  0.32240  0.43740  Biso   1.000  C
  C16      1.0000 0.43430  0.82240  0.06260  Biso   1.000  C
  C17      1.0000 0.28410  0.64500  0.48620  Biso   1.000  C
  C18      1.0000 0.71590  0.14500  0.01380  Biso   1.000  C
  C19      1.0000 0.71590  0.35500  0.51380  Biso   1.000  C
  C20      1.0000 0.28410  0.85500  0.98620  Biso   1.000  C
  C21      1.0000 0.69250  0.56750  0.23210  Biso   1.000  C
  C22      1.0000 0.30750  0.06750  0.26790  Biso   1.000  C
  C23      1.0000 0.30750  0.43250  0.76790  Biso   1.000  C
  C24      1.0000 0.69250  0.93250  0.73210  Biso   1.000  C
  H1       1.0000 0.37750  0.51980  0.12690  Biso   1.000  H
  H2       1.0000 0.62250  0.01980  0.37310  Biso   1.000  H
  H3       1.0000 0.62250  0.48020  0.87310  Biso   1.000  H
  H4       1.0000 0.37750  0.98020  0.62690  Biso   1.000  H
  H5       1.0000 0.87620  0.66710  0.36360  Biso   1.000  H
  H6       1.0000 0.12380  0.16710  0.13640  Biso   1.000  H
  H7       1.0000 0.12380  0.33290  0.63640  Biso   1.000  H
  H8       1.0000 0.87620  0.83290  0.86360  Biso   1.000  H
  H9       1.0000 0.68720  0.67880  0.54050  Biso   1.000  H
  H10      1.0000 0.31280  0.17880  0.95950  Biso   1.000  H
  H11      1.0000 0.31280  0.32120  0.45950  Biso   1.000  H
  H12      1.0000 0.68720  0.82120  0.04050  Biso   1.000  H
  H13      1.0000 0.44850  0.72210  0.68750  Biso   1.000  H
  H14      1.0000 0.55150  0.22210  0.81250  Biso   1.000  H
  H15      1.0000 0.55150  0.27790  0.31250  Biso   1.000  H
  H16      1.0000 0.44850  0.77790  0.18750  Biso   1.000  H
  H17      1.0000 0.17780  0.66320  0.54950  Biso   1.000  H
  H18      1.0000 0.82220  0.16320  0.95050  Biso   1.000  H
  H19      1.0000 0.82220  0.33680  0.45050  Biso   1.000  H
  H20      1.0000 0.17780  0.83680  0.04950  Biso   1.000  H
  H21      1.0000 0.68310  0.60160  0.09580  Biso   1.000  H
  H22      1.0000 0.31690  0.10160  0.40420  Biso   1.000  H
  H23      1.0000 0.31690  0.39840  0.90420  Biso   1.000  H
  H24      1.0000 0.68310  0.89840  0.59580  Biso   1.000  H
  H25      1.0000 0.84080  0.56430  0.46750  Biso   1.000  H
  H26      1.0000 0.15920  0.06430  0.03250  Biso   1.000  H
  H27      1.0000 0.15920  0.43570  0.53250  Biso   1.000  H
  H28      1.0000 0.84080  0.93570  0.96750  Biso   1.000  H
  H29      1.0000 0.69080  0.48920  0.21590  Biso   1.000  H
  H30      1.0000 0.30920  0.98920  0.28410  Biso   1.000  H
  H31      1.0000 0.30920  0.51080  0.78410  Biso   1.000  H
  H32      1.0000 0.69080  0.01080  0.71590  Biso   1.000  H
