data_image0
_cell_length_a       12.0676
_cell_length_b       14.0475
_cell_length_c       17.9805
_cell_angle_alpha    109.901
_cell_angle_beta     90.163
_cell_angle_gamma    103.343

_symmetry_space_group_name_H-M    "P 1"
_symmetry_int_tables_number       1

loop_
  _symmetry_equiv_pos_as_xyz
  'x, y, z'

loop_
  _atom_site_label
  _atom_site_occupancy
  _atom_site_fract_x
  _atom_site_fract_y
  _atom_site_fract_z
  _atom_site_thermal_displace_type
  _atom_site_B_iso_or_equiv
  _atom_site_type_symbol
  Cu1      1.0000 0.52004  0.89330  0.01710  Biso   1.000  Cu
  Cu2      1.0000 0.47996  0.10670  0.98290  Biso   1.000  Cu
  Cu3      1.0000 0.07763  0.10936  0.48533  Biso   1.000  Cu
  Cu4      1.0000 0.92237  0.89064  0.51467  Biso   1.000  Cu
  P1       1.0000 0.65440  0.80910  0.99930  Biso   1.000  P
  P2       1.0000 0.34560  0.19090  0.00070  Biso   1.000  P
  P3       1.0000 0.25690  0.19450  0.50521  Biso   1.000  P
  P4       1.0000 0.74310  0.80550  0.49479  Biso   1.000  P
  O1       1.0000 0.03040  0.93170  0.43440  Biso   1.000  O
  O2       1.0000 0.96960  0.06830  0.56560  Biso   1.000  O
  O3       1.0000 0.05070  0.77140  0.38760  Biso   1.000  O
  O4       1.0000 0.94930  0.22860  0.61240  Biso   1.000  O
  O5       1.0000 0.56640  0.06980  0.06630  Biso   1.000  O
  O6       1.0000 0.43360  0.93020  0.93370  Biso   1.000  O
  O7       1.0000 0.66220  0.23090  0.11560  Biso   1.000  O
  O8       1.0000 0.33780  0.76910  0.88440  Biso   1.000  O
  N1       1.0000 0.40000  0.87310  0.09290  Biso   1.000  N
  N2       1.0000 0.60000  0.12690  0.90710  Biso   1.000  N
  N3       1.0000 0.96940  0.13260  0.40760  Biso   1.000  N
  N4       1.0000 0.03060  0.86740  0.59240  Biso   1.000  N
  C1       1.0000 0.76960  0.85340  0.94510  Biso   1.000  C
  C2       1.0000 0.23040  0.14660  0.05490  Biso   1.000  C
  C3       1.0000 0.79310  0.95910  0.95490  Biso   1.000  C
  C4       1.0000 0.20690  0.04090  0.04510  Biso   1.000  C
  H1       1.0000 0.74950  0.00160  0.98600  Biso   1.000  H
  H2       1.0000 0.25050  0.99840  0.01400  Biso   1.000  H
  C5       1.0000 0.88620  0.00160  0.91590  Biso   1.000  C
  C6       1.0000 0.11380  0.99840  0.08410  Biso   1.000  C
  H3       1.0000 0.90380  0.07190  0.92170  Biso   1.000  H
  H4       1.0000 0.09620  0.92810  0.07830  Biso   1.000  H
  C7       1.0000 0.94670  0.93800  0.87130  Biso   1.000  C
  C8       1.0000 0.05330  0.06200  0.12870  Biso   1.000  C
  H5       1.0000 0.00640  0.96430  0.84560  Biso   1.000  H
  H6       1.0000 0.99360  0.03570  0.15440  Biso   1.000  H
  C9       1.0000 0.92140  0.83220  0.86260  Biso   1.000  C
  C10      1.0000 0.07860  0.16780  0.13740  Biso   1.000  C
  H7       1.0000 0.96500  0.79020  0.83090  Biso   1.000  H
  H8       1.0000 0.03500  0.20980  0.16910  Biso   1.000  H
  C11      1.0000 0.83840  0.78970  0.89750  Biso   1.000  C
  C12      1.0000 0.16160  0.21030  0.10250  Biso   1.000  C
  H9       1.0000 0.82460  0.71940  0.89120  Biso   1.000  H
  H10      1.0000 0.17540  0.28060  0.10880  Biso   1.000  H
  C13      1.0000 0.60700  0.66670  0.94390  Biso   1.000  C
  C14      1.0000 0.39300  0.33330  0.05610  Biso   1.000  C
  C15      1.0000 0.64700  0.59430  0.96150  Biso   1.000  C
  C16      1.0000 0.35300  0.40570  0.03850  Biso   1.000  C
  H11      1.0000 0.70630  0.61610  0.00160  Biso   1.000  H
  H12      1.0000 0.29370  0.38390  0.99840  Biso   1.000  H
  C17      1.0000 0.60500  0.49210  0.92280  Biso   1.000  C
  C18      1.0000 0.39500  0.50790  0.07720  Biso   1.000  C
  H13      1.0000 0.62350  0.44450  0.94320  Biso   1.000  H
  H14      1.0000 0.37650  0.55550  0.05680  Biso   1.000  H
  C19      1.0000 0.53700  0.45640  0.85420  Biso   1.000  C
  C20      1.0000 0.46300  0.54360  0.14580  Biso   1.000  C
  H15      1.0000 0.52010  0.38640  0.82200  Biso   1.000  H
  H16      1.0000 0.47990  0.61360  0.17800  Biso   1.000  H
  C21      1.0000 0.49400  0.52390  0.83450  Biso   1.000  C
  C22      1.0000 0.50600  0.47610  0.16550  Biso   1.000  C
  H17      1.0000 0.44430  0.50030  0.78900  Biso   1.000  H
  H18      1.0000 0.55570  0.49970  0.21100  Biso   1.000  H
  C23      1.0000 0.52350  0.63260  0.88180  Biso   1.000  C
  C24      1.0000 0.47650  0.36740  0.11820  Biso   1.000  C
  H19      1.0000 0.48730  0.67880  0.87090  Biso   1.000  H
  H20      1.0000 0.51270  0.32120  0.12910  Biso   1.000  H
  C25      1.0000 0.72660  0.80930  0.08880  Biso   1.000  C
  C26      1.0000 0.27340  0.19070  0.91120  Biso   1.000  C
  C27      1.0000 0.66850  0.80260  0.15110  Biso   1.000  C
  C28      1.0000 0.33150  0.19740  0.84890  Biso   1.000  C
  H21      1.0000 0.59300  0.80740  0.15060  Biso   1.000  H
  H22      1.0000 0.40700  0.19260  0.84940  Biso   1.000  H
  C29      1.0000 0.71530  0.78900  0.21610  Biso   1.000  C
  C30      1.0000 0.28470  0.21100  0.78390  Biso   1.000  C
  H23      1.0000 0.67070  0.78060  0.25650  Biso   1.000  H
  H24      1.0000 0.32930  0.21940  0.74350  Biso   1.000  H
  C31      1.0000 0.82570  0.78830  0.21950  Biso   1.000  C
  C32      1.0000 0.17430  0.21170  0.78050  Biso   1.000  C
  H25      1.0000 0.85770  0.78010  0.26330  Biso   1.000  H
  H26      1.0000 0.14230  0.21990  0.73670  Biso   1.000  H
  C33      1.0000 0.89200  0.79900  0.16140  Biso   1.000  C
  C34      1.0000 0.10800  0.20100  0.83860  Biso   1.000  C
  H27      1.0000 0.96930  0.80030  0.16530  Biso   1.000  H
  H28      1.0000 0.03070  0.19970  0.83470  Biso   1.000  H
  C35      1.0000 0.84010  0.80810  0.09420  Biso   1.000  C
  C36      1.0000 0.15990  0.19190  0.90580  Biso   1.000  C
  H29      1.0000 0.88390  0.81350  0.05270  Biso   1.000  H
  H30      1.0000 0.11610  0.18650  0.94730  Biso   1.000  H
  C37      1.0000 0.30930  0.93860  0.21160  Biso   1.000  C
  C38      1.0000 0.69070  0.06140  0.78840  Biso   1.000  C
  H31      1.0000 0.30200  0.99690  0.25380  Biso   1.000  H
  H32      1.0000 0.69800  0.00310  0.74620  Biso   1.000  H
  C39      1.0000 0.37900  0.95110  0.15350  Biso   1.000  C
  C40      1.0000 0.62100  0.04890  0.84650  Biso   1.000  C
  H33      1.0000 0.41390  0.01900  0.15690  Biso   1.000  H
  H34      1.0000 0.58610  0.98100  0.84310  Biso   1.000  H
  C41      1.0000 0.34100  0.78110  0.08910  Biso   1.000  C
  C42      1.0000 0.65900  0.21890  0.91090  Biso   1.000  C
  H35      1.0000 0.35010  0.72410  0.04640  Biso   1.000  H
  H36      1.0000 0.64990  0.27590  0.95360  Biso   1.000  H
  C43      1.0000 0.26440  0.76020  0.14420  Biso   1.000  C
  C44      1.0000 0.73560  0.23980  0.85580  Biso   1.000  C
  H37      1.0000 0.22460  0.69210  0.13660  Biso   1.000  H
  H38      1.0000 0.77540  0.30790  0.86340  Biso   1.000  H
  C45      1.0000 0.24980  0.83990  0.20750  Biso   1.000  C
  C46      1.0000 0.75020  0.16010  0.79250  Biso   1.000  C
  C47      1.0000 0.17600  0.81980  0.26860  Biso   1.000  C
  C48      1.0000 0.82400  0.18020  0.73140  Biso   1.000  C
  H39      1.0000 0.14650  0.75010  0.26280  Biso   1.000  H
  H40      1.0000 0.85350  0.24990  0.73720  Biso   1.000  H
  C49      1.0000 0.14710  0.88980  0.33070  Biso   1.000  C
  C50      1.0000 0.85290  0.11020  0.66930  Biso   1.000  C
  H41      1.0000 0.17630  0.96050  0.33960  Biso   1.000  H
  H42      1.0000 0.82370  0.03950  0.66040  Biso   1.000  H
  C51      1.0000 0.07060  0.85880  0.38540  Biso   1.000  C
  C52      1.0000 0.92940  0.14120  0.61460  Biso   1.000  C
  C53      1.0000 0.28370  0.33570  0.56380  Biso   1.000  C
  C54      1.0000 0.71630  0.66430  0.43620  Biso   1.000  C
  C55      1.0000 0.21070  0.36860  0.61640  Biso   1.000  C
  C56      1.0000 0.78930  0.63140  0.38360  Biso   1.000  C
  H43      1.0000 0.14670  0.32070  0.62190  Biso   1.000  H
  H44      1.0000 0.85330  0.67930  0.37810  Biso   1.000  H
  C57      1.0000 0.22900  0.47420  0.66340  Biso   1.000  C
  C58      1.0000 0.77100  0.52580  0.33660  Biso   1.000  C
  H45      1.0000 0.17680  0.49620  0.69930  Biso   1.000  H
  H46      1.0000 0.82320  0.50380  0.30070  Biso   1.000  H
  C59      1.0000 0.32060  0.54280  0.65680  Biso   1.000  C
  C60      1.0000 0.67940  0.45720  0.34320  Biso   1.000  C
  H47      1.0000 0.33190  0.61310  0.68740  Biso   1.000  H
  H48      1.0000 0.66810  0.38690  0.31260  Biso   1.000  H
  C61      1.0000 0.39710  0.51120  0.60630  Biso   1.000  C
  C62      1.0000 0.60290  0.48880  0.39370  Biso   1.000  C
  H49      1.0000 0.46220  0.55990  0.60320  Biso   1.000  H
  H50      1.0000 0.53780  0.44010  0.39680  Biso   1.000  H
  C63      1.0000 0.38160  0.40920  0.55920  Biso   1.000  C
  C64      1.0000 0.61840  0.59080  0.44080  Biso   1.000  C
  H51      1.0000 0.43540  0.38850  0.52440  Biso   1.000  H
  H52      1.0000 0.56460  0.61150  0.47560  Biso   1.000  H
  C65      1.0000 0.32930  0.19480  0.41720  Biso   1.000  C
  C66      1.0000 0.67070  0.80520  0.58280  Biso   1.000  C
  C67      1.0000 0.44070  0.18640  0.40820  Biso   1.000  C
  C68      1.0000 0.55930  0.81360  0.59180  Biso   1.000  C
  H53      1.0000 0.48080  0.17550  0.44760  Biso   1.000  H
  H54      1.0000 0.51920  0.82450  0.55240  Biso   1.000  H
  C69      1.0000 0.49540  0.19420  0.33900  Biso   1.000  C
  C70      1.0000 0.50460  0.80580  0.66100  Biso   1.000  C
  H55      1.0000 0.56930  0.18540  0.33260  Biso   1.000  H
  H56      1.0000 0.43070  0.81460  0.66740  Biso   1.000  H
  C71      1.0000 0.43750  0.21510  0.28140  Biso   1.000  C
  C72      1.0000 0.56250  0.78490  0.71860  Biso   1.000  C
  H57      1.0000 0.47410  0.22450  0.23810  Biso   1.000  H
  H58      1.0000 0.52590  0.77550  0.76190  Biso   1.000  H
  C73      1.0000 0.32450  0.22180  0.28910  Biso   1.000  C
  C74      1.0000 0.67550  0.77820  0.71090  Biso   1.000  C
  H59      1.0000 0.28430  0.23210  0.24940  Biso   1.000  H
  H60      1.0000 0.71570  0.76790  0.75060  Biso   1.000  H
  C75      1.0000 0.27090  0.21310  0.35690  Biso   1.000  C
  C76      1.0000 0.72910  0.78690  0.64310  Biso   1.000  C
  H61      1.0000 0.19610  0.21940  0.36210  Biso   1.000  H
  H62      1.0000 0.80390  0.78060  0.63790  Biso   1.000  H
  C77      1.0000 0.34820  0.14510  0.55620  Biso   1.000  C
  C78      1.0000 0.65180  0.85490  0.44380  Biso   1.000  C
  C79      1.0000 0.44970  0.21280  0.60640  Biso   1.000  C
  C80      1.0000 0.55030  0.78720  0.39360  Biso   1.000  C
  H63      1.0000 0.49730  0.24810  0.57550  Biso   1.000  H
  H64      1.0000 0.50270  0.75190  0.42450  Biso   1.000  H
  H65      1.0000 0.42660  0.26590  0.64960  Biso   1.000  H
  H66      1.0000 0.57340  0.73410  0.35040  Biso   1.000  H
  C81      1.0000 0.51680  0.16520  0.63920  Biso   1.000  C
  C82      1.0000 0.48320  0.83480  0.36080  Biso   1.000  C
  H67      1.0000 0.58790  0.20370  0.66570  Biso   1.000  H
  H68      1.0000 0.41210  0.79630  0.33430  Biso   1.000  H
  C83      1.0000 0.47860  0.06190  0.63260  Biso   1.000  C
  C84      1.0000 0.52140  0.93810  0.36740  Biso   1.000  C
  H69      1.0000 0.52010  0.03480  0.66050  Biso   1.000  H
  H70      1.0000 0.47990  0.96520  0.33950  Biso   1.000  H
  C85      1.0000 0.38180  0.99840  0.58650  Biso   1.000  C
  C86      1.0000 0.61820  0.00160  0.41350  Biso   1.000  C
  H71      1.0000 0.35980  0.92790  0.58000  Biso   1.000  H
  H72      1.0000 0.64020  0.07210  0.42000  Biso   1.000  H
  C87      1.0000 0.31540  0.04300  0.54840  Biso   1.000  C
  C88      1.0000 0.68460  0.95700  0.45160  Biso   1.000  C
  H73      1.0000 0.24820  0.00130  0.51770  Biso   1.000  H
  H74      1.0000 0.75180  0.99870  0.48230  Biso   1.000  H
  C89      1.0000 0.84810  0.06810  0.28960  Biso   1.000  C
  C90      1.0000 0.15190  0.93190  0.71040  Biso   1.000  C
  H75      1.0000 0.80860  0.00980  0.24760  Biso   1.000  H
  H76      1.0000 0.19140  0.99020  0.75240  Biso   1.000  H
  C91      1.0000 0.91050  0.05310  0.34430  Biso   1.000  C
  C92      1.0000 0.08950  0.94690  0.65570  Biso   1.000  C
  H77      1.0000 0.91320  0.98530  0.33840  Biso   1.000  H
  H78      1.0000 0.08680  0.01470  0.66160  Biso   1.000  H
  C93      1.0000 0.96050  0.22660  0.41280  Biso   1.000  C
  C94      1.0000 0.03950  0.77340  0.58720  Biso   1.000  C
  H79      1.0000 0.99840  0.28330  0.45650  Biso   1.000  H
  H80      1.0000 0.00160  0.71670  0.54350  Biso   1.000  H
  C95      1.0000 0.89710  0.24590  0.35610  Biso   1.000  C
  C96      1.0000 0.10290  0.75410  0.64390  Biso   1.000  C
  H81      1.0000 0.89480  0.31400  0.36270  Biso   1.000  H
  H82      1.0000 0.10520  0.68600  0.63730  Biso   1.000  H
  C97      1.0000 0.83920  0.16560  0.29190  Biso   1.000  C
  C98      1.0000 0.16080  0.83440  0.70810  Biso   1.000  C
  C99      1.0000 0.77700  0.18430  0.23240  Biso   1.000  C
  C100     1.0000 0.22300  0.81570  0.76760  Biso   1.000  C
  H83      1.0000 0.79010  0.25360  0.23580  Biso   1.000  H
  H84      1.0000 0.20990  0.74640  0.76420  Biso   1.000  H
  C101     1.0000 0.70080  0.11330  0.17110  Biso   1.000  C
  C102     1.0000 0.29920  0.88670  0.82890  Biso   1.000  C
  H85      1.0000 0.68740  0.04280  0.16420  Biso   1.000  H
  H86      1.0000 0.31260  0.95720  0.83580  Biso   1.000  H
  C103     1.0000 0.63940  0.14370  0.11590  Biso   1.000  C
  C104     1.0000 0.36060  0.85630  0.88410  Biso   1.000  C
