data_image0
_cell_length_a       9.3471
_cell_length_b       14.4575
_cell_length_c       8.0186
_cell_angle_alpha    90
_cell_angle_beta     90.4695
_cell_angle_gamma    90

_symmetry_space_group_name_H-M    "P 1"
_symmetry_int_tables_number       1

loop_
  _symmetry_equiv_pos_as_xyz
  'x, y, z'

loop_
  _atom_site_label
  _atom_site_occupancy
  _atom_site_fract_x
  _atom_site_fract_y
  _atom_site_fract_z
  _atom_site_thermal_displace_type
  _atom_site_B_iso_or_equiv
  _atom_site_type_symbol
  I1       1.0000 0.82753  0.93197  0.85985  Biso   1.000  I
  I2       1.0000 0.67247  0.43197  0.64015  Biso   1.000  I
  I3       1.0000 0.17247  0.06803  0.14015  Biso   1.000  I
  I4       1.0000 0.32753  0.56803  0.35985  Biso   1.000  I
  Cu1      1.0000 0.93520  0.95347  0.15554  Biso   1.000  Cu
  Cu2      1.0000 0.56480  0.45347  0.34446  Biso   1.000  Cu
  Cu3      1.0000 0.06480  0.04653  0.84446  Biso   1.000  Cu
  Cu4      1.0000 0.43520  0.54653  0.65554  Biso   1.000  Cu
  N1       1.0000 0.20060  0.96610  0.69890  Biso   1.000  N
  N2       1.0000 0.29940  0.46610  0.80110  Biso   1.000  N
  N3       1.0000 0.79940  0.03390  0.30110  Biso   1.000  N
  N4       1.0000 0.70060  0.53390  0.19890  Biso   1.000  N
  N5       1.0000 0.00850  0.84640  0.30480  Biso   1.000  N
  N6       1.0000 0.49150  0.34640  0.19520  Biso   1.000  N
  N7       1.0000 0.99150  0.15360  0.69520  Biso   1.000  N
  N8       1.0000 0.50850  0.65360  0.80480  Biso   1.000  N
  C1       1.0000 0.14210  0.92200  0.56790  Biso   1.000  C
  C2       1.0000 0.35790  0.42200  0.93210  Biso   1.000  C
  C3       1.0000 0.85790  0.07800  0.43210  Biso   1.000  C
  C4       1.0000 0.64210  0.57800  0.06790  Biso   1.000  C
  C5       1.0000 0.22120  0.87210  0.45550  Biso   1.000  C
  C6       1.0000 0.27880  0.37210  0.04450  Biso   1.000  C
  C7       1.0000 0.77880  0.12790  0.54450  Biso   1.000  C
  C8       1.0000 0.72120  0.62790  0.95550  Biso   1.000  C
  C9       1.0000 0.36830  0.86810  0.47910  Biso   1.000  C
  C10      1.0000 0.13170  0.36810  0.02090  Biso   1.000  C
  C11      1.0000 0.63170  0.13190  0.52090  Biso   1.000  C
  C12      1.0000 0.86830  0.63190  0.97910  Biso   1.000  C
  C13      1.0000 0.42870  0.91210  0.61580  Biso   1.000  C
  C14      1.0000 0.07130  0.41210  0.88420  Biso   1.000  C
  C15      1.0000 0.57130  0.08790  0.38420  Biso   1.000  C
  C16      1.0000 0.92870  0.58790  0.11580  Biso   1.000  C
  C17      1.0000 0.34270  0.95960  0.72340  Biso   1.000  C
  C18      1.0000 0.15730  0.45960  0.77660  Biso   1.000  C
  C19      1.0000 0.65730  0.04040  0.27660  Biso   1.000  C
  C20      1.0000 0.84270  0.54040  0.22340  Biso   1.000  C
  C21      1.0000 0.14920  0.82230  0.31300  Biso   1.000  C
  C22      1.0000 0.35080  0.32230  0.18700  Biso   1.000  C
  C23      1.0000 0.85080  0.17770  0.68700  Biso   1.000  C
  C24      1.0000 0.64920  0.67770  0.81300  Biso   1.000  C
  H1       1.0000 0.39080  0.99310  0.83180  Biso   1.000  H
  H2       1.0000 0.10920  0.49310  0.66820  Biso   1.000  H
  H3       1.0000 0.60920  0.00690  0.16820  Biso   1.000  H
  H4       1.0000 0.89080  0.50690  0.33180  Biso   1.000  H
  H5       1.0000 0.54370  0.90890  0.63770  Biso   1.000  H
  H6       1.0000 0.95630  0.40890  0.86230  Biso   1.000  H
  H7       1.0000 0.45630  0.09110  0.36230  Biso   1.000  H
  H8       1.0000 0.04370  0.59110  0.13770  Biso   1.000  H
  H9       1.0000 0.43530  0.83080  0.39120  Biso   1.000  H
  H10      1.0000 0.06470  0.33080  0.10880  Biso   1.000  H
  H11      1.0000 0.56470  0.16920  0.60880  Biso   1.000  H
  H12      1.0000 0.93530  0.66920  0.89120  Biso   1.000  H
  H13      1.0000 0.02660  0.92590  0.54970  Biso   1.000  H
  H14      1.0000 0.47340  0.42590  0.95030  Biso   1.000  H
  H15      1.0000 0.97340  0.07410  0.45030  Biso   1.000  H
  H16      1.0000 0.52660  0.57410  0.04970  Biso   1.000  H
  H17      1.0000 0.20110  0.84100  0.19670  Biso   1.000  H
  H18      1.0000 0.29890  0.34100  0.30330  Biso   1.000  H
  H19      1.0000 0.79890  0.15900  0.80330  Biso   1.000  H
  H20      1.0000 0.70110  0.65900  0.69670  Biso   1.000  H
  H21      1.0000 0.15810  0.74790  0.33230  Biso   1.000  H
  H22      1.0000 0.34190  0.24790  0.16770  Biso   1.000  H
  H23      1.0000 0.84190  0.25210  0.66770  Biso   1.000  H
  H24      1.0000 0.65810  0.75210  0.83230  Biso   1.000  H
  H25      1.0000 0.96530  0.79290  0.23990  Biso   1.000  H
  H26      1.0000 0.53470  0.29290  0.26010  Biso   1.000  H
  H27      1.0000 0.03470  0.20710  0.76010  Biso   1.000  H
  H28      1.0000 0.46530  0.70710  0.73990  Biso   1.000  H
  H29      1.0000 0.97340  0.83620  0.42290  Biso   1.000  H
  H30      1.0000 0.52660  0.33620  0.07710  Biso   1.000  H
  H31      1.0000 0.02660  0.16380  0.57710  Biso   1.000  H
  H32      1.0000 0.47340  0.66380  0.92290  Biso   1.000  H
  N9       1.0000 0.98000  0.71000  0.49500  Biso   1.000  N
  N10      1.0000 0.52000  0.21000  0.00500  Biso   1.000  N
  N11      1.0000 0.02000  0.29000  0.50500  Biso   1.000  N
  N12      1.0000 0.48000  0.79000  0.99500  Biso   1.000  N
  C25      1.0000 0.88200  0.75000  0.43190  Biso   1.000  C
  C26      1.0000 0.61800  0.25000  0.06810  Biso   1.000  C
  C27      1.0000 0.11800  0.25000  0.56810  Biso   1.000  C
  C28      1.0000 0.38200  0.75000  0.93190  Biso   1.000  C
  C29      1.0000 0.76430  0.79810  0.34890  Biso   1.000  C
  C30      1.0000 0.73570  0.29810  0.15110  Biso   1.000  C
  C31      1.0000 0.23570  0.20190  0.65110  Biso   1.000  C
  C32      1.0000 0.26430  0.70190  0.84890  Biso   1.000  C
  H33      1.0000 0.77700  0.79500  0.22790  Biso   1.000  H
  H34      1.0000 0.72300  0.29500  0.27210  Biso   1.000  H
  H35      1.0000 0.22300  0.20500  0.77210  Biso   1.000  H
  H36      1.0000 0.27700  0.70500  0.72790  Biso   1.000  H
  H37      1.0000 0.76300  0.86280  0.38500  Biso   1.000  H
  H38      1.0000 0.73700  0.36280  0.11500  Biso   1.000  H
  H39      1.0000 0.23700  0.13720  0.61500  Biso   1.000  H
  H40      1.0000 0.26300  0.63720  0.88500  Biso   1.000  H
  H41      1.0000 0.67400  0.76800  0.37800  Biso   1.000  H
  H42      1.0000 0.82600  0.26800  0.12200  Biso   1.000  H
  H43      1.0000 0.32600  0.23200  0.62200  Biso   1.000  H
  H44      1.0000 0.17400  0.73200  0.87800  Biso   1.000  H
