data_image0
_cell_length_a       8.141
_cell_length_b       8.306
_cell_length_c       8.816
_cell_angle_alpha    114.683
_cell_angle_beta     101.989
_cell_angle_gamma    108.258

_symmetry_space_group_name_H-M    "P 1"
_symmetry_int_tables_number       1

loop_
  _symmetry_equiv_pos_as_xyz
  'x, y, z'

loop_
  _atom_site_label
  _atom_site_occupancy
  _atom_site_fract_x
  _atom_site_fract_y
  _atom_site_fract_z
  _atom_site_thermal_displace_type
  _atom_site_B_iso_or_equiv
  _atom_site_type_symbol
  I1       1.0000 0.36459  0.55664  0.80830  Biso   1.000  I
  I2       1.0000 0.63541  0.44336  0.19170  Biso   1.000  I
  Cu1      1.0000 0.70770  0.58503  0.96429  Biso   1.000  Cu
  Cu2      1.0000 0.29230  0.41497  0.03571  Biso   1.000  Cu
  N1       1.0000 0.88280  0.87460  0.11280  Biso   1.000  N
  N2       1.0000 0.11720  0.12540  0.88720  Biso   1.000  N
  N3       1.0000 0.09840  0.16830  0.34120  Biso   1.000  N
  N4       1.0000 0.90160  0.83170  0.65880  Biso   1.000  N
  H1       1.0000 0.19900  0.25840  0.43620  Biso   1.000  H
  H2       1.0000 0.80100  0.74160  0.56380  Biso   1.000  H
  C1       1.0000 0.24180  0.94760  0.49860  Biso   1.000  C
  C2       1.0000 0.75820  0.05240  0.50140  Biso   1.000  C
  H3       1.0000 0.23850  0.05530  0.58910  Biso   1.000  H
  H4       1.0000 0.76150  0.94470  0.41090  Biso   1.000  H
  C3       1.0000 0.33540  0.85130  0.54280  Biso   1.000  C
  C4       1.0000 0.66460  0.14870  0.45720  Biso   1.000  C
  H5       1.0000 0.39340  0.89060  0.66340  Biso   1.000  H
  H6       1.0000 0.60660  0.10940  0.33660  Biso   1.000  H
  C5       1.0000 0.34180  0.69680  0.40670  Biso   1.000  C
  C6       1.0000 0.65820  0.30320  0.59330  Biso   1.000  C
  H7       1.0000 0.40390  0.63170  0.43840  Biso   1.000  H
  H8       1.0000 0.59610  0.36830  0.56160  Biso   1.000  H
  C7       1.0000 0.04400  0.97140  0.25740  Biso   1.000  C
  C8       1.0000 0.95600  0.02860  0.74260  Biso   1.000  C
  C9       1.0000 0.83520  0.01910  0.10870  Biso   1.000  C
  C10      1.0000 0.16480  0.98090  0.89130  Biso   1.000  C
  H9       1.0000 0.72870  0.99510  0.02200  Biso   1.000  H
  H10      1.0000 0.27130  0.00490  0.97800  Biso   1.000  H
  C11      1.0000 0.96640  0.20070  0.24950  Biso   1.000  C
  C12      1.0000 0.03360  0.79930  0.75050  Biso   1.000  C
  H11      1.0000 0.96700  0.32210  0.27810  Biso   1.000  H
  H12      1.0000 0.03300  0.67790  0.72190  Biso   1.000  H
  C13      1.0000 0.15210  0.88190  0.31650  Biso   1.000  C
  C14      1.0000 0.84790  0.11810  0.68350  Biso   1.000  C
  C15      1.0000 0.16980  0.72660  0.18840  Biso   1.000  C
  C16      1.0000 0.83020  0.27340  0.81160  Biso   1.000  C
  H13      1.0000 0.11350  0.68460  0.06680  Biso   1.000  H
  H14      1.0000 0.88650  0.31540  0.93320  Biso   1.000  H
  N5       1.0000 0.26350  0.63360  0.22990  Biso   1.000  N
  N6       1.0000 0.73650  0.36640  0.77010  Biso   1.000  N
