data_image0
_cell_length_a       11.399
_cell_length_b       13.367
_cell_length_c       14.361
_cell_angle_alpha    90
_cell_angle_beta     103.66
_cell_angle_gamma    90

_symmetry_space_group_name_H-M    "P 1"
_symmetry_int_tables_number       1

loop_
  _symmetry_equiv_pos_as_xyz
  'x, y, z'

loop_
  _atom_site_label
  _atom_site_occupancy
  _atom_site_fract_x
  _atom_site_fract_y
  _atom_site_fract_z
  _atom_site_thermal_displace_type
  _atom_site_B_iso_or_equiv
  _atom_site_type_symbol
  Cu1      1.0000 0.08600  0.35260  0.28370  Biso   1.000  Cu
  Cu2      1.0000 0.58600  0.14740  0.78370  Biso   1.000  Cu
  Cu3      1.0000 0.91400  0.64740  0.71630  Biso   1.000  Cu
  Cu4      1.0000 0.41400  0.85260  0.21630  Biso   1.000  Cu
  Cu5      1.0000 0.86900  0.41480  0.33730  Biso   1.000  Cu
  Cu6      1.0000 0.36900  0.08520  0.83730  Biso   1.000  Cu
  Cu7      1.0000 0.13100  0.58520  0.66270  Biso   1.000  Cu
  Cu8      1.0000 0.63100  0.91480  0.16270  Biso   1.000  Cu
  Cu9      1.0000 0.21170  0.32770  0.51030  Biso   1.000  Cu
  Cu10     1.0000 0.71170  0.17230  0.01030  Biso   1.000  Cu
  Cu11     1.0000 0.78830  0.67230  0.48970  Biso   1.000  Cu
  Cu12     1.0000 0.28830  0.82770  0.98970  Biso   1.000  Cu
  Cu13     1.0000 0.07620  0.56080  0.45660  Biso   1.000  Cu
  Cu14     1.0000 0.57620  0.93920  0.95660  Biso   1.000  Cu
  Cu15     1.0000 0.92380  0.43920  0.54340  Biso   1.000  Cu
  Cu16     1.0000 0.42380  0.06080  0.04340  Biso   1.000  Cu
  Cl1      1.0000 0.02020  0.51590  0.30320  Biso   1.000  Cl
  Cl2      1.0000 0.52020  0.98410  0.80320  Biso   1.000  Cl
  Cl3      1.0000 0.97980  0.48410  0.69680  Biso   1.000  Cl
  Cl4      1.0000 0.47980  0.01590  0.19680  Biso   1.000  Cl
  Cl5      1.0000 0.27460  0.33230  0.36650  Biso   1.000  Cl
  Cl6      1.0000 0.77460  0.16770  0.86650  Biso   1.000  Cl
  Cl7      1.0000 0.72540  0.66770  0.63350  Biso   1.000  Cl
  Cl8      1.0000 0.22540  0.83230  0.13350  Biso   1.000  Cl
  Cl9      1.0000 0.76280  0.50450  0.43370  Biso   1.000  Cl
  Cl10     1.0000 0.26280  0.99550  0.93370  Biso   1.000  Cl
  Cl11     1.0000 0.23720  0.49550  0.56630  Biso   1.000  Cl
  Cl12     1.0000 0.73720  0.00450  0.06630  Biso   1.000  Cl
  Cl13     1.0000 0.99800  0.30670  0.47810  Biso   1.000  Cl
  Cl14     1.0000 0.49800  0.19330  0.97810  Biso   1.000  Cl
  Cl15     1.0000 0.00200  0.69330  0.52190  Biso   1.000  Cl
  Cl16     1.0000 0.50200  0.80670  0.02190  Biso   1.000  Cl
  S1       1.0000 0.97810  0.23350  0.20070  Biso   1.000  S
  S2       1.0000 0.47810  0.26650  0.70070  Biso   1.000  S
  S3       1.0000 0.02190  0.76650  0.79930  Biso   1.000  S
  S4       1.0000 0.52190  0.73350  0.29930  Biso   1.000  S
  S5       1.0000 0.73550  0.34620  0.21780  Biso   1.000  S
  S6       1.0000 0.23550  0.15380  0.71780  Biso   1.000  S
  S7       1.0000 0.26450  0.65380  0.78220  Biso   1.000  S
  S8       1.0000 0.76450  0.84620  0.28220  Biso   1.000  S
  S9       1.0000 0.86910  0.41300  0.05690  Biso   1.000  S
  S10      1.0000 0.36910  0.08700  0.55690  Biso   1.000  S
  S11      1.0000 0.13090  0.58700  0.94310  Biso   1.000  S
  S12      1.0000 0.63090  0.91300  0.44310  Biso   1.000  S
  S13      1.0000 0.49410  0.21270  0.63900  Biso   1.000  S
  S14      1.0000 0.99410  0.28730  0.13900  Biso   1.000  S
  S15      1.0000 0.50590  0.78730  0.36100  Biso   1.000  S
  S16      1.0000 0.00590  0.71270  0.86100  Biso   1.000  S
  S17      1.0000 0.26190  0.06820  0.58520  Biso   1.000  S
  S18      1.0000 0.76190  0.43180  0.08520  Biso   1.000  S
  S19      1.0000 0.73810  0.93180  0.41480  Biso   1.000  S
  S20      1.0000 0.23810  0.56820  0.91480  Biso   1.000  S
  S21      1.0000 0.30100  0.22860  0.75830  Biso   1.000  S
  S22      1.0000 0.80100  0.27140  0.25830  Biso   1.000  S
  S23      1.0000 0.69900  0.77140  0.24170  Biso   1.000  S
  S24      1.0000 0.19900  0.72860  0.74170  Biso   1.000  S
  C1       1.0000 0.64330  0.24070  0.24830  Biso   1.000  C
  C2       1.0000 0.14330  0.25930  0.74830  Biso   1.000  C
  C3       1.0000 0.35670  0.75930  0.75170  Biso   1.000  C
  C4       1.0000 0.85670  0.74070  0.25170  Biso   1.000  C
  H1       1.0000 0.61500  0.19850  0.19170  Biso   1.000  H
  H2       1.0000 0.11500  0.30150  0.69170  Biso   1.000  H
  H3       1.0000 0.38500  0.80150  0.80830  Biso   1.000  H
  H4       1.0000 0.88500  0.69850  0.30830  Biso   1.000  H
  C5       1.0000 0.74700  0.43000  0.94280  Biso   1.000  C
  C6       1.0000 0.24700  0.07000  0.44280  Biso   1.000  C
  C7       1.0000 0.25300  0.57000  0.05720  Biso   1.000  C
  C8       1.0000 0.75300  0.93000  0.55720  Biso   1.000  C
  H5       1.0000 0.72680  0.36710  0.90680  Biso   1.000  H
  H6       1.0000 0.22680  0.13290  0.40680  Biso   1.000  H
  H7       1.0000 0.27320  0.63290  0.09320  Biso   1.000  H
  H8       1.0000 0.77320  0.86710  0.59320  Biso   1.000  H
  C9       1.0000 0.04640  0.17120  0.11400  Biso   1.000  C
  C10      1.0000 0.54640  0.32880  0.61400  Biso   1.000  C
  C11      1.0000 0.95360  0.82880  0.88600  Biso   1.000  C
  C12      1.0000 0.45360  0.67120  0.38600  Biso   1.000  C
  H9       1.0000 0.99850  0.17030  0.04770  Biso   1.000  H
  H10      1.0000 0.49850  0.32970  0.54770  Biso   1.000  H
  H11      1.0000 0.00150  0.82970  0.95230  Biso   1.000  H
  H12      1.0000 0.50150  0.67030  0.45230  Biso   1.000  H
  C13      1.0000 0.07540  0.08380  0.15400  Biso   1.000  C
  C14      1.0000 0.57540  0.41620  0.65400  Biso   1.000  C
  C15      1.0000 0.92460  0.91620  0.84600  Biso   1.000  C
  C16      1.0000 0.42460  0.58380  0.34600  Biso   1.000  C
  H13      1.0000 0.00330  0.04770  0.15620  Biso   1.000  H
  H14      1.0000 0.50330  0.45230  0.65620  Biso   1.000  H
  H15      1.0000 0.99670  0.95230  0.84380  Biso   1.000  H
  H16      1.0000 0.49670  0.54770  0.34380  Biso   1.000  H
  H17      1.0000 0.12060  0.04660  0.11720  Biso   1.000  H
  H18      1.0000 0.62060  0.45340  0.61720  Biso   1.000  H
  H19      1.0000 0.87940  0.95340  0.88280  Biso   1.000  H
  H20      1.0000 0.37940  0.54660  0.38280  Biso   1.000  H
  H21      1.0000 0.12350  0.09300  0.21790  Biso   1.000  H
  H22      1.0000 0.62350  0.40700  0.71790  Biso   1.000  H
  H23      1.0000 0.87650  0.90700  0.78210  Biso   1.000  H
  H24      1.0000 0.37650  0.59300  0.28210  Biso   1.000  H
  C17      1.0000 0.54020  0.29680  0.26790  Biso   1.000  C
  C18      1.0000 0.04020  0.20320  0.76790  Biso   1.000  C
  C19      1.0000 0.45980  0.70320  0.73210  Biso   1.000  C
  C20      1.0000 0.95980  0.79680  0.23210  Biso   1.000  C
  H25      1.0000 0.49850  0.33080  0.21080  Biso   1.000  H
  H26      1.0000 0.99850  0.16920  0.71080  Biso   1.000  H
  H27      1.0000 0.50150  0.66920  0.78920  Biso   1.000  H
  H28      1.0000 0.00150  0.83080  0.28920  Biso   1.000  H
  H29      1.0000 0.48600  0.25130  0.28810  Biso   1.000  H
  H30      1.0000 0.98600  0.24870  0.78810  Biso   1.000  H
  H31      1.0000 0.51400  0.74870  0.71190  Biso   1.000  H
  H32      1.0000 0.01400  0.75130  0.21190  Biso   1.000  H
  H33      1.0000 0.56920  0.34500  0.31770  Biso   1.000  H
  H34      1.0000 0.06920  0.15500  0.81770  Biso   1.000  H
  H35      1.0000 0.43080  0.65500  0.68230  Biso   1.000  H
  H36      1.0000 0.93080  0.84500  0.18230  Biso   1.000  H
  C21      1.0000 0.78500  0.51000  0.88600  Biso   1.000  C
  C22      1.0000 0.28500  0.99000  0.38600  Biso   1.000  C
  C23      1.0000 0.21500  0.49000  0.11400  Biso   1.000  C
  C24      1.0000 0.71500  0.01000  0.61400  Biso   1.000  C
  H37      1.0000 0.85770  0.49040  0.86850  Biso   1.000  H
  H38      1.0000 0.35770  0.00960  0.36850  Biso   1.000  H
  H39      1.0000 0.14230  0.50960  0.13150  Biso   1.000  H
  H40      1.0000 0.64230  0.99040  0.63150  Biso   1.000  H
  H41      1.0000 0.72240  0.52090  0.82860  Biso   1.000  H
  H42      1.0000 0.22240  0.97910  0.32860  Biso   1.000  H
  H43      1.0000 0.27760  0.47910  0.17140  Biso   1.000  H
  H44      1.0000 0.77760  0.02090  0.67140  Biso   1.000  H
  H45      1.0000 0.79820  0.57020  0.92280  Biso   1.000  H
  H46      1.0000 0.29820  0.92980  0.42280  Biso   1.000  H
  H47      1.0000 0.20180  0.42980  0.07720  Biso   1.000  H
  H48      1.0000 0.70180  0.07020  0.57720  Biso   1.000  H
  C25      1.0000 0.62900  0.48000  0.97200  Biso   1.000  C
  C26      1.0000 0.12900  0.02000  0.47200  Biso   1.000  C
  C27      1.0000 0.37100  0.52000  0.02800  Biso   1.000  C
  C28      1.0000 0.87100  0.98000  0.52800  Biso   1.000  C
  H49      1.0000 0.60210  0.43780  0.01600  Biso   1.000  H
  H50      1.0000 0.10210  0.06220  0.51600  Biso   1.000  H
  H51      1.0000 0.39790  0.56220  0.98400  Biso   1.000  H
  H52      1.0000 0.89790  0.93780  0.48400  Biso   1.000  H
  H53      1.0000 0.65150  0.54440  0.00070  Biso   1.000  H
  H54      1.0000 0.15150  0.95560  0.50070  Biso   1.000  H
  H55      1.0000 0.34850  0.45560  0.99930  Biso   1.000  H
  H56      1.0000 0.84850  0.04440  0.49930  Biso   1.000  H
  H57      1.0000 0.56570  0.48870  0.91500  Biso   1.000  H
  H58      1.0000 0.06570  0.01130  0.41500  Biso   1.000  H
  H59      1.0000 0.43430  0.51130  0.08500  Biso   1.000  H
  H60      1.0000 0.93430  0.98870  0.58500  Biso   1.000  H
  C29      1.0000 0.73410  0.17330  0.33510  Biso   1.000  C
  C30      1.0000 0.23410  0.32670  0.83510  Biso   1.000  C
  C31      1.0000 0.26590  0.82670  0.66490  Biso   1.000  C
  C32      1.0000 0.76590  0.67330  0.16490  Biso   1.000  C
  H61      1.0000 0.79590  0.14200  0.31000  Biso   1.000  H
  H62      1.0000 0.29590  0.35800  0.81000  Biso   1.000  H
  H63      1.0000 0.20410  0.85800  0.69000  Biso   1.000  H
  H64      1.0000 0.70410  0.64200  0.19000  Biso   1.000  H
  H65      1.0000 0.77070  0.21660  0.38720  Biso   1.000  H
  H66      1.0000 0.27070  0.28340  0.88720  Biso   1.000  H
  H67      1.0000 0.22930  0.78340  0.61280  Biso   1.000  H
  H68      1.0000 0.72930  0.71660  0.11280  Biso   1.000  H
  H69      1.0000 0.68760  0.12290  0.35760  Biso   1.000  H
  H70      1.0000 0.18760  0.37710  0.85760  Biso   1.000  H
  H71      1.0000 0.31240  0.87710  0.64240  Biso   1.000  H
  H72      1.0000 0.81240  0.62290  0.14240  Biso   1.000  H
  C33      1.0000 0.19600  0.19610  0.12950  Biso   1.000  C
  C34      1.0000 0.69600  0.30390  0.62950  Biso   1.000  C
  C35      1.0000 0.80400  0.80390  0.87050  Biso   1.000  C
  C36      1.0000 0.30400  0.69610  0.37050  Biso   1.000  C
  H73      1.0000 0.20610  0.26150  0.10490  Biso   1.000  H
  H74      1.0000 0.70610  0.23850  0.60490  Biso   1.000  H
  H75      1.0000 0.79390  0.73850  0.89510  Biso   1.000  H
  H76      1.0000 0.29390  0.76150  0.39510  Biso   1.000  H
  H77      1.0000 0.23470  0.19360  0.19650  Biso   1.000  H
  H78      1.0000 0.73470  0.30640  0.69650  Biso   1.000  H
  H79      1.0000 0.76530  0.80640  0.80350  Biso   1.000  H
  H80      1.0000 0.26530  0.69360  0.30350  Biso   1.000  H
  H81      1.0000 0.23180  0.14720  0.09570  Biso   1.000  H
  H82      1.0000 0.73180  0.35280  0.59570  Biso   1.000  H
  H83      1.0000 0.76820  0.85280  0.90430  Biso   1.000  H
  H84      1.0000 0.26820  0.64720  0.40430  Biso   1.000  H
  P1       1.0000 0.81120  0.28390  0.11060  Biso   1.000  P
  P2       1.0000 0.31120  0.21610  0.61060  Biso   1.000  P
  P3       1.0000 0.18880  0.71610  0.88940  Biso   1.000  P
  P4       1.0000 0.68880  0.78390  0.38940  Biso   1.000  P
