data_image0
_cell_length_a       9.63
_cell_length_b       10.64
_cell_length_c       6.71
_cell_angle_alpha    90
_cell_angle_beta     90
_cell_angle_gamma    90

_symmetry_space_group_name_H-M    "P 1"
_symmetry_int_tables_number       1

loop_
  _symmetry_equiv_pos_as_xyz
  'x, y, z'

loop_
  _atom_site_label
  _atom_site_occupancy
  _atom_site_fract_x
  _atom_site_fract_y
  _atom_site_fract_z
  _atom_site_thermal_displace_type
  _atom_site_B_iso_or_equiv
  _atom_site_type_symbol
  N1       1.0000 0.33100  0.88600  0.09600  Biso   1.000  N
  N2       1.0000 0.33100  0.88600  0.90400  Biso   1.000  N
  N3       1.0000 0.66900  0.38600  0.09600  Biso   1.000  N
  N4       1.0000 0.66900  0.38600  0.90400  Biso   1.000  N
  Cl1      1.0000 0.37300  0.08000  0.50000  Biso   1.000  Cl
  Cl2      1.0000 0.62700  0.58000  0.50000  Biso   1.000  Cl
  Cl3      1.0000 0.14500  0.14200  0.00000  Biso   1.000  Cl
  Cl4      1.0000 0.85500  0.64200  0.00000  Biso   1.000  Cl
  Cu1      1.0000 0.22100  0.00000  0.25280  Biso   1.000  Cu
  Cu2      1.0000 0.22100  0.00000  0.74720  Biso   1.000  Cu
  Cu3      1.0000 0.77900  0.50000  0.25280  Biso   1.000  Cu
  Cu4      1.0000 0.77900  0.50000  0.74720  Biso   1.000  Cu
  C1       1.0000 0.91000  0.96100  0.32600  Biso   1.000  C
  C2       1.0000 0.91000  0.96100  0.67400  Biso   1.000  C
  C3       1.0000 0.09000  0.46100  0.32600  Biso   1.000  C
  C4       1.0000 0.09000  0.46100  0.67400  Biso   1.000  C
  C5       1.0000 0.43900  0.79700  0.16400  Biso   1.000  C
  C6       1.0000 0.43900  0.79700  0.83600  Biso   1.000  C
  C7       1.0000 0.56100  0.29700  0.16400  Biso   1.000  C
  C8       1.0000 0.56100  0.29700  0.83600  Biso   1.000  C
  C9       1.0000 0.57900  0.86100  0.11900  Biso   1.000  C
  C10      1.0000 0.57900  0.86100  0.88100  Biso   1.000  C
  C11      1.0000 0.42100  0.36100  0.11900  Biso   1.000  C
  C12      1.0000 0.42100  0.36100  0.88100  Biso   1.000  C
  C13      1.0000 0.44000  0.69400  0.00000  Biso   1.000  C
  C14      1.0000 0.56000  0.19400  0.00000  Biso   1.000  C
  C15      1.0000 0.84900  0.09100  0.38400  Biso   1.000  C
  C16      1.0000 0.84900  0.09100  0.61600  Biso   1.000  C
  C17      1.0000 0.15100  0.59100  0.38400  Biso   1.000  C
  C18      1.0000 0.15100  0.59100  0.61600  Biso   1.000  C
  C19      1.0000 0.85800  0.87000  0.50000  Biso   1.000  C
  C20      1.0000 0.14200  0.37000  0.50000  Biso   1.000  C
  N5       1.0000 0.06300  0.96400  0.40700  Biso   1.000  N
  N6       1.0000 0.06300  0.96400  0.59300  Biso   1.000  N
  N7       1.0000 0.93700  0.46400  0.40700  Biso   1.000  N
  N8       1.0000 0.93700  0.46400  0.59300  Biso   1.000  N
