data_image0
_cell_length_a       9.2788
_cell_length_b       11.4322
_cell_length_c       12.4204
_cell_angle_alpha    74.566
_cell_angle_beta     76.69
_cell_angle_gamma    72.067

_symmetry_space_group_name_H-M    "P 1"
_symmetry_int_tables_number       1

loop_
  _symmetry_equiv_pos_as_xyz
  'x, y, z'

loop_
  _atom_site_label
  _atom_site_occupancy
  _atom_site_fract_x
  _atom_site_fract_y
  _atom_site_fract_z
  _atom_site_thermal_displace_type
  _atom_site_B_iso_or_equiv
  _atom_site_type_symbol
  I1       1.0000 0.85586  0.86796  0.05594  Biso   1.000  I
  I2       1.0000 0.14414  0.13204  0.94406  Biso   1.000  I
  Cu1      1.0000 0.86308  0.10732  0.02392  Biso   1.000  Cu
  Cu2      1.0000 0.13692  0.89268  0.97608  Biso   1.000  Cu
  P1       1.0000 0.75620  0.16954  0.18626  Biso   1.000  P
  P2       1.0000 0.24380  0.83046  0.81374  Biso   1.000  P
  N1       1.0000 0.74367  0.19616  0.89108  Biso   1.000  N
  N2       1.0000 0.25633  0.80384  0.10892  Biso   1.000  N
  N3       1.0000 0.53664  0.47410  0.54782  Biso   1.000  N
  N4       1.0000 0.46336  0.52590  0.45218  Biso   1.000  N
  C1       1.0000 0.78890  0.28666  0.80773  Biso   1.000  C
  C2       1.0000 0.21110  0.71334  0.19227  Biso   1.000  C
  H1       1.0000 0.87560  0.31120  0.81310  Biso   1.000  H
  H2       1.0000 0.12440  0.68880  0.18690  Biso   1.000  H
  C3       1.0000 0.71580  0.34564  0.71482  Biso   1.000  C
  C4       1.0000 0.28420  0.65436  0.28518  Biso   1.000  C
  H3       1.0000 0.75110  0.40990  0.65880  Biso   1.000  H
  H4       1.0000 0.24890  0.59010  0.34120  Biso   1.000  H
  C5       1.0000 0.58980  0.31012  0.70403  Biso   1.000  C
  C6       1.0000 0.41020  0.68988  0.29597  Biso   1.000  C
  C7       1.0000 0.54050  0.21851  0.79137  Biso   1.000  C
  C8       1.0000 0.45950  0.78149  0.20863  Biso   1.000  C
  H5       1.0000 0.45390  0.19240  0.78850  Biso   1.000  H
  H6       1.0000 0.54610  0.80760  0.21150  Biso   1.000  H
  C9       1.0000 0.61930  0.16582  0.88258  Biso   1.000  C
  C10      1.0000 0.38070  0.83418  0.11742  Biso   1.000  C
  H7       1.0000 0.58280  0.10490  0.94220  Biso   1.000  H
  H8       1.0000 0.41720  0.89510  0.05780  Biso   1.000  H
  C11      1.0000 0.51350  0.36689  0.60230  Biso   1.000  C
  C12      1.0000 0.48650  0.63311  0.39770  Biso   1.000  C
  C13      1.0000 0.42280  0.29530  0.57192  Biso   1.000  C
  C14      1.0000 0.57720  0.70470  0.42808  Biso   1.000  C
  H9       1.0000 0.39720  0.33490  0.49600  Biso   1.000  H
  H10      1.0000 0.60280  0.66510  0.50400  Biso   1.000  H
  H11      1.0000 0.32800  0.29600  0.62680  Biso   1.000  H
  H12      1.0000 0.67200  0.70400  0.37320  Biso   1.000  H
  H13      1.0000 0.48390  0.20820  0.57310  Biso   1.000  H
  H14      1.0000 0.51610  0.79180  0.42690  Biso   1.000  H
  C15      1.0000 0.79470  0.30849  0.20650  Biso   1.000  C
  C16      1.0000 0.20530  0.69151  0.79350  Biso   1.000  C
  C17      1.0000 0.80410  0.32434  0.31231  Biso   1.000  C
  C18      1.0000 0.19590  0.67566  0.68769  Biso   1.000  C
  H15      1.0000 0.78920  0.26110  0.37800  Biso   1.000  H
  H16      1.0000 0.21080  0.73890  0.62200  Biso   1.000  H
  C19      1.0000 0.83510  0.43240  0.32155  Biso   1.000  C
  C20      1.0000 0.16490  0.56760  0.67845  Biso   1.000  C
  H17      1.0000 0.84280  0.44220  0.39350  Biso   1.000  H
  H18      1.0000 0.15720  0.55780  0.60650  Biso   1.000  H
  C21      1.0000 0.85500  0.52586  0.22673  Biso   1.000  C
  C22      1.0000 0.14500  0.47414  0.77327  Biso   1.000  C
  H19      1.0000 0.87550  0.59970  0.23380  Biso   1.000  H
  H20      1.0000 0.12450  0.40030  0.76620  Biso   1.000  H
  C23      1.0000 0.84500  0.51200  0.12104  Biso   1.000  C
  C24      1.0000 0.15500  0.48800  0.87896  Biso   1.000  C
  H21      1.0000 0.85800  0.57620  0.05590  Biso   1.000  H
  H22      1.0000 0.14200  0.42380  0.94410  Biso   1.000  H
  C25      1.0000 0.81580  0.40299  0.11159  Biso   1.000  C
  C26      1.0000 0.18420  0.59701  0.88841  Biso   1.000  C
  H23      1.0000 0.81020  0.39290  0.03930  Biso   1.000  H
  H24      1.0000 0.18980  0.60710  0.96070  Biso   1.000  H
  C27      1.0000 0.80220  0.05253  0.31409  Biso   1.000  C
  C28      1.0000 0.19780  0.94747  0.68591  Biso   1.000  C
  C29      1.0000 0.69530  0.03280  0.41092  Biso   1.000  C
  C30      1.0000 0.30470  0.96720  0.58908  Biso   1.000  C
  H25      1.0000 0.59140  0.08080  0.41250  Biso   1.000  H
  H26      1.0000 0.40860  0.91920  0.58750  Biso   1.000  H
  C31      1.0000 0.74040  0.94250  0.50630  Biso   1.000  C
  C32      1.0000 0.25960  0.05750  0.49370  Biso   1.000  C
  H27      1.0000 0.66670  0.92870  0.57210  Biso   1.000  H
  H28      1.0000 0.33330  0.07130  0.42790  Biso   1.000  H
  C33      1.0000 0.89240  0.87300  0.50510  Biso   1.000  C
  C34      1.0000 0.10760  0.12700  0.49490  Biso   1.000  C
  H29      1.0000 0.92290  0.81160  0.56990  Biso   1.000  H
  H30      1.0000 0.07710  0.18840  0.43010  Biso   1.000  H
  C35      1.0000 0.99900  0.89370  0.40920  Biso   1.000  C
  C36      1.0000 0.00100  0.10630  0.59080  Biso   1.000  C
  H31      1.0000 0.10360  0.84770  0.40870  Biso   1.000  H
  H32      1.0000 0.89640  0.15230  0.59130  Biso   1.000  H
  C37      1.0000 0.95440  0.98140  0.31328  Biso   1.000  C
  C38      1.0000 0.04560  0.01860  0.68672  Biso   1.000  C
  H33      1.0000 0.02790  0.99300  0.24680  Biso   1.000  H
  H34      1.0000 0.97210  0.00700  0.75320  Biso   1.000  H
  C39      1.0000 0.54690  0.21052  0.20193  Biso   1.000  C
  C40      1.0000 0.45310  0.78948  0.79807  Biso   1.000  C
  C41      1.0000 0.48190  0.12140  0.18810  Biso   1.000  C
  C42      1.0000 0.51810  0.87860  0.81190  Biso   1.000  C
  H35      1.0000 0.54550  0.04060  0.17920  Biso   1.000  H
  H36      1.0000 0.45450  0.95940  0.82080  Biso   1.000  H
  C43      1.0000 0.32550  0.14950  0.18721  Biso   1.000  C
  C44      1.0000 0.67450  0.85050  0.81279  Biso   1.000  C
  H37      1.0000 0.28250  0.08760  0.17880  Biso   1.000  H
  H38      1.0000 0.71750  0.91240  0.82120  Biso   1.000  H
  C45      1.0000 0.23210  0.26760  0.19860  Biso   1.000  C
  C46      1.0000 0.76790  0.73240  0.80140  Biso   1.000  C
  H39      1.0000 0.12560  0.28790  0.19570  Biso   1.000  H
  H40      1.0000 0.87440  0.71210  0.80430  Biso   1.000  H
  C47      1.0000 0.29500  0.35560  0.21410  Biso   1.000  C
  C48      1.0000 0.70500  0.64440  0.78590  Biso   1.000  C
  H41      1.0000 0.23080  0.43620  0.22320  Biso   1.000  H
  H42      1.0000 0.76920  0.56380  0.77680  Biso   1.000  H
  C49      1.0000 0.45230  0.32740  0.21660  Biso   1.000  C
  C50      1.0000 0.54770  0.67260  0.78340  Biso   1.000  C
  H43      1.0000 0.49420  0.38820  0.22840  Biso   1.000  H
  H44      1.0000 0.50580  0.61180  0.77160  Biso   1.000  H
