data_image0
_cell_length_a       9.166
_cell_length_b       13.014
_cell_length_c       17.57
_cell_angle_alpha    90
_cell_angle_beta     90
_cell_angle_gamma    90

_symmetry_space_group_name_H-M    "P 1"
_symmetry_int_tables_number       1

loop_
  _symmetry_equiv_pos_as_xyz
  'x, y, z'

loop_
  _atom_site_label
  _atom_site_occupancy
  _atom_site_fract_x
  _atom_site_fract_y
  _atom_site_fract_z
  _atom_site_thermal_displace_type
  _atom_site_B_iso_or_equiv
  _atom_site_type_symbol
  Cu1      1.0000 0.05258  0.13941  0.20726  Biso   1.000  Cu
  Cu2      1.0000 0.94742  0.63941  0.29274  Biso   1.000  Cu
  Cu3      1.0000 0.05258  0.86059  0.79274  Biso   1.000  Cu
  Cu4      1.0000 0.94742  0.36059  0.70726  Biso   1.000  Cu
  C1       1.0000 0.81300  0.28400  0.14470  Biso   1.000  C
  C2       1.0000 0.18700  0.78400  0.35530  Biso   1.000  C
  C3       1.0000 0.81300  0.71600  0.85530  Biso   1.000  C
  C4       1.0000 0.18700  0.21600  0.64470  Biso   1.000  C
  C5       1.0000 0.86720  0.24560  0.07710  Biso   1.000  C
  C6       1.0000 0.13280  0.74560  0.42290  Biso   1.000  C
  C7       1.0000 0.86720  0.75440  0.92290  Biso   1.000  C
  C8       1.0000 0.13280  0.25440  0.57710  Biso   1.000  C
  H1       1.0000 0.96490  0.25380  0.06400  Biso   1.000  H
  H2       1.0000 0.03510  0.75380  0.43600  Biso   1.000  H
  H3       1.0000 0.96490  0.74620  0.93600  Biso   1.000  H
  H4       1.0000 0.03510  0.24620  0.56400  Biso   1.000  H
  C9       1.0000 0.76820  0.19310  0.02800  Biso   1.000  C
  C10      1.0000 0.23180  0.69310  0.47200  Biso   1.000  C
  C11      1.0000 0.76820  0.80690  0.97200  Biso   1.000  C
  C12      1.0000 0.23180  0.30690  0.52800  Biso   1.000  C
  H5       1.0000 0.80150  0.16460  0.98260  Biso   1.000  H
  H6       1.0000 0.19850  0.66460  0.51740  Biso   1.000  H
  H7       1.0000 0.80150  0.83540  0.01740  Biso   1.000  H
  H8       1.0000 0.19850  0.33540  0.48260  Biso   1.000  H
  C13      1.0000 0.62370  0.18460  0.04780  Biso   1.000  C
  C14      1.0000 0.37630  0.68460  0.45220  Biso   1.000  C
  C15      1.0000 0.62370  0.81540  0.95220  Biso   1.000  C
  C16      1.0000 0.37630  0.31540  0.54780  Biso   1.000  C
  H9       1.0000 0.55930  0.15220  0.01460  Biso   1.000  H
  H10      1.0000 0.44070  0.65220  0.48540  Biso   1.000  H
  H11      1.0000 0.55930  0.84780  0.98540  Biso   1.000  H
  H12      1.0000 0.44070  0.34780  0.51460  Biso   1.000  H
  C17      1.0000 0.57370  0.22180  0.11370  Biso   1.000  C
  C18      1.0000 0.42630  0.72180  0.38630  Biso   1.000  C
  C19      1.0000 0.57370  0.77820  0.88630  Biso   1.000  C
  C20      1.0000 0.42630  0.27820  0.61370  Biso   1.000  C
  H13      1.0000 0.47580  0.21410  0.12620  Biso   1.000  H
  H14      1.0000 0.52420  0.71410  0.37380  Biso   1.000  H
  H15      1.0000 0.47580  0.78590  0.87380  Biso   1.000  H
  H16      1.0000 0.52420  0.28590  0.62620  Biso   1.000  H
  C21      1.0000 0.66820  0.27240  0.16390  Biso   1.000  C
  C22      1.0000 0.33180  0.77240  0.33610  Biso   1.000  C
  C23      1.0000 0.66820  0.72760  0.83610  Biso   1.000  C
  C24      1.0000 0.33180  0.22760  0.66390  Biso   1.000  C
  H17      1.0000 0.63340  0.29790  0.20990  Biso   1.000  H
  H18      1.0000 0.36660  0.79790  0.29010  Biso   1.000  H
  H19      1.0000 0.63340  0.70210  0.79010  Biso   1.000  H
  H20      1.0000 0.36660  0.20210  0.70990  Biso   1.000  H
  C25      1.0000 0.76600  0.50140  0.18310  Biso   1.000  C
  C26      1.0000 0.23400  0.00140  0.31690  Biso   1.000  C
  C27      1.0000 0.76600  0.49860  0.81690  Biso   1.000  C
  C28      1.0000 0.23400  0.99860  0.68310  Biso   1.000  C
  C29      1.0000 0.64160  0.51770  0.22640  Biso   1.000  C
  C30      1.0000 0.35840  0.01770  0.27360  Biso   1.000  C
  C31      1.0000 0.64160  0.48230  0.77360  Biso   1.000  C
  C32      1.0000 0.35840  0.98230  0.72640  Biso   1.000  C
  H21      1.0000 0.63730  0.49580  0.27680  Biso   1.000  H
  H22      1.0000 0.36270  0.99580  0.22320  Biso   1.000  H
  H23      1.0000 0.63730  0.50420  0.72320  Biso   1.000  H
  H24      1.0000 0.36270  0.00420  0.77680  Biso   1.000  H
  C33      1.0000 0.52210  0.56810  0.19280  Biso   1.000  C
  C34      1.0000 0.47790  0.06810  0.30720  Biso   1.000  C
  C35      1.0000 0.52210  0.43190  0.80720  Biso   1.000  C
  C36      1.0000 0.47790  0.93190  0.69280  Biso   1.000  C
  H25      1.0000 0.43800  0.57930  0.22130  Biso   1.000  H
  H26      1.0000 0.56200  0.07930  0.27870  Biso   1.000  H
  H27      1.0000 0.43800  0.42070  0.77870  Biso   1.000  H
  H28      1.0000 0.56200  0.92070  0.72130  Biso   1.000  H
  C37      1.0000 0.52750  0.60110  0.11850  Biso   1.000  C
  C38      1.0000 0.47250  0.10110  0.38150  Biso   1.000  C
  C39      1.0000 0.52750  0.39890  0.88150  Biso   1.000  C
  C40      1.0000 0.47250  0.89890  0.61850  Biso   1.000  C
  H29      1.0000 0.44730  0.63380  0.09690  Biso   1.000  H
  H30      1.0000 0.55270  0.13380  0.40310  Biso   1.000  H
  H31      1.0000 0.44730  0.36620  0.90310  Biso   1.000  H
  H32      1.0000 0.55270  0.86620  0.59690  Biso   1.000  H
  C41      1.0000 0.65040  0.58570  0.07660  Biso   1.000  C
  C42      1.0000 0.34960  0.08570  0.42340  Biso   1.000  C
  C43      1.0000 0.65040  0.41430  0.92340  Biso   1.000  C
  C44      1.0000 0.34960  0.91430  0.57660  Biso   1.000  C
  H33      1.0000 0.65490  0.60870  0.02650  Biso   1.000  H
  H34      1.0000 0.34510  0.10870  0.47350  Biso   1.000  H
  H35      1.0000 0.65490  0.39130  0.97350  Biso   1.000  H
  H36      1.0000 0.34510  0.89130  0.52650  Biso   1.000  H
  C45      1.0000 0.76910  0.53570  0.10890  Biso   1.000  C
  C46      1.0000 0.23090  0.03570  0.39110  Biso   1.000  C
  C47      1.0000 0.76910  0.46430  0.89110  Biso   1.000  C
  C48      1.0000 0.23090  0.96430  0.60890  Biso   1.000  C
  H37      1.0000 0.85250  0.52500  0.07980  Biso   1.000  H
  H38      1.0000 0.14750  0.02500  0.42020  Biso   1.000  H
  H39      1.0000 0.85250  0.47500  0.92020  Biso   1.000  H
  H40      1.0000 0.14750  0.97500  0.57980  Biso   1.000  H
  C49      1.0000 0.91720  0.34060  0.19550  Biso   1.000  C
  C50      1.0000 0.08280  0.84060  0.30450  Biso   1.000  C
  C51      1.0000 0.91720  0.65940  0.80450  Biso   1.000  C
  C52      1.0000 0.08280  0.15940  0.69550  Biso   1.000  C
  N1       1.0000 0.03280  0.28800  0.22100  Biso   1.000  N
  N2       1.0000 0.96720  0.78800  0.27900  Biso   1.000  N
  N3       1.0000 0.03280  0.71200  0.77900  Biso   1.000  N
  N4       1.0000 0.96720  0.21200  0.72100  Biso   1.000  N
  C53      1.0000 0.13560  0.34240  0.26320  Biso   1.000  C
  C54      1.0000 0.86440  0.84240  0.23680  Biso   1.000  C
  C55      1.0000 0.13560  0.65760  0.73680  Biso   1.000  C
  C56      1.0000 0.86440  0.15760  0.76320  Biso   1.000  C
  C57      1.0000 0.11070  0.44540  0.28400  Biso   1.000  C
  C58      1.0000 0.88930  0.94540  0.21600  Biso   1.000  C
  C59      1.0000 0.11070  0.55460  0.71600  Biso   1.000  C
  C60      1.0000 0.88930  0.05460  0.78400  Biso   1.000  C
  N5       1.0000 0.98660  0.49640  0.25860  Biso   1.000  N
  N6       1.0000 0.01340  0.99640  0.24140  Biso   1.000  N
  N7       1.0000 0.98660  0.50360  0.74140  Biso   1.000  N
  N8       1.0000 0.01340  0.00360  0.75860  Biso   1.000  N
  C61      1.0000 0.89250  0.44610  0.21550  Biso   1.000  C
  C62      1.0000 0.10750  0.94610  0.28450  Biso   1.000  C
  C63      1.0000 0.89250  0.55390  0.78450  Biso   1.000  C
  C64      1.0000 0.10750  0.05390  0.71550  Biso   1.000  C
  C65      1.0000 0.26080  0.29140  0.28770  Biso   1.000  C
  C66      1.0000 0.73920  0.79140  0.21230  Biso   1.000  C
  C67      1.0000 0.26080  0.70860  0.71230  Biso   1.000  C
  C68      1.0000 0.73920  0.20860  0.78770  Biso   1.000  C
  H41      1.0000 0.27520  0.22250  0.27590  Biso   1.000  H
  H42      1.0000 0.72480  0.72250  0.22410  Biso   1.000  H
  H43      1.0000 0.27520  0.77750  0.72410  Biso   1.000  H
  H44      1.0000 0.72480  0.27750  0.77590  Biso   1.000  H
  C69      1.0000 0.36490  0.34530  0.33060  Biso   1.000  C
  C70      1.0000 0.63510  0.84530  0.16940  Biso   1.000  C
  C71      1.0000 0.36490  0.65470  0.66940  Biso   1.000  C
  C72      1.0000 0.63510  0.15470  0.83060  Biso   1.000  C
  H45      1.0000 0.45170  0.31370  0.34500  Biso   1.000  H
  H46      1.0000 0.54830  0.81370  0.15500  Biso   1.000  H
  H47      1.0000 0.45170  0.68630  0.65500  Biso   1.000  H
  H48      1.0000 0.54830  0.18630  0.84500  Biso   1.000  H
  C73      1.0000 0.33630  0.44830  0.35180  Biso   1.000  C
  C74      1.0000 0.66370  0.94830  0.14820  Biso   1.000  C
  C75      1.0000 0.33630  0.55170  0.64820  Biso   1.000  C
  C76      1.0000 0.66370  0.05170  0.85180  Biso   1.000  C
  H49      1.0000 0.40280  0.48300  0.38240  Biso   1.000  H
  H50      1.0000 0.59720  0.98300  0.11760  Biso   1.000  H
  H51      1.0000 0.40280  0.51700  0.61760  Biso   1.000  H
  H52      1.0000 0.59720  0.01700  0.88240  Biso   1.000  H
  C77      1.0000 0.21350  0.49740  0.32810  Biso   1.000  C
  C78      1.0000 0.78650  0.99740  0.17190  Biso   1.000  C
  C79      1.0000 0.21350  0.50260  0.67190  Biso   1.000  C
  C80      1.0000 0.78650  0.00260  0.82810  Biso   1.000  C
  H53      1.0000 0.19800  0.56580  0.34130  Biso   1.000  H
  H54      1.0000 0.80200  0.06580  0.15870  Biso   1.000  H
  H55      1.0000 0.19800  0.43420  0.65870  Biso   1.000  H
  H56      1.0000 0.80200  0.93420  0.84130  Biso   1.000  H
  O1       1.0000 0.19310  0.10760  0.11090  Biso   1.000  O
  O2       1.0000 0.80690  0.60760  0.38910  Biso   1.000  O
  O3       1.0000 0.19310  0.89240  0.88910  Biso   1.000  O
  O4       1.0000 0.80690  0.39240  0.61090  Biso   1.000  O
  B1       1.0000 0.20070  0.81530  0.08400  Biso   1.000  B
  B2       1.0000 0.79930  0.31530  0.41600  Biso   1.000  B
  B3       1.0000 0.20070  0.18470  0.91600  Biso   1.000  B
  B4       1.0000 0.79930  0.68470  0.58400  Biso   1.000  B
  F1       1.0000 0.09290  0.88190  0.07920  Biso   1.000  F
  F2       1.0000 0.90710  0.38190  0.42080  Biso   1.000  F
  F3       1.0000 0.09290  0.11810  0.92080  Biso   1.000  F
  F4       1.0000 0.90710  0.61810  0.57920  Biso   1.000  F
  F5       1.0000 0.24810  0.77720  0.02110  Biso   1.000  F
  F6       1.0000 0.75190  0.27720  0.47890  Biso   1.000  F
  F7       1.0000 0.24810  0.22280  0.97890  Biso   1.000  F
  F8       1.0000 0.75190  0.72280  0.52110  Biso   1.000  F
  F9       1.0000 0.23100  0.76820  0.14330  Biso   1.000  F
  F10      1.0000 0.76900  0.26820  0.35670  Biso   1.000  F
  F11      1.0000 0.23100  0.23180  0.85670  Biso   1.000  F
  F12      1.0000 0.76900  0.73180  0.64330  Biso   1.000  F
  F13      1.0000 0.30630  0.89980  0.09400  Biso   1.000  F
  F14      1.0000 0.69370  0.39980  0.40600  Biso   1.000  F
  F15      1.0000 0.30630  0.10020  0.90600  Biso   1.000  F
  F16      1.0000 0.69370  0.60020  0.59400  Biso   1.000  F
  O5       1.0000 0.79400  0.98900  0.47900  Biso   1.000  O
  O6       1.0000 0.20600  0.48900  0.02100  Biso   1.000  O
  O7       1.0000 0.79400  0.01100  0.52100  Biso   1.000  O
  O8       1.0000 0.20600  0.51100  0.97900  Biso   1.000  O
  O9       1.0000 0.80300  0.02700  0.56900  Biso   1.000  O
  O10      1.0000 0.19700  0.52700  0.93100  Biso   1.000  O
  O11      1.0000 0.80300  0.97300  0.43100  Biso   1.000  O
  O12      1.0000 0.19700  0.47300  0.06900  Biso   1.000  O
  O13      1.0000 0.90400  0.06500  0.53600  Biso   1.000  O
  O14      1.0000 0.09600  0.56500  0.96400  Biso   1.000  O
  O15      1.0000 0.90400  0.93500  0.46400  Biso   1.000  O
  O16      1.0000 0.09600  0.43500  0.03600  Biso   1.000  O
