data_image0
_cell_length_a       15.08
_cell_length_b       9.895
_cell_length_c       8.7
_cell_angle_alpha    90
_cell_angle_beta     90
_cell_angle_gamma    90

_symmetry_space_group_name_H-M    "P 1"
_symmetry_int_tables_number       1

loop_
  _symmetry_equiv_pos_as_xyz
  'x, y, z'

loop_
  _atom_site_label
  _atom_site_occupancy
  _atom_site_fract_x
  _atom_site_fract_y
  _atom_site_fract_z
  _atom_site_thermal_displace_type
  _atom_site_B_iso_or_equiv
  _atom_site_type_symbol
  Cu1      1.0000 0.73333  0.23546  0.24960  Biso   1.000  Cu
  Cu2      1.0000 0.26667  0.76454  0.74960  Biso   1.000  Cu
  Cu3      1.0000 0.76667  0.73546  0.74960  Biso   1.000  Cu
  Cu4      1.0000 0.23333  0.26454  0.24960  Biso   1.000  Cu
  C1       1.0000 0.68810  0.98140  0.38480  Biso   1.000  C
  C2       1.0000 0.31190  0.01860  0.88480  Biso   1.000  C
  C3       1.0000 0.81190  0.48140  0.88480  Biso   1.000  C
  C4       1.0000 0.18810  0.51860  0.38480  Biso   1.000  C
  N1       1.0000 0.74860  0.07660  0.37300  Biso   1.000  N
  N2       1.0000 0.25140  0.92340  0.87300  Biso   1.000  N
  N3       1.0000 0.75140  0.57660  0.87300  Biso   1.000  N
  N4       1.0000 0.24860  0.42340  0.37300  Biso   1.000  N
  C5       1.0000 0.82480  0.06530  0.46470  Biso   1.000  C
  C6       1.0000 0.17520  0.93470  0.96470  Biso   1.000  C
  C7       1.0000 0.67520  0.56530  0.96470  Biso   1.000  C
  C8       1.0000 0.32480  0.43470  0.46470  Biso   1.000  C
  C9       1.0000 0.89200  0.16240  0.45460  Biso   1.000  C
  C10      1.0000 0.10800  0.83760  0.95460  Biso   1.000  C
  C11      1.0000 0.60800  0.66240  0.95460  Biso   1.000  C
  C12      1.0000 0.39200  0.33760  0.45460  Biso   1.000  C
  H1       1.0000 0.88710  0.23380  0.38550  Biso   1.000  H
  H2       1.0000 0.11290  0.76620  0.88550  Biso   1.000  H
  H3       1.0000 0.61290  0.73380  0.88550  Biso   1.000  H
  H4       1.0000 0.38710  0.26620  0.38550  Biso   1.000  H
  C13      1.0000 0.96530  0.15120  0.54780  Biso   1.000  C
  C14      1.0000 0.03470  0.84880  0.04780  Biso   1.000  C
  C15      1.0000 0.53470  0.65120  0.04780  Biso   1.000  C
  C16      1.0000 0.46530  0.34880  0.54780  Biso   1.000  C
  H5       1.0000 0.00940  0.21680  0.54430  Biso   1.000  H
  H6       1.0000 0.99060  0.78320  0.04430  Biso   1.000  H
  H7       1.0000 0.49060  0.71680  0.04430  Biso   1.000  H
  H8       1.0000 0.50940  0.28320  0.54430  Biso   1.000  H
  C17      1.0000 0.97350  0.04130  0.64790  Biso   1.000  C
  C18      1.0000 0.02650  0.95870  0.14790  Biso   1.000  C
  C19      1.0000 0.52650  0.54130  0.14790  Biso   1.000  C
  C20      1.0000 0.47350  0.45870  0.64790  Biso   1.000  C
  H9       1.0000 0.02490  0.03270  0.70630  Biso   1.000  H
  H10      1.0000 0.97510  0.96730  0.20630  Biso   1.000  H
  H11      1.0000 0.47510  0.53270  0.20630  Biso   1.000  H
  H12      1.0000 0.52490  0.46730  0.70630  Biso   1.000  H
  C21      1.0000 0.90940  0.94780  0.66200  Biso   1.000  C
  C22      1.0000 0.09060  0.05220  0.16200  Biso   1.000  C
  C23      1.0000 0.59060  0.44780  0.16200  Biso   1.000  C
  C24      1.0000 0.40940  0.55220  0.66200  Biso   1.000  C
  H13      1.0000 0.91630  0.87750  0.73190  Biso   1.000  H
  H14      1.0000 0.08370  0.12250  0.23190  Biso   1.000  H
  H15      1.0000 0.58370  0.37750  0.23190  Biso   1.000  H
  H16      1.0000 0.41630  0.62250  0.73190  Biso   1.000  H
  C25      1.0000 0.83230  0.95480  0.57290  Biso   1.000  C
  C26      1.0000 0.16770  0.04520  0.07290  Biso   1.000  C
  C27      1.0000 0.66770  0.45480  0.07290  Biso   1.000  C
  C28      1.0000 0.33230  0.54520  0.57290  Biso   1.000  C
  N5       1.0000 0.76290  0.86490  0.58940  Biso   1.000  N
  N6       1.0000 0.23710  0.13510  0.08940  Biso   1.000  N
  N7       1.0000 0.73710  0.36490  0.08940  Biso   1.000  N
  N8       1.0000 0.26290  0.63510  0.58940  Biso   1.000  N
  C29      1.0000 0.60900  0.98990  0.28280  Biso   1.000  C
  C30      1.0000 0.39100  0.01010  0.78280  Biso   1.000  C
  C31      1.0000 0.89100  0.48990  0.78280  Biso   1.000  C
  C32      1.0000 0.10900  0.51010  0.28280  Biso   1.000  C
  H17      1.0000 0.60320  0.90730  0.22570  Biso   1.000  H
  H18      1.0000 0.39680  0.09270  0.72570  Biso   1.000  H
  H19      1.0000 0.89680  0.40730  0.72570  Biso   1.000  H
  H20      1.0000 0.10320  0.59270  0.22570  Biso   1.000  H
  H21      1.0000 0.61600  0.06420  0.21290  Biso   1.000  H
  H22      1.0000 0.38400  0.93580  0.71290  Biso   1.000  H
  H23      1.0000 0.88400  0.56420  0.71290  Biso   1.000  H
  H24      1.0000 0.11600  0.43580  0.21290  Biso   1.000  H
  H25      1.0000 0.55680  0.00350  0.34410  Biso   1.000  H
  H26      1.0000 0.44320  0.99650  0.84410  Biso   1.000  H
  H27      1.0000 0.94320  0.50350  0.84410  Biso   1.000  H
  H28      1.0000 0.05680  0.49650  0.34410  Biso   1.000  H
  C33      1.0000 0.69570  0.87070  0.49190  Biso   1.000  C
  C34      1.0000 0.30430  0.12930  0.99190  Biso   1.000  C
  C35      1.0000 0.80430  0.37070  0.99190  Biso   1.000  C
  C36      1.0000 0.19570  0.62930  0.49190  Biso   1.000  C
  C37      1.0000 0.62210  0.76810  0.50600  Biso   1.000  C
  C38      1.0000 0.37790  0.23190  0.00600  Biso   1.000  C
  C39      1.0000 0.87790  0.26810  0.00600  Biso   1.000  C
  C40      1.0000 0.12210  0.73190  0.50600  Biso   1.000  C
  H29      1.0000 0.60910  0.73130  0.40600  Biso   1.000  H
  H30      1.0000 0.39090  0.26870  0.90600  Biso   1.000  H
  H31      1.0000 0.89090  0.23130  0.90600  Biso   1.000  H
  H32      1.0000 0.10910  0.76870  0.40600  Biso   1.000  H
  H33      1.0000 0.57000  0.81100  0.54630  Biso   1.000  H
  H34      1.0000 0.43000  0.18900  0.04630  Biso   1.000  H
  H35      1.0000 0.93000  0.31100  0.04630  Biso   1.000  H
  H36      1.0000 0.07000  0.68900  0.54630  Biso   1.000  H
  H37      1.0000 0.64040  0.69670  0.57330  Biso   1.000  H
  H38      1.0000 0.35960  0.30330  0.07330  Biso   1.000  H
  H39      1.0000 0.85960  0.19670  0.07330  Biso   1.000  H
  H40      1.0000 0.14040  0.80330  0.57330  Biso   1.000  H
  O1       1.0000 0.70680  0.36800  0.46290  Biso   1.000  O
  O2       1.0000 0.29320  0.63200  0.96290  Biso   1.000  O
  O3       1.0000 0.79320  0.86800  0.96290  Biso   1.000  O
  O4       1.0000 0.20680  0.13200  0.46290  Biso   1.000  O
  B1       1.0000 0.64010  0.14300  0.80600  Biso   1.000  B
  B2       1.0000 0.35990  0.85700  0.30600  Biso   1.000  B
  B3       1.0000 0.85990  0.64300  0.30600  Biso   1.000  B
  B4       1.0000 0.14010  0.35700  0.80600  Biso   1.000  B
  F1       1.0000 0.60430  0.07450  0.68450  Biso   1.000  F
  F2       1.0000 0.39570  0.92550  0.18450  Biso   1.000  F
  F3       1.0000 0.89570  0.57450  0.18450  Biso   1.000  F
  F4       1.0000 0.10430  0.42550  0.68450  Biso   1.000  F
  F5       1.0000 0.69820  0.07900  0.89200  Biso   1.000  F
  F6       1.0000 0.30180  0.92100  0.39200  Biso   1.000  F
  F7       1.0000 0.80180  0.57900  0.39200  Biso   1.000  F
  F8       1.0000 0.19820  0.42100  0.89200  Biso   1.000  F
  F9       1.0000 0.58370  0.20660  0.88800  Biso   1.000  F
  F10      1.0000 0.41630  0.79340  0.38800  Biso   1.000  F
  F11      1.0000 0.91630  0.70660  0.38800  Biso   1.000  F
  F12      1.0000 0.08370  0.29340  0.88800  Biso   1.000  F
  F13      1.0000 0.69520  0.22700  0.74000  Biso   1.000  F
  F14      1.0000 0.30480  0.77300  0.24000  Biso   1.000  F
  F15      1.0000 0.80480  0.72700  0.24000  Biso   1.000  F
  F16      1.0000 0.19520  0.27300  0.74000  Biso   1.000  F
