data_image0
_cell_length_a       10.451
_cell_length_b       8.557
_cell_length_c       16.569
_cell_angle_alpha    90
_cell_angle_beta     95.5
_cell_angle_gamma    90

_symmetry_space_group_name_H-M    "P 1"
_symmetry_int_tables_number       1

loop_
  _symmetry_equiv_pos_as_xyz
  'x, y, z'

loop_
  _atom_site_label
  _atom_site_occupancy
  _atom_site_fract_x
  _atom_site_fract_y
  _atom_site_fract_z
  _atom_site_thermal_displace_type
  _atom_site_B_iso_or_equiv
  _atom_site_type_symbol
  Cu1      1.0000 0.05186  0.14378  0.04353  Biso   1.000  Cu
  Cu2      1.0000 0.94814  0.64378  0.45647  Biso   1.000  Cu
  Cu3      1.0000 0.94814  0.85622  0.95647  Biso   1.000  Cu
  Cu4      1.0000 0.05186  0.35622  0.54353  Biso   1.000  Cu
  N1       1.0000 0.92670  0.27930  0.99280  Biso   1.000  N
  N2       1.0000 0.07330  0.77930  0.50720  Biso   1.000  N
  N3       1.0000 0.07330  0.72070  0.00720  Biso   1.000  N
  N4       1.0000 0.92670  0.22070  0.49280  Biso   1.000  N
  N5       1.0000 0.17350  0.46390  0.61430  Biso   1.000  N
  N6       1.0000 0.82650  0.96390  0.88570  Biso   1.000  N
  N7       1.0000 0.82650  0.53610  0.38570  Biso   1.000  N
  N8       1.0000 0.17350  0.03610  0.11430  Biso   1.000  N
  C1       1.0000 0.93650  0.34520  0.92000  Biso   1.000  C
  C2       1.0000 0.06350  0.84520  0.58000  Biso   1.000  C
  C3       1.0000 0.06350  0.65480  0.08000  Biso   1.000  C
  C4       1.0000 0.93650  0.15480  0.42000  Biso   1.000  C
  H1       1.0000 0.00610  0.31840  0.89180  Biso   1.000  H
  H2       1.0000 0.99390  0.81840  0.60820  Biso   1.000  H
  H3       1.0000 0.99390  0.68160  0.10820  Biso   1.000  H
  H4       1.0000 0.00610  0.18160  0.39180  Biso   1.000  H
  C5       1.0000 0.84810  0.45080  0.88520  Biso   1.000  C
  C6       1.0000 0.15190  0.95080  0.61480  Biso   1.000  C
  C7       1.0000 0.15190  0.54920  0.11480  Biso   1.000  C
  C8       1.0000 0.84810  0.04920  0.38520  Biso   1.000  C
  H5       1.0000 0.85760  0.49130  0.83410  Biso   1.000  H
  H6       1.0000 0.14240  0.99130  0.66590  Biso   1.000  H
  H7       1.0000 0.14240  0.50870  0.16590  Biso   1.000  H
  H8       1.0000 0.85760  0.00870  0.33410  Biso   1.000  H
  C9       1.0000 0.74540  0.49650  0.92630  Biso   1.000  C
  C10      1.0000 0.25460  0.99650  0.57370  Biso   1.000  C
  C11      1.0000 0.25460  0.50350  0.07370  Biso   1.000  C
  C12      1.0000 0.74540  0.00350  0.42630  Biso   1.000  C
  C13      1.0000 0.73560  0.42680  0.00050  Biso   1.000  C
  C14      1.0000 0.26440  0.92680  0.49950  Biso   1.000  C
  C15      1.0000 0.26440  0.57320  0.99950  Biso   1.000  C
  C16      1.0000 0.73560  0.07320  0.50050  Biso   1.000  C
  H9       1.0000 0.66740  0.45170  0.03030  Biso   1.000  H
  H10      1.0000 0.33260  0.95170  0.46970  Biso   1.000  H
  H11      1.0000 0.33260  0.54830  0.96970  Biso   1.000  H
  H12      1.0000 0.66740  0.04830  0.53030  Biso   1.000  H
  C17      1.0000 0.82660  0.32050  0.03040  Biso   1.000  C
  C18      1.0000 0.17340  0.82050  0.46960  Biso   1.000  C
  C19      1.0000 0.17340  0.67950  0.96960  Biso   1.000  C
  C20      1.0000 0.82660  0.17950  0.53040  Biso   1.000  C
  H13      1.0000 0.81690  0.27490  0.08040  Biso   1.000  H
  H14      1.0000 0.18310  0.77490  0.41960  Biso   1.000  H
  H15      1.0000 0.18310  0.72510  0.91960  Biso   1.000  H
  H16      1.0000 0.81690  0.22510  0.58040  Biso   1.000  H
  C21      1.0000 0.64730  0.61190  0.89050  Biso   1.000  C
  C22      1.0000 0.35270  0.11190  0.60950  Biso   1.000  C
  C23      1.0000 0.35270  0.38810  0.10950  Biso   1.000  C
  C24      1.0000 0.64730  0.88810  0.39050  Biso   1.000  C
  H17      1.0000 0.69070  0.69350  0.86310  Biso   1.000  H
  H18      1.0000 0.30930  0.19350  0.63690  Biso   1.000  H
  H19      1.0000 0.30930  0.30650  0.13690  Biso   1.000  H
  H20      1.0000 0.69070  0.80650  0.36310  Biso   1.000  H
  H21      1.0000 0.60540  0.66020  0.93400  Biso   1.000  H
  H22      1.0000 0.39460  0.16020  0.56600  Biso   1.000  H
  H23      1.0000 0.39460  0.33980  0.06600  Biso   1.000  H
  H24      1.0000 0.60540  0.83980  0.43400  Biso   1.000  H
  C25      1.0000 0.54600  0.53770  0.83100  Biso   1.000  C
  C26      1.0000 0.45400  0.03770  0.66900  Biso   1.000  C
  C27      1.0000 0.45400  0.46230  0.16900  Biso   1.000  C
  C28      1.0000 0.54600  0.96230  0.33100  Biso   1.000  C
  H25      1.0000 0.49500  0.46510  0.85940  Biso   1.000  H
  H26      1.0000 0.50500  0.96510  0.64060  Biso   1.000  H
  H27      1.0000 0.50500  0.53490  0.14060  Biso   1.000  H
  H28      1.0000 0.49500  0.03490  0.35940  Biso   1.000  H
  H29      1.0000 0.58750  0.47970  0.79050  Biso   1.000  H
  H30      1.0000 0.41250  0.97970  0.70950  Biso   1.000  H
  H31      1.0000 0.41250  0.52030  0.20950  Biso   1.000  H
  H32      1.0000 0.58750  0.02030  0.29050  Biso   1.000  H
  C29      1.0000 0.45850  0.66230  0.78940  Biso   1.000  C
  C30      1.0000 0.54150  0.16230  0.71060  Biso   1.000  C
  C31      1.0000 0.54150  0.33770  0.21060  Biso   1.000  C
  C32      1.0000 0.45850  0.83770  0.28940  Biso   1.000  C
  H33      1.0000 0.41660  0.71870  0.83030  Biso   1.000  H
  H34      1.0000 0.58340  0.21870  0.66970  Biso   1.000  H
  H35      1.0000 0.58340  0.28130  0.16970  Biso   1.000  H
  H36      1.0000 0.41660  0.78130  0.33030  Biso   1.000  H
  H37      1.0000 0.51070  0.73630  0.76270  Biso   1.000  H
  H38      1.0000 0.48930  0.23630  0.73730  Biso   1.000  H
  H39      1.0000 0.48930  0.26370  0.23730  Biso   1.000  H
  H40      1.0000 0.51070  0.76370  0.26270  Biso   1.000  H
  C33      1.0000 0.35760  0.59730  0.72800  Biso   1.000  C
  C34      1.0000 0.64240  0.09730  0.77200  Biso   1.000  C
  C35      1.0000 0.64240  0.40270  0.27200  Biso   1.000  C
  C36      1.0000 0.35760  0.90270  0.22800  Biso   1.000  C
  C37      1.0000 0.37830  0.58300  0.64650  Biso   1.000  C
  C38      1.0000 0.62170  0.08300  0.85350  Biso   1.000  C
  C39      1.0000 0.62170  0.41700  0.35350  Biso   1.000  C
  C40      1.0000 0.37830  0.91700  0.14650  Biso   1.000  C
  H41      1.0000 0.45500  0.61790  0.62870  Biso   1.000  H
  H42      1.0000 0.54500  0.11790  0.87130  Biso   1.000  H
  H43      1.0000 0.54500  0.38210  0.37130  Biso   1.000  H
  H44      1.0000 0.45500  0.88210  0.12870  Biso   1.000  H
  C41      1.0000 0.28590  0.51760  0.59270  Biso   1.000  C
  C42      1.0000 0.71410  0.01760  0.90730  Biso   1.000  C
  C43      1.0000 0.71410  0.48240  0.40730  Biso   1.000  C
  C44      1.0000 0.28590  0.98240  0.09270  Biso   1.000  C
  H45      1.0000 0.30190  0.51000  0.53860  Biso   1.000  H
  H46      1.0000 0.69810  0.01000  0.96140  Biso   1.000  H
  H47      1.0000 0.69810  0.49000  0.46140  Biso   1.000  H
  H48      1.0000 0.30190  0.99000  0.03860  Biso   1.000  H
  C45      1.0000 0.15310  0.47880  0.69190  Biso   1.000  C
  C46      1.0000 0.84690  0.97880  0.80810  Biso   1.000  C
  C47      1.0000 0.84690  0.52120  0.30810  Biso   1.000  C
  C48      1.0000 0.15310  0.02120  0.19190  Biso   1.000  C
  H49      1.0000 0.07500  0.44460  0.70800  Biso   1.000  H
  H50      1.0000 0.92500  0.94460  0.79200  Biso   1.000  H
  H51      1.0000 0.92500  0.55540  0.29200  Biso   1.000  H
  H52      1.0000 0.07500  0.05540  0.20800  Biso   1.000  H
  C49      1.0000 0.24180  0.54240  0.74950  Biso   1.000  C
  C50      1.0000 0.75820  0.04240  0.75050  Biso   1.000  C
  C51      1.0000 0.75820  0.45760  0.25050  Biso   1.000  C
  C52      1.0000 0.24180  0.95760  0.24950  Biso   1.000  C
  H53      1.0000 0.22330  0.54820  0.80320  Biso   1.000  H
  H54      1.0000 0.77670  0.04820  0.69680  Biso   1.000  H
  H55      1.0000 0.77670  0.45180  0.19680  Biso   1.000  H
  H56      1.0000 0.22330  0.95180  0.30320  Biso   1.000  H
  B1       1.0000 0.22780  0.10190  0.85880  Biso   1.000  B
  B2       1.0000 0.77220  0.60190  0.64120  Biso   1.000  B
  B3       1.0000 0.77220  0.89810  0.14120  Biso   1.000  B
  B4       1.0000 0.22780  0.39810  0.35880  Biso   1.000  B
  F1       1.0000 0.17480  0.16630  0.78780  Biso   1.000  F
  F2       1.0000 0.82520  0.66630  0.71220  Biso   1.000  F
  F3       1.0000 0.82520  0.83370  0.21220  Biso   1.000  F
  F4       1.0000 0.17480  0.33370  0.28780  Biso   1.000  F
  F5       1.0000 0.31060  0.97860  0.85740  Biso   1.000  F
  F6       1.0000 0.68940  0.47860  0.64260  Biso   1.000  F
  F7       1.0000 0.68940  0.02140  0.14260  Biso   1.000  F
  F8       1.0000 0.31060  0.52140  0.35740  Biso   1.000  F
  F9       1.0000 0.30500  0.21490  0.89620  Biso   1.000  F
  F10      1.0000 0.69500  0.71490  0.60380  Biso   1.000  F
  F11      1.0000 0.69500  0.78510  0.10380  Biso   1.000  F
  F12      1.0000 0.30500  0.28510  0.39620  Biso   1.000  F
  F13      1.0000 0.13920  0.05910  0.91030  Biso   1.000  F
  F14      1.0000 0.86080  0.55910  0.58970  Biso   1.000  F
  F15      1.0000 0.86080  0.94090  0.08970  Biso   1.000  F
  F16      1.0000 0.13920  0.44090  0.41030  Biso   1.000  F
  F17      1.0000 0.13140  0.14300  0.80080  Biso   1.000  F
  F18      1.0000 0.86860  0.64300  0.69920  Biso   1.000  F
  F19      1.0000 0.86860  0.85700  0.19920  Biso   1.000  F
  F20      1.0000 0.13140  0.35700  0.30080  Biso   1.000  F
  F21      1.0000 0.20100  0.95350  0.83120  Biso   1.000  F
  F22      1.0000 0.79900  0.45350  0.66880  Biso   1.000  F
  F23      1.0000 0.79900  0.04650  0.16880  Biso   1.000  F
  F24      1.0000 0.20100  0.54650  0.33120  Biso   1.000  F
  F25      1.0000 0.31980  0.18800  0.82580  Biso   1.000  F
  F26      1.0000 0.68020  0.68800  0.67420  Biso   1.000  F
  F27      1.0000 0.68020  0.81200  0.17420  Biso   1.000  F
  F28      1.0000 0.31980  0.31200  0.32580  Biso   1.000  F
  F29      1.0000 0.20080  0.17400  0.92890  Biso   1.000  F
  F30      1.0000 0.79920  0.67400  0.57110  Biso   1.000  F
  F31      1.0000 0.79920  0.82600  0.07110  Biso   1.000  F
  F32      1.0000 0.20080  0.32600  0.42890  Biso   1.000  F
