data_image0
_cell_length_a       5.3337
_cell_length_b       5.33121
_cell_length_c       18.875
_cell_angle_alpha    90
_cell_angle_beta     94.036
_cell_angle_gamma    90

_symmetry_space_group_name_H-M    "P 1"
_symmetry_int_tables_number       1

loop_
  _symmetry_equiv_pos_as_xyz
  'x, y, z'

loop_
  _atom_site_label
  _atom_site_occupancy
  _atom_site_fract_x
  _atom_site_fract_y
  _atom_site_fract_z
  _atom_site_thermal_displace_type
  _atom_site_B_iso_or_equiv
  _atom_site_type_symbol
  Cu1      1.0000 0.25000  0.82680  0.25000  Biso   1.000  Cu
  Cu2      1.0000 0.75000  0.17320  0.75000  Biso   1.000  Cu
  N1       1.0000 0.96520  0.97590  0.69160  Biso   1.000  N
  N2       1.0000 0.53480  0.97590  0.80840  Biso   1.000  N
  N3       1.0000 0.03480  0.02410  0.30840  Biso   1.000  N
  N4       1.0000 0.46520  0.02410  0.19160  Biso   1.000  N
  C1       1.0000 0.12920  0.89400  0.66360  Biso   1.000  C
  C2       1.0000 0.37080  0.89400  0.83640  Biso   1.000  C
  C3       1.0000 0.87080  0.10600  0.33640  Biso   1.000  C
  C4       1.0000 0.62920  0.10600  0.16360  Biso   1.000  C
  N5       1.0000 0.54310  0.40410  0.68860  Biso   1.000  N
  N6       1.0000 0.95690  0.40410  0.81140  Biso   1.000  N
  N7       1.0000 0.45690  0.59590  0.31140  Biso   1.000  N
  N8       1.0000 0.04310  0.59590  0.18860  Biso   1.000  N
  C5       1.0000 0.44210  0.57430  0.66040  Biso   1.000  C
  C6       1.0000 0.05790  0.57430  0.83960  Biso   1.000  C
  C7       1.0000 0.55790  0.42570  0.33960  Biso   1.000  C
  C8       1.0000 0.94210  0.42570  0.16040  Biso   1.000  C
  C9       1.0000 0.32150  0.78390  0.62570  Biso   1.000  C
  C10      1.0000 0.17850  0.78390  0.87430  Biso   1.000  C
  C11      1.0000 0.67850  0.21610  0.37430  Biso   1.000  C
  C12      1.0000 0.82150  0.21610  0.12570  Biso   1.000  C
  C13      1.0000 0.42040  0.89330  0.56280  Biso   1.000  C
  C14      1.0000 0.07960  0.89330  0.93720  Biso   1.000  C
  C15      1.0000 0.57960  0.10670  0.43720  Biso   1.000  C
  C16      1.0000 0.92040  0.10670  0.06280  Biso   1.000  C
  C17      1.0000 0.29250  0.10700  0.53080  Biso   1.000  C
  C18      1.0000 0.20750  0.10700  0.96920  Biso   1.000  C
  C19      1.0000 0.70750  0.89300  0.46920  Biso   1.000  C
  C20      1.0000 0.79250  0.89300  0.03080  Biso   1.000  C
  C21      1.0000 0.61720  0.79200  0.53000  Biso   1.000  C
  C22      1.0000 0.88280  0.79200  0.97000  Biso   1.000  C
  C23      1.0000 0.38280  0.20800  0.47000  Biso   1.000  C
  C24      1.0000 0.11720  0.20800  0.03000  Biso   1.000  C
  H1       1.0000 0.14970  0.17700  0.55080  Biso   1.000  H
  H2       1.0000 0.35030  0.17700  0.94920  Biso   1.000  H
  H3       1.0000 0.85030  0.82300  0.44920  Biso   1.000  H
  H4       1.0000 0.64970  0.82300  0.05080  Biso   1.000  H
  H5       1.0000 0.69560  0.64550  0.54980  Biso   1.000  H
  H6       1.0000 0.80440  0.64550  0.95020  Biso   1.000  H
  H7       1.0000 0.30440  0.35450  0.45020  Biso   1.000  H
  H8       1.0000 0.19560  0.35450  0.04980  Biso   1.000  H
