data_image0
_cell_length_a       15.319
_cell_length_b       20.976
_cell_length_c       23.667
_cell_angle_alpha    90
_cell_angle_beta     105.245
_cell_angle_gamma    90

_symmetry_space_group_name_H-M    "P 1"
_symmetry_int_tables_number       1

loop_
  _symmetry_equiv_pos_as_xyz
  'x, y, z'

loop_
  _atom_site_label
  _atom_site_occupancy
  _atom_site_fract_x
  _atom_site_fract_y
  _atom_site_fract_z
  _atom_site_thermal_displace_type
  _atom_site_B_iso_or_equiv
  _atom_site_type_symbol
  La1      1.0000 0.00322  0.21267  0.96999  Biso   1.000  La
  La2      1.0000 0.99678  0.71267  0.03001  Biso   1.000  La
  La3      1.0000 0.29078  0.04351  0.74471  Biso   1.000  La
  La4      1.0000 0.70922  0.54351  0.25529  Biso   1.000  La
  Pd1      1.0000 0.11535  0.40154  0.80177  Biso   1.000  Pd
  Pd2      1.0000 0.88465  0.90154  0.19823  Biso   1.000  Pd
  Pd3      1.0000 0.45828  0.86084  0.18497  Biso   1.000  Pd
  Pd4      1.0000 0.54172  0.36084  0.81503  Biso   1.000  Pd
  Pd5      1.0000 0.58732  0.07485  0.00386  Biso   1.000  Pd
  Pd6      1.0000 0.41268  0.57485  0.99614  Biso   1.000  Pd
  Pd7      1.0000 0.84856  0.21870  0.24041  Biso   1.000  Pd
  Pd8      1.0000 0.15144  0.71870  0.75959  Biso   1.000  Pd
  Pd9      1.0000 0.72026  0.00645  0.41184  Biso   1.000  Pd
  Pd10     1.0000 0.27974  0.50645  0.58816  Biso   1.000  Pd
  Pd11     1.0000 0.40858  0.17811  0.22135  Biso   1.000  Pd
  Pd12     1.0000 0.59142  0.67811  0.77865  Biso   1.000  Pd
  Cu1      1.0000 0.21280  0.56942  0.85679  Biso   1.000  Cu
  Cu2      1.0000 0.78720  0.06942  0.14321  Biso   1.000  Cu
  Cu3      1.0000 0.82319  0.04059  0.28525  Biso   1.000  Cu
  Cu4      1.0000 0.17681  0.54059  0.71475  Biso   1.000  Cu
  Cu5      1.0000 0.70295  0.88287  0.28401  Biso   1.000  Cu
  Cu6      1.0000 0.29705  0.38287  0.71599  Biso   1.000  Cu
  Cu7      1.0000 0.36407  0.44612  0.87261  Biso   1.000  Cu
  Cu8      1.0000 0.63593  0.94612  0.12739  Biso   1.000  Cu
  Cu9      1.0000 0.61192  0.15750  0.15491  Biso   1.000  Cu
  Cu10     1.0000 0.38808  0.65750  0.84509  Biso   1.000  Cu
  Cu11     1.0000 0.65585  0.14613  0.30055  Biso   1.000  Cu
  Cu12     1.0000 0.34415  0.64613  0.69945  Biso   1.000  Cu
  Cu13     1.0000 0.52822  0.01517  0.27211  Biso   1.000  Cu
  Cu14     1.0000 0.47178  0.51517  0.72789  Biso   1.000  Cu
  Cu15     1.0000 0.46778  0.03830  0.12763  Biso   1.000  Cu
  Cu16     1.0000 0.53222  0.53830  0.87237  Biso   1.000  Cu
  Cl1      1.0000 0.64808  0.04284  0.20800  Biso   1.000  Cl
  Cl2      1.0000 0.35192  0.54284  0.79200  Biso   1.000  Cl
  Cl3      1.0000 0.73457  0.78064  0.33099  Biso   1.000  Cl
  Cl4      1.0000 0.26543  0.28064  0.66901  Biso   1.000  Cl
  S1       1.0000 0.21295  0.46242  0.87023  Biso   1.000  S
  S2       1.0000 0.78705  0.96242  0.12977  Biso   1.000  S
  S3       1.0000 0.16252  0.43258  0.72148  Biso   1.000  S
  S4       1.0000 0.83748  0.93258  0.27852  Biso   1.000  S
  S5       1.0000 0.39104  0.36918  0.81099  Biso   1.000  S
  S6       1.0000 0.60896  0.86918  0.18901  Biso   1.000  S
  S7       1.0000 0.43235  0.96735  0.19163  Biso   1.000  S
  S8       1.0000 0.56765  0.46735  0.80837  Biso   1.000  S
  S9       1.0000 0.53061  0.00153  0.05662  Biso   1.000  S
  S10      1.0000 0.46939  0.50153  0.94338  Biso   1.000  S
  S11      1.0000 0.67727  0.12723  0.08219  Biso   1.000  S
  S12      1.0000 0.32273  0.62723  0.91781  Biso   1.000  S
  S13      1.0000 0.87167  0.11262  0.22736  Biso   1.000  S
  S14      1.0000 0.12833  0.61262  0.77264  Biso   1.000  S
  S15      1.0000 0.69716  0.21086  0.23537  Biso   1.000  S
  S16      1.0000 0.30284  0.71086  0.76463  Biso   1.000  S
  S17      1.0000 0.62795  0.95033  0.33611  Biso   1.000  S
  S18      1.0000 0.37205  0.45033  0.66389  Biso   1.000  S
  S19      1.0000 0.76461  0.08322  0.35715  Biso   1.000  S
  S20      1.0000 0.23539  0.58322  0.64285  Biso   1.000  S
  S21      1.0000 0.45837  0.14528  0.14343  Biso   1.000  S
  S22      1.0000 0.54163  0.64528  0.85657  Biso   1.000  S
  S23      1.0000 0.51012  0.12175  0.29123  Biso   1.000  S
  S24      1.0000 0.48988  0.62175  0.70877  Biso   1.000  S
  O1       1.0000 0.04340  0.32750  0.96610  Biso   1.000  O
  O2       1.0000 0.95660  0.82750  0.03390  Biso   1.000  O
  O3       1.0000 0.04370  0.41890  0.01092  Biso   1.000  O
  O4       1.0000 0.95630  0.91890  0.98908  Biso   1.000  O
  O5       1.0000 0.89340  0.29810  0.65620  Biso   1.000  O
  O6       1.0000 0.10660  0.79810  0.34380  Biso   1.000  O
  O7       1.0000 0.98540  0.27260  0.59820  Biso   1.000  O
  O8       1.0000 0.01460  0.77260  0.40180  Biso   1.000  O
  O9       1.0000 0.47860  0.15219  0.86859  Biso   1.000  O
  O10      1.0000 0.52140  0.65219  0.13141  Biso   1.000  O
  O11      1.0000 0.35720  0.14070  0.79461  Biso   1.000  O
  O12      1.0000 0.64280  0.64070  0.20539  Biso   1.000  O
  O13      1.0000 0.14740  0.85590  0.18561  Biso   1.000  O
  O14      1.0000 0.85260  0.35590  0.81439  Biso   1.000  O
  O15      1.0000 0.11220  0.93760  0.12440  Biso   1.000  O
  O16      1.0000 0.88780  0.43760  0.87560  Biso   1.000  O
  O17      1.0000 0.36120  0.99774  0.84447  Biso   1.000  O
  O18      1.0000 0.63880  0.49774  0.15553  Biso   1.000  O
  O19      1.0000 0.26830  0.98100  0.89824  Biso   1.000  O
  O20      1.0000 0.73170  0.48100  0.10176  Biso   1.000  O
  O21      1.0000 0.69400  0.24634  0.91007  Biso   1.000  O
  O22      1.0000 0.30600  0.74634  0.08993  Biso   1.000  O
  O23      1.0000 0.83510  0.23940  0.96064  Biso   1.000  O
  O24      1.0000 0.16490  0.73940  0.03936  Biso   1.000  O
  O25      1.0000 0.16313  0.21436  0.24229  Biso   1.000  O
  O26      1.0000 0.83687  0.71436  0.75771  Biso   1.000  O
  O27      1.0000 0.13390  0.16200  0.16130  Biso   1.000  O
  O28      1.0000 0.86610  0.66200  0.83870  Biso   1.000  O
  O29      1.0000 0.78490  0.43643  0.24520  Biso   1.000  O
  O30      1.0000 0.21510  0.93643  0.75480  Biso   1.000  O
  O31      1.0000 0.68510  0.42785  0.29620  Biso   1.000  O
  O32      1.0000 0.31490  0.92785  0.70380  Biso   1.000  O
  O33      1.0000 0.60100  0.85910  0.52012  Biso   1.000  O
  O34      1.0000 0.39900  0.35910  0.47988  Biso   1.000  O
  O35      1.0000 0.59290  0.78060  0.46393  Biso   1.000  O
  O36      1.0000 0.40710  0.28060  0.53607  Biso   1.000  O
  O37      1.0000 0.92530  0.12530  0.56010  Biso   1.000  O
  O38      1.0000 0.07470  0.62530  0.43990  Biso   1.000  O
  O39      1.0000 0.86680  0.21910  0.52490  Biso   1.000  O
  O40      1.0000 0.13320  0.71910  0.47510  Biso   1.000  O
  O41      1.0000 0.19240  0.28360  0.07370  Biso   1.000  O
  O42      1.0000 0.80760  0.78360  0.92630  Biso   1.000  O
  O43      1.0000 0.17730  0.20680  0.01270  Biso   1.000  O
  O44      1.0000 0.82270  0.70680  0.98730  Biso   1.000  O
  O45      1.0000 0.31340  0.25430  0.37760  Biso   1.000  O
  O46      1.0000 0.68660  0.75430  0.62240  Biso   1.000  O
  O47      1.0000 0.46280  0.28150  0.42170  Biso   1.000  O
  O48      1.0000 0.53720  0.78150  0.57830  Biso   1.000  O
  H1       1.0000 0.44210  0.30290  0.44520  Biso   1.000  H
  H2       1.0000 0.55790  0.80290  0.55480  Biso   1.000  H
  N1       1.0000 0.06290  0.37534  0.87005  Biso   1.000  N
  N2       1.0000 0.93710  0.87534  0.12995  Biso   1.000  N
  H3       1.0000 0.00100  0.37300  0.85620  Biso   1.000  H
  H4       1.0000 0.99900  0.87300  0.14380  Biso   1.000  H
  H5       1.0000 0.08350  0.33510  0.88200  Biso   1.000  H
  H6       1.0000 0.91650  0.83510  0.11800  Biso   1.000  H
  N3       1.0000 0.02790  0.33980  0.74230  Biso   1.000  N
  N4       1.0000 0.97210  0.83980  0.25770  Biso   1.000  N
  H7       1.0000 0.02940  0.30040  0.75970  Biso   1.000  H
  H8       1.0000 0.97060  0.80040  0.24030  Biso   1.000  H
  H9       1.0000 0.96990  0.35510  0.73560  Biso   1.000  H
  H10      1.0000 0.03010  0.85510  0.26440  Biso   1.000  H
  N5       1.0000 0.52160  0.26259  0.81606  Biso   1.000  N
  N6       1.0000 0.47840  0.76259  0.18394  Biso   1.000  N
  H11      1.0000 0.54450  0.24440  0.78760  Biso   1.000  H
  H12      1.0000 0.45550  0.74440  0.21240  Biso   1.000  H
  H13      1.0000 0.55450  0.24700  0.85160  Biso   1.000  H
  H14      1.0000 0.44550  0.74700  0.14840  Biso   1.000  H
  N7       1.0000 0.32050  0.85038  0.17548  Biso   1.000  N
  N8       1.0000 0.67950  0.35038  0.82452  Biso   1.000  N
  H15      1.0000 0.29960  0.81710  0.15030  Biso   1.000  H
  H16      1.0000 0.70040  0.31710  0.84970  Biso   1.000  H
  H17      1.0000 0.31150  0.83980  0.21120  Biso   1.000  H
  H18      1.0000 0.68850  0.33980  0.78880  Biso   1.000  H
  N9       1.0000 0.49160  0.03819  0.93134  Biso   1.000  N
  N10      1.0000 0.50840  0.53819  0.06866  Biso   1.000  N
  H19      1.0000 0.47230  0.07000  0.90420  Biso   1.000  H
  H20      1.0000 0.52770  0.57000  0.09580  Biso   1.000  H
  H21      1.0000 0.51770  0.00670  0.91420  Biso   1.000  H
  H22      1.0000 0.48230  0.50670  0.08580  Biso   1.000  H
  N11      1.0000 0.64520  0.13556  0.95275  Biso   1.000  N
  N12      1.0000 0.35480  0.63556  0.04725  Biso   1.000  N
  H23      1.0000 0.65900  0.11190  0.92350  Biso   1.000  H
  H24      1.0000 0.34100  0.61190  0.07650  Biso   1.000  H
  H25      1.0000 0.60310  0.16560  0.93520  Biso   1.000  H
  H26      1.0000 0.39690  0.66560  0.06480  Biso   1.000  H
  N13      1.0000 0.98230  0.23136  0.23638  Biso   1.000  N
  N14      1.0000 0.01770  0.73136  0.76362  Biso   1.000  N
  H27      1.0000 0.98680  0.26850  0.21660  Biso   1.000  H
  H28      1.0000 0.01320  0.76850  0.78340  Biso   1.000  H
  H29      1.0000 0.01970  0.23480  0.27370  Biso   1.000  H
  H30      1.0000 0.98030  0.73480  0.72630  Biso   1.000  H
  N15      1.0000 0.83160  0.31375  0.25657  Biso   1.000  N
  N16      1.0000 0.16840  0.81375  0.74343  Biso   1.000  N
  H31      1.0000 0.88360  0.32810  0.28260  Biso   1.000  H
  H32      1.0000 0.11640  0.82810  0.71740  Biso   1.000  H
  H33      1.0000 0.82530  0.33580  0.22220  Biso   1.000  H
  H34      1.0000 0.17470  0.83580  0.77780  Biso   1.000  H
  N17      1.0000 0.68820  0.93560  0.46511  Biso   1.000  N
  N18      1.0000 0.31180  0.43560  0.53489  Biso   1.000  N
  H35      1.0000 0.74040  0.92320  0.49210  Biso   1.000  H
  H36      1.0000 0.25960  0.42320  0.50790  Biso   1.000  H
  H37      1.0000 0.65010  0.95270  0.48540  Biso   1.000  H
  H38      1.0000 0.34990  0.45270  0.51460  Biso   1.000  H
  N19      1.0000 0.78970  0.05920  0.48130  Biso   1.000  N
  N20      1.0000 0.21030  0.55920  0.51870  Biso   1.000  N
  H39      1.0000 0.75610  0.06100  0.50820  Biso   1.000  H
  H40      1.0000 0.24390  0.56100  0.49180  Biso   1.000  H
  H41      1.0000 0.84260  0.03810  0.49860  Biso   1.000  H
  H42      1.0000 0.15740  0.53810  0.50140  Biso   1.000  H
  N21      1.0000 0.30250  0.22100  0.16160  Biso   1.000  N
  N22      1.0000 0.69750  0.72100  0.83840  Biso   1.000  N
  H43      1.0000 0.25040  0.21570  0.17340  Biso   1.000  H
  H44      1.0000 0.74960  0.71570  0.82660  Biso   1.000  H
  H45      1.0000 0.31350  0.26400  0.16050  Biso   1.000  H
  H46      1.0000 0.68650  0.76400  0.83950  Biso   1.000  H
  N23      1.0000 0.36980  0.21900  0.29070  Biso   1.000  N
  N24      1.0000 0.63020  0.71900  0.70930  Biso   1.000  N
  H47      1.0000 0.35800  0.26150  0.28290  Biso   1.000  H
  H48      1.0000 0.64200  0.76150  0.71710  Biso   1.000  H
  H49      1.0000 0.31700  0.20010  0.29370  Biso   1.000  H
  H50      1.0000 0.68300  0.70010  0.70630  Biso   1.000  H
  C1       1.0000 0.18450  0.43350  0.93911  Biso   1.000  C
  C2       1.0000 0.81550  0.93350  0.06089  Biso   1.000  C
  C3       1.0000 0.08360  0.41570  0.91930  Biso   1.000  C
  C4       1.0000 0.91640  0.91570  0.08070  Biso   1.000  C
  H51      1.0000 0.04780  0.45580  0.90890  Biso   1.000  H
  H52      1.0000 0.95220  0.95580  0.09110  Biso   1.000  H
  C5       1.0000 0.05710  0.38420  0.97180  Biso   1.000  C
  C6       1.0000 0.94290  0.88420  0.02820  Biso   1.000  C
  C7       1.0000 0.24320  0.38050  0.96590  Biso   1.000  C
  C8       1.0000 0.75680  0.88050  0.03410  Biso   1.000  C
  H53      1.0000 0.21780  0.35960  0.99510  Biso   1.000  H
  H54      1.0000 0.78220  0.85960  0.00490  Biso   1.000  H
  H55      1.0000 0.30370  0.39680  0.98500  Biso   1.000  H
  H56      1.0000 0.69630  0.89680  0.01500  Biso   1.000  H
  H57      1.0000 0.24720  0.34970  0.93560  Biso   1.000  H
  H58      1.0000 0.75280  0.84970  0.06440  Biso   1.000  H
  C9       1.0000 0.20120  0.49220  0.98180  Biso   1.000  C
  C10      1.0000 0.79880  0.99220  0.01820  Biso   1.000  C
  H59      1.0000 0.18640  0.53160  0.95910  Biso   1.000  H
  H60      1.0000 0.81360  0.03160  0.04090  Biso   1.000  H
  H61      1.0000 0.26490  0.49310  0.00410  Biso   1.000  H
  H62      1.0000 0.73510  0.99310  0.99590  Biso   1.000  H
  H63      1.0000 0.16290  0.48850  0.00890  Biso   1.000  H
  H64      1.0000 0.83710  0.98850  0.99110  Biso   1.000  H
  C11      1.0000 0.06380  0.39810  0.66380  Biso   1.000  C
  C12      1.0000 0.93620  0.89810  0.33620  Biso   1.000  C
  C13      1.0000 0.04830  0.33140  0.68610  Biso   1.000  C
  C14      1.0000 0.95170  0.83140  0.31390  Biso   1.000  C
  H65      1.0000 0.10360  0.30450  0.69070  Biso   1.000  H
  H66      1.0000 0.89640  0.80450  0.30930  Biso   1.000  H
  C15      1.0000 0.96730  0.30070  0.64230  Biso   1.000  C
  C16      1.0000 0.03270  0.80070  0.35770  Biso   1.000  C
  C17      1.0000 0.97890  0.44410  0.65760  Biso   1.000  C
  C18      1.0000 0.02110  0.94410  0.34240  Biso   1.000  C
  H67      1.0000 0.93850  0.44030  0.61810  Biso   1.000  H
  H68      1.0000 0.06150  0.94030  0.38190  Biso   1.000  H
  H69      1.0000 0.99990  0.48830  0.66450  Biso   1.000  H
  H70      1.0000 0.00010  0.98830  0.33550  Biso   1.000  H
  H71      1.0000 0.94630  0.43210  0.68650  Biso   1.000  H
  H72      1.0000 0.05370  0.93210  0.31350  Biso   1.000  H
  C19      1.0000 0.09320  0.39950  0.60540  Biso   1.000  C
  C20      1.0000 0.90680  0.89950  0.39460  Biso   1.000  C
  H73      1.0000 0.06870  0.36210  0.58180  Biso   1.000  H
  H74      1.0000 0.93130  0.86210  0.41820  Biso   1.000  H
  H75      1.0000 0.15930  0.39910  0.61430  Biso   1.000  H
  H76      1.0000 0.84070  0.89910  0.38570  Biso   1.000  H
  H77      1.0000 0.06980  0.43830  0.58360  Biso   1.000  H
  H78      1.0000 0.93020  0.93830  0.41640  Biso   1.000  H
  C21      1.0000 0.37710  0.28559  0.83844  Biso   1.000  C
  C22      1.0000 0.62290  0.78559  0.16156  Biso   1.000  C
  C23      1.0000 0.42770  0.24203  0.80661  Biso   1.000  C
  C24      1.0000 0.57230  0.74203  0.19339  Biso   1.000  C
  H79      1.0000 0.39790  0.24550  0.76370  Biso   1.000  H
  H80      1.0000 0.60210  0.74550  0.23630  Biso   1.000  H
  C25      1.0000 0.42020  0.17360  0.82420  Biso   1.000  C
  C26      1.0000 0.57980  0.67360  0.17580  Biso   1.000  C
  C27      1.0000 0.41980  0.28640  0.90474  Biso   1.000  C
  C28      1.0000 0.58020  0.78640  0.09526  Biso   1.000  C
  H81      1.0000 0.40380  0.32620  0.92130  Biso   1.000  H
  H82      1.0000 0.59620  0.82620  0.07870  Biso   1.000  H
  H83      1.0000 0.48570  0.28340  0.91250  Biso   1.000  H
  H84      1.0000 0.51430  0.78340  0.08750  Biso   1.000  H
  H85      1.0000 0.39720  0.25010  0.92280  Biso   1.000  H
  H86      1.0000 0.60280  0.75010  0.07720  Biso   1.000  H
  C29      1.0000 0.27690  0.27380  0.82510  Biso   1.000  C
  C30      1.0000 0.72310  0.77380  0.17490  Biso   1.000  C
  H87      1.0000 0.26540  0.22780  0.82350  Biso   1.000  H
  H88      1.0000 0.73460  0.72780  0.17650  Biso   1.000  H
  H89      1.0000 0.24670  0.29310  0.78730  Biso   1.000  H
  H90      1.0000 0.75330  0.79310  0.21270  Biso   1.000  H
  H91      1.0000 0.25330  0.29280  0.85590  Biso   1.000  H
  H92      1.0000 0.74670  0.79280  0.14410  Biso   1.000  H
  C31      1.0000 0.31010  0.96767  0.19349  Biso   1.000  C
  C32      1.0000 0.68990  0.46767  0.80651  Biso   1.000  C
  C33      1.0000 0.26650  0.90830  0.15300  Biso   1.000  C
  C34      1.0000 0.73350  0.40830  0.84700  Biso   1.000  C
  H93      1.0000 0.27030  0.91660  0.11210  Biso   1.000  H
  H94      1.0000 0.72970  0.41660  0.88790  Biso   1.000  H
  C35      1.0000 0.16500  0.90030  0.15220  Biso   1.000  C
  C36      1.0000 0.83500  0.40030  0.84780  Biso   1.000  C
  C37      1.0000 0.30430  0.95900  0.25570  Biso   1.000  C
  C38      1.0000 0.69570  0.45900  0.74430  Biso   1.000  C
  H95      1.0000 0.24110  0.96280  0.25710  Biso   1.000  H
  H96      1.0000 0.75890  0.46280  0.74290  Biso   1.000  H
  H97      1.0000 0.34060  0.99200  0.28060  Biso   1.000  H
  H98      1.0000 0.65940  0.49200  0.71940  Biso   1.000  H
  H99      1.0000 0.32750  0.91680  0.26990  Biso   1.000  H
  H100     1.0000 0.67250  0.41680  0.73010  Biso   1.000  H
  C39      1.0000 0.26490  0.03040  0.16400  Biso   1.000  C
  C40      1.0000 0.73510  0.53040  0.83600  Biso   1.000  C
  H101     1.0000 0.20060  0.03040  0.16310  Biso   1.000  H
  H102     1.0000 0.79940  0.53040  0.83690  Biso   1.000  H
  H103     1.0000 0.27120  0.03300  0.12390  Biso   1.000  H
  H104     1.0000 0.72880  0.53300  0.87610  Biso   1.000  H
  H105     1.0000 0.29470  0.06730  0.18650  Biso   1.000  H
  H106     1.0000 0.70530  0.56730  0.81350  Biso   1.000  H
  C41      1.0000 0.44860  0.95870  0.99476  Biso   1.000  C
  C42      1.0000 0.55140  0.45870  0.00524  Biso   1.000  C
  C43      1.0000 0.41450  0.01220  0.94845  Biso   1.000  C
  C44      1.0000 0.58550  0.51220  0.05155  Biso   1.000  C
  H107     1.0000 0.38920  0.04710  0.96820  Biso   1.000  H
  H108     1.0000 0.61080  0.54710  0.03180  Biso   1.000  H
  C45      1.0000 0.33950  0.99220  0.89310  Biso   1.000  C
  C46      1.0000 0.66050  0.49220  0.10690  Biso   1.000  C
  C47      1.0000 0.37210  0.93320  0.01990  Biso   1.000  C
  C48      1.0000 0.62790  0.43320  0.98010  Biso   1.000  C
  H109     1.0000 0.32940  0.90840  0.98990  Biso   1.000  H
  H110     1.0000 0.67060  0.40840  0.01010  Biso   1.000  H
  H111     1.0000 0.34030  0.96910  0.03210  Biso   1.000  H
  H112     1.0000 0.65970  0.46910  0.96790  Biso   1.000  H
  H113     1.0000 0.39800  0.90600  0.05390  Biso   1.000  H
  H114     1.0000 0.60200  0.40600  0.94610  Biso   1.000  H
  C49      1.0000 0.48930  0.90740  0.97140  Biso   1.000  C
  C50      1.0000 0.51070  0.40740  0.02860  Biso   1.000  C
  H115     1.0000 0.44780  0.89250  0.93490  Biso   1.000  H
  H116     1.0000 0.55220  0.39250  0.06510  Biso   1.000  H
  H117     1.0000 0.50250  0.87230  0.99970  Biso   1.000  H
  H118     1.0000 0.49750  0.37230  0.00030  Biso   1.000  H
  H119     1.0000 0.54570  0.92210  0.96350  Biso   1.000  H
  H120     1.0000 0.45430  0.42210  0.03650  Biso   1.000  H
  C51      1.0000 0.71440  0.19590  0.04294  Biso   1.000  C
  C52      1.0000 0.28560  0.69590  0.95706  Biso   1.000  C
  C53      1.0000 0.72750  0.16840  0.98600  Biso   1.000  C
  C54      1.0000 0.27250  0.66840  0.01400  Biso   1.000  C
  H121     1.0000 0.77780  0.13660  0.99620  Biso   1.000  H
  H122     1.0000 0.22220  0.63660  0.00380  Biso   1.000  H
  C55      1.0000 0.75510  0.22230  0.94810  Biso   1.000  C
  C56      1.0000 0.24490  0.72230  0.05190  Biso   1.000  C
  C57      1.0000 0.63720  0.24420  0.02910  Biso   1.000  C
  C58      1.0000 0.36280  0.74420  0.97090  Biso   1.000  C
  H123     1.0000 0.65410  0.28060  0.00830  Biso   1.000  H
  H124     1.0000 0.34590  0.78060  0.99170  Biso   1.000  H
  H125     1.0000 0.62540  0.25900  0.06570  Biso   1.000  H
  H126     1.0000 0.37460  0.75900  0.93430  Biso   1.000  H
  H127     1.0000 0.58260  0.22410  0.00460  Biso   1.000  H
  H128     1.0000 0.41740  0.72410  0.99540  Biso   1.000  H
  C59      1.0000 0.80640  0.22160  0.08060  Biso   1.000  C
  C60      1.0000 0.19360  0.72160  0.91940  Biso   1.000  C
  H129     1.0000 0.83680  0.18830  0.10780  Biso   1.000  H
  H130     1.0000 0.16320  0.68830  0.89220  Biso   1.000  H
  H131     1.0000 0.79590  0.25890  0.10290  Biso   1.000  H
  H132     1.0000 0.20410  0.75890  0.89710  Biso   1.000  H
  H133     1.0000 0.84460  0.23370  0.05500  Biso   1.000  H
  H134     1.0000 0.15540  0.73370  0.94500  Biso   1.000  H
  C61      1.0000 0.99670  0.11330  0.23149  Biso   1.000  C
  C62      1.0000 0.00330  0.61330  0.76851  Biso   1.000  C
  C63      1.0000 0.01170  0.17632  0.20576  Biso   1.000  C
  C64      1.0000 0.98830  0.67632  0.79424  Biso   1.000  C
  H135     1.0000 0.97430  0.17690  0.16420  Biso   1.000  H
  H136     1.0000 0.02570  0.67690  0.83580  Biso   1.000  H
  C65      1.0000 0.11140  0.18550  0.20500  Biso   1.000  C
  C66      1.0000 0.88860  0.68550  0.79500  Biso   1.000  C
  C67      1.0000 0.05050  0.10880  0.29643  Biso   1.000  C
  C68      1.0000 0.94950  0.60880  0.70357  Biso   1.000  C
  H137     1.0000 0.11520  0.10470  0.29900  Biso   1.000  H
  H138     1.0000 0.88480  0.60470  0.70100  Biso   1.000  H
  H139     1.0000 0.03030  0.07140  0.31440  Biso   1.000  H
  H140     1.0000 0.96970  0.57140  0.68560  Biso   1.000  H
  H141     1.0000 0.04030  0.14740  0.31710  Biso   1.000  H
  H142     1.0000 0.95970  0.64740  0.68290  Biso   1.000  H
  C69      1.0000 0.01580  0.05750  0.19650  Biso   1.000  C
  C70      1.0000 0.98420  0.55750  0.80350  Biso   1.000  C
  H143     1.0000 0.99310  0.06690  0.15460  Biso   1.000  H
  H144     1.0000 0.00690  0.56690  0.84540  Biso   1.000  H
  H145     1.0000 0.98550  0.01940  0.20610  Biso   1.000  H
  H146     1.0000 0.01450  0.51940  0.79390  Biso   1.000  H
  H147     1.0000 0.08120  0.05000  0.20590  Biso   1.000  H
  H148     1.0000 0.91880  0.55000  0.79410  Biso   1.000  H
  C71      1.0000 0.66700  0.29732  0.23500  Biso   1.000  C
  C72      1.0000 0.33300  0.79732  0.76500  Biso   1.000  C
  C73      1.0000 0.75430  0.32980  0.28010  Biso   1.000  C
  C74      1.0000 0.24570  0.82980  0.71990  Biso   1.000  C
  H149     1.0000 0.76300  0.31400  0.32110  Biso   1.000  H
  H150     1.0000 0.23700  0.81400  0.67890  Biso   1.000  H
  C75      1.0000 0.74120  0.40340  0.27580  Biso   1.000  C
  C76      1.0000 0.25880  0.90340  0.72420  Biso   1.000  C
  C77      1.0000 0.64930  0.32480  0.18050  Biso   1.000  C
  C78      1.0000 0.35070  0.82480  0.81950  Biso   1.000  C
  H151     1.0000 0.59440  0.30600  0.15510  Biso   1.000  H
  H152     1.0000 0.40560  0.80600  0.84490  Biso   1.000  H
  H153     1.0000 0.70040  0.31730  0.16370  Biso   1.000  H
  H154     1.0000 0.29960  0.81730  0.83630  Biso   1.000  H
  H155     1.0000 0.64060  0.37080  0.18390  Biso   1.000  H
  H156     1.0000 0.35940  0.87080  0.81610  Biso   1.000  H
  C79      1.0000 0.58500  0.30050  0.26210  Biso   1.000  C
  C80      1.0000 0.41500  0.80050  0.73790  Biso   1.000  C
  H157     1.0000 0.55170  0.34030  0.25020  Biso   1.000  H
  H158     1.0000 0.44830  0.84030  0.74980  Biso   1.000  H
  H159     1.0000 0.60670  0.29910  0.30490  Biso   1.000  H
  H160     1.0000 0.39330  0.79910  0.69510  Biso   1.000  H
  H161     1.0000 0.54480  0.26420  0.24830  Biso   1.000  H
  H162     1.0000 0.45520  0.76420  0.75170  Biso   1.000  H
  C81      1.0000 0.56850  0.90130  0.38028  Biso   1.000  C
  C82      1.0000 0.43150  0.40130  0.61972  Biso   1.000  C
  C83      1.0000 0.64520  0.87950  0.43340  Biso   1.000  C
  C84      1.0000 0.35480  0.37950  0.56660  Biso   1.000  C
  H163     1.0000 0.69120  0.85520  0.41900  Biso   1.000  H
  H164     1.0000 0.30880  0.35520  0.58100  Biso   1.000  H
  C85      1.0000 0.61170  0.83800  0.47590  Biso   1.000  C
  C86      1.0000 0.38830  0.33800  0.52410  Biso   1.000  C
  C87      1.0000 0.52010  0.84530  0.34320  Biso   1.000  C
  C88      1.0000 0.47990  0.34530  0.65680  Biso   1.000  C
  H165     1.0000 0.49340  0.81750  0.36750  Biso   1.000  H
  H166     1.0000 0.50660  0.31750  0.63250  Biso   1.000  H
  H167     1.0000 0.56380  0.82090  0.32820  Biso   1.000  H
  H168     1.0000 0.43620  0.32090  0.67180  Biso   1.000  H
  H169     1.0000 0.47230  0.86160  0.31040  Biso   1.000  H
  H170     1.0000 0.52770  0.36160  0.68960  Biso   1.000  H
  C89      1.0000 0.50290  0.93860  0.40120  Biso   1.000  C
  C90      1.0000 0.49710  0.43860  0.59880  Biso   1.000  C
  H171     1.0000 0.46930  0.96650  0.36970  Biso   1.000  H
  H172     1.0000 0.53070  0.46650  0.63030  Biso   1.000  H
  H173     1.0000 0.53460  0.96460  0.43470  Biso   1.000  H
  H174     1.0000 0.46540  0.46460  0.56530  Biso   1.000  H
  H175     1.0000 0.46070  0.90980  0.41320  Biso   1.000  H
  H176     1.0000 0.53930  0.40980  0.58680  Biso   1.000  H
  C91      1.0000 0.84530  0.12620  0.41510  Biso   1.000  C
  C92      1.0000 0.15470  0.62620  0.58490  Biso   1.000  C
  C93      1.0000 0.81200  0.12330  0.46870  Biso   1.000  C
  C94      1.0000 0.18800  0.62330  0.53130  Biso   1.000  C
  H177     1.0000 0.75390  0.14770  0.45950  Biso   1.000  H
  H178     1.0000 0.24610  0.64770  0.54050  Biso   1.000  H
  C95      1.0000 0.87430  0.15610  0.52150  Biso   1.000  C
  C96      1.0000 0.12570  0.65610  0.47850  Biso   1.000  C
  C97      1.0000 0.93830  0.09080  0.42680  Biso   1.000  C
  C98      1.0000 0.06170  0.59080  0.57320  Biso   1.000  C
  H179     1.0000 0.98230  0.11170  0.45920  Biso   1.000  H
  H180     1.0000 0.01770  0.61170  0.54080  Biso   1.000  H
  H181     1.0000 0.96020  0.09220  0.39150  Biso   1.000  H
  H182     1.0000 0.03980  0.59220  0.60850  Biso   1.000  H
  H183     1.0000 0.93070  0.04630  0.43720  Biso   1.000  H
  H184     1.0000 0.06930  0.54630  0.56280  Biso   1.000  H
  C99      1.0000 0.85760  0.19470  0.39590  Biso   1.000  C
  C100     1.0000 0.14240  0.69470  0.60410  Biso   1.000  C
  H185     1.0000 0.81580  0.22300  0.40890  Biso   1.000  H
  H186     1.0000 0.18420  0.72300  0.59110  Biso   1.000  H
  H187     1.0000 0.84480  0.19640  0.35310  Biso   1.000  H
  H188     1.0000 0.15520  0.69640  0.64690  Biso   1.000  H
  H189     1.0000 0.91990  0.20850  0.41340  Biso   1.000  H
  H190     1.0000 0.08010  0.70850  0.58660  Biso   1.000  H
  C101     1.0000 0.38010  0.19260  0.08380  Biso   1.000  C
  C102     1.0000 0.61990  0.69260  0.91620  Biso   1.000  C
  C103     1.0000 0.28830  0.19270  0.09910  Biso   1.000  C
  C104     1.0000 0.71170  0.69270  0.90090  Biso   1.000  C
  H191     1.0000 0.26790  0.14750  0.09990  Biso   1.000  H
  H192     1.0000 0.73210  0.64750  0.90010  Biso   1.000  H
  C105     1.0000 0.21430  0.22910  0.06080  Biso   1.000  C
  C106     1.0000 0.78570  0.72910  0.93920  Biso   1.000  C
  C107     1.0000 0.41410  0.25810  0.08000  Biso   1.000  C
  C108     1.0000 0.58590  0.75810  0.92000  Biso   1.000  C
  H193     1.0000 0.46490  0.25690  0.06200  Biso   1.000  H
  H194     1.0000 0.53510  0.75690  0.93800  Biso   1.000  H
  H195     1.0000 0.43440  0.27640  0.11940  Biso   1.000  H
  H196     1.0000 0.56560  0.77640  0.88060  Biso   1.000  H
  H197     1.0000 0.36550  0.28450  0.05600  Biso   1.000  H
  H198     1.0000 0.63450  0.78450  0.94400  Biso   1.000  H
  C109     1.0000 0.36540  0.15810  0.02640  Biso   1.000  C
  C110     1.0000 0.63460  0.65810  0.97360  Biso   1.000  C
  H199     1.0000 0.30610  0.16960  0.00090  Biso   1.000  H
  H200     1.0000 0.69390  0.66960  0.99910  Biso   1.000  H
  H201     1.0000 0.36770  0.11200  0.03340  Biso   1.000  H
  H202     1.0000 0.63230  0.61200  0.96660  Biso   1.000  H
  H203     1.0000 0.41280  0.17020  0.00760  Biso   1.000  H
  H204     1.0000 0.58720  0.67020  0.99240  Biso   1.000  H
  C111     1.0000 0.46580  0.14130  0.35620  Biso   1.000  C
  C112     1.0000 0.53420  0.64130  0.64380  Biso   1.000  C
  C113     1.0000 0.44060  0.21260  0.34930  Biso   1.000  C
  C114     1.0000 0.55940  0.71260  0.65070  Biso   1.000  C
  H205     1.0000 0.49550  0.23730  0.34730  Biso   1.000  H
  H206     1.0000 0.50450  0.73730  0.65270  Biso   1.000  H
  C115     1.0000 0.39930  0.24390  0.39100  Biso   1.000  C
  C116     1.0000 0.60070  0.74390  0.60900  Biso   1.000  C
  C117     1.0000 0.54020  0.12180  0.41350  Biso   1.000  C
  C118     1.0000 0.45980  0.62180  0.58650  Biso   1.000  C
  H207     1.0000 0.59910  0.13840  0.41160  Biso   1.000  H
  H208     1.0000 0.40090  0.63840  0.58840  Biso   1.000  H
  H209     1.0000 0.54320  0.07520  0.41660  Biso   1.000  H
  H210     1.0000 0.45680  0.57520  0.58340  Biso   1.000  H
  H211     1.0000 0.52440  0.13960  0.44780  Biso   1.000  H
  H212     1.0000 0.47560  0.63960  0.55220  Biso   1.000  H
  C119     1.0000 0.38840  0.09430  0.35790  Biso   1.000  C
  C120     1.0000 0.61160  0.59430  0.64210  Biso   1.000  C
  H213     1.0000 0.39450  0.08070  0.39830  Biso   1.000  H
  H214     1.0000 0.60550  0.58070  0.60170  Biso   1.000  H
  H215     1.0000 0.39170  0.05700  0.33360  Biso   1.000  H
  H216     1.0000 0.60830  0.55700  0.66640  Biso   1.000  H
  H217     1.0000 0.32990  0.11560  0.34280  Biso   1.000  H
  H218     1.0000 0.67010  0.61560  0.65720  Biso   1.000  H
  O49      1.0000 0.09790  0.21390  0.89770  Biso   1.000  O
  O50      1.0000 0.90210  0.71390  0.10230  Biso   1.000  O
  O51      1.0000 0.90200  0.23710  0.85660  Biso   1.000  O
  O52      1.0000 0.09800  0.73710  0.14340  Biso   1.000  O
  O53      1.0000 0.92910  0.10950  0.92420  Biso   1.000  O
  O54      1.0000 0.07090  0.60950  0.07580  Biso   1.000  O
  O55      1.0000 0.01750  0.12960  0.05970  Biso   1.000  O
  O56      1.0000 0.98250  0.62960  0.94030  Biso   1.000  O
  O57      1.0000 0.99720  0.27300  0.06890  Biso   1.000  O
  O58      1.0000 0.00280  0.77300  0.93110  Biso   1.000  O
  O59      1.0000 0.17370  0.06440  0.80390  Biso   1.000  O
  O60      1.0000 0.82630  0.56440  0.19610  Biso   1.000  O
  O61      1.0000 0.45970  0.02040  0.75620  Biso   1.000  O
  O62      1.0000 0.54030  0.52040  0.24380  Biso   1.000  O
  O63      1.0000 0.18480  0.14290  0.70300  Biso   1.000  O
  O64      1.0000 0.81520  0.64290  0.29700  Biso   1.000  O
  O65      1.0000 0.33950  0.07220  0.65670  Biso   1.000  O
  O66      1.0000 0.66050  0.57220  0.34330  Biso   1.000  O
  O67      1.0000 0.16070  0.02390  0.66190  Biso   1.000  O
  O68      1.0000 0.83930  0.52390  0.33810  Biso   1.000  O
  O69      1.0000 0.32970  0.75110  0.60390  Biso   1.000  O
  O70      1.0000 0.67030  0.25110  0.39610  Biso   1.000  O
  Cl5      1.0000 0.05670  0.19290  0.77330  Biso   1.000  Cl
  Cl6      1.0000 0.94330  0.69290  0.22670  Biso   1.000  Cl
  O71      1.0000 0.59240  0.97390  0.85640  Biso   1.000  O
  O72      1.0000 0.40760  0.47390  0.14360  Biso   1.000  O
  O73      1.0000 0.74100  0.06500  0.86880  Biso   1.000  O
  O74      1.0000 0.25900  0.56500  0.13120  Biso   1.000  O
  O75      1.0000 0.92320  0.51650  0.97120  Biso   1.000  O
  O76      1.0000 0.07680  0.01650  0.02880  Biso   1.000  O
  O77      1.0000 0.72310  0.29240  0.71380  Biso   1.000  O
  O78      1.0000 0.27690  0.79240  0.28620  Biso   1.000  O
  O79      1.0000 0.71090  0.33120  0.60030  Biso   1.000  O
  O80      1.0000 0.28910  0.83120  0.39970  Biso   1.000  O
  O81      1.0000 0.15890  0.87580  0.87100  Biso   1.000  O
  O82      1.0000 0.84110  0.37580  0.12900  Biso   1.000  O
  O83      1.0000 0.84540  0.91810  0.87530  Biso   1.000  O
  O84      1.0000 0.15460  0.41810  0.12470  Biso   1.000  O
  O85      1.0000 0.12720  0.86630  0.98100  Biso   1.000  O
  O86      1.0000 0.87280  0.36630  0.01900  Biso   1.000  O
  O87      1.0000 0.67790  0.86290  0.82250  Biso   1.000  O
  O88      1.0000 0.32210  0.36290  0.17750  Biso   1.000  O
  O89      1.0000 0.59520  0.20570  0.72940  Biso   1.000  O
  O90      1.0000 0.40480  0.70570  0.27060  Biso   1.000  O
  O91      1.0000 0.18590  0.05290  0.97120  Biso   1.000  O
  O92      1.0000 0.81410  0.55290  0.02880  Biso   1.000  O
  O93      1.0000 0.38110  0.52260  0.44810  Biso   1.000  O
  O94      1.0000 0.61890  0.02260  0.55190  Biso   1.000  O
  O95      1.0000 0.31400  0.63790  0.43490  Biso   1.000  O
  O96      1.0000 0.68600  0.13790  0.56510  Biso   1.000  O
  O97      1.0000 0.37710  0.74510  0.47630  Biso   1.000  O
  O98      1.0000 0.62290  0.24510  0.52370  Biso   1.000  O
  O99      1.0000 0.61520  0.86070  0.70680  Biso   1.000  O
  O100     1.0000 0.38480  0.36070  0.29320  Biso   1.000  O
  O101     1.0000 0.14860  0.23570  0.54660  Biso   1.000  O
  O102     1.0000 0.85140  0.73570  0.45340  Biso   1.000  O
  O103     1.0000 0.07080  0.46720  0.45680  Biso   1.000  O
  O104     1.0000 0.92920  0.96720  0.54320  Biso   1.000  O
  O105     1.0000 0.41590  0.18220  0.63230  Biso   1.000  O
  O106     1.0000 0.58410  0.68220  0.36770  Biso   1.000  O
  O107     1.0000 0.10790  0.12470  0.57480  Biso   1.000  O
  O108     1.0000 0.89210  0.62470  0.42520  Biso   1.000  O
  O109     1.0000 0.89130  0.74490  0.62730  Biso   1.000  O
  O110     1.0000 0.10870  0.24490  0.37270  Biso   1.000  O
  O111     1.0000 0.16800  0.04490  0.43900  Biso   1.000  O
  O112     1.0000 0.83200  0.54490  0.56100  Biso   1.000  O
  C121     1.0000 0.59760  0.71980  0.58740  Biso   1.000  C
  C122     1.0000 0.40240  0.21980  0.41260  Biso   1.000  C
  H219     1.0000 0.50530  0.74000  0.64890  Biso   1.000  H
  H220     1.0000 0.49470  0.24000  0.35110  Biso   1.000  H
  H221     1.0000 0.57160  0.72700  0.51650  Biso   1.000  H
  H222     1.0000 0.42840  0.22700  0.48350  Biso   1.000  H
  O113     1.0000 0.68570  0.72700  0.60390  Biso   1.000  O
  O114     1.0000 0.31430  0.22700  0.39610  Biso   1.000  O
  O115     1.0000 0.54520  0.72270  0.54310  Biso   1.000  O
  O116     1.0000 0.45480  0.22270  0.45690  Biso   1.000  O
  O117     1.0000 0.64330  0.85990  0.76670  Biso   1.000  O
  O118     1.0000 0.35670  0.35990  0.23330  Biso   1.000  O
