data_image0
_cell_length_a       8.0294
_cell_length_b       14.064
_cell_length_c       17.585
_cell_angle_alpha    90
_cell_angle_beta     101.613
_cell_angle_gamma    90

_symmetry_space_group_name_H-M    "P 1"
_symmetry_int_tables_number       1

loop_
  _symmetry_equiv_pos_as_xyz
  'x, y, z'

loop_
  _atom_site_label
  _atom_site_occupancy
  _atom_site_fract_x
  _atom_site_fract_y
  _atom_site_fract_z
  _atom_site_thermal_displace_type
  _atom_site_B_iso_or_equiv
  _atom_site_type_symbol
  Br1      1.0000 0.45062  0.56296  0.09016  Biso   1.000  Br
  Br2      1.0000 0.45062  0.93704  0.59016  Biso   1.000  Br
  Br3      1.0000 0.54938  0.43704  0.90984  Biso   1.000  Br
  Br4      1.0000 0.54938  0.06296  0.40984  Biso   1.000  Br
  Cu1      1.0000 0.34779  0.42482  0.00068  Biso   1.000  Cu
  Cu2      1.0000 0.34779  0.07518  0.50068  Biso   1.000  Cu
  Cu3      1.0000 0.65221  0.57518  0.99932  Biso   1.000  Cu
  Cu4      1.0000 0.65221  0.92482  0.49932  Biso   1.000  Cu
  O1       1.0000 0.88060  0.17650  0.32480  Biso   1.000  O
  O2       1.0000 0.88060  0.32350  0.82480  Biso   1.000  O
  O3       1.0000 0.11940  0.82350  0.67520  Biso   1.000  O
  O4       1.0000 0.11940  0.67650  0.17520  Biso   1.000  O
  C1       1.0000 0.68280  0.96050  0.22400  Biso   1.000  C
  C2       1.0000 0.68280  0.53950  0.72400  Biso   1.000  C
  C3       1.0000 0.31720  0.03950  0.77600  Biso   1.000  C
  C4       1.0000 0.31720  0.46050  0.27600  Biso   1.000  C
  O5       1.0000 0.65440  0.25710  0.19720  Biso   1.000  O
  O6       1.0000 0.65440  0.24290  0.69720  Biso   1.000  O
  O7       1.0000 0.34560  0.74290  0.80280  Biso   1.000  O
  O8       1.0000 0.34560  0.75710  0.30280  Biso   1.000  O
  C5       1.0000 0.57310  0.00120  0.16010  Biso   1.000  C
  C6       1.0000 0.57310  0.49880  0.66010  Biso   1.000  C
  C7       1.0000 0.42690  0.99880  0.83990  Biso   1.000  C
  C8       1.0000 0.42690  0.50120  0.33990  Biso   1.000  C
  C9       1.0000 0.79220  0.02240  0.28080  Biso   1.000  C
  C10      1.0000 0.79220  0.47760  0.78080  Biso   1.000  C
  C11      1.0000 0.20780  0.97760  0.71920  Biso   1.000  C
  C12      1.0000 0.20780  0.52240  0.21920  Biso   1.000  C
  N1       1.0000 0.44850  0.13730  0.09360  Biso   1.000  N
  N2       1.0000 0.44850  0.36270  0.59360  Biso   1.000  N
  N3       1.0000 0.55150  0.86270  0.90640  Biso   1.000  N
  N4       1.0000 0.55150  0.63730  0.40640  Biso   1.000  N
  C13      1.0000 0.55850  0.10490  0.15160  Biso   1.000  C
  C14      1.0000 0.55850  0.39510  0.65160  Biso   1.000  C
  C15      1.0000 0.44150  0.89510  0.84840  Biso   1.000  C
  C16      1.0000 0.44150  0.60490  0.34840  Biso   1.000  C
  C17      1.0000 0.69700  0.86210  0.23000  Biso   1.000  C
  C18      1.0000 0.69700  0.63790  0.73000  Biso   1.000  C
  C19      1.0000 0.30300  0.13790  0.77000  Biso   1.000  C
  C20      1.0000 0.30300  0.36210  0.27000  Biso   1.000  C
  H1       1.0000 0.76920  0.83450  0.27230  Biso   1.000  H
  H2       1.0000 0.76920  0.66550  0.77230  Biso   1.000  H
  H3       1.0000 0.23080  0.16550  0.72770  Biso   1.000  H
  H4       1.0000 0.23080  0.33450  0.22770  Biso   1.000  H
  C21      1.0000 0.74460  0.40990  0.24310  Biso   1.000  C
  C22      1.0000 0.74460  0.09010  0.74310  Biso   1.000  C
  C23      1.0000 0.25540  0.59010  0.75690  Biso   1.000  C
  C24      1.0000 0.25540  0.90990  0.25690  Biso   1.000  C
  H5       1.0000 0.67070  0.43680  0.20100  Biso   1.000  H
  H6       1.0000 0.67070  0.06320  0.70100  Biso   1.000  H
  H7       1.0000 0.32930  0.56320  0.79900  Biso   1.000  H
  H8       1.0000 0.32930  0.93680  0.29900  Biso   1.000  H
  N5       1.0000 0.90220  0.98000  0.33500  Biso   1.000  N
  N6       1.0000 0.90220  0.52000  0.83500  Biso   1.000  N
  N7       1.0000 0.09780  0.02000  0.66500  Biso   1.000  N
  N8       1.0000 0.09780  0.48000  0.16500  Biso   1.000  N
  C25      1.0000 0.77590  0.12220  0.27020  Biso   1.000  C
  C26      1.0000 0.77590  0.37780  0.77020  Biso   1.000  C
  C27      1.0000 0.22410  0.87780  0.72980  Biso   1.000  C
  C28      1.0000 0.22410  0.62220  0.22980  Biso   1.000  C
  C29      1.0000 0.66600  0.16180  0.20880  Biso   1.000  C
  C30      1.0000 0.66600  0.33820  0.70880  Biso   1.000  C
  C31      1.0000 0.33400  0.83820  0.79120  Biso   1.000  C
  C32      1.0000 0.33400  0.66180  0.29120  Biso   1.000  C
  C33      1.0000 0.95800  0.42720  0.36090  Biso   1.000  C
  C34      1.0000 0.95800  0.07280  0.86090  Biso   1.000  C
  C35      1.0000 0.04200  0.57280  0.63910  Biso   1.000  C
  C36      1.0000 0.04200  0.92720  0.13910  Biso   1.000  C
  H9       1.0000 0.02410  0.46610  0.39790  Biso   1.000  H
  H10      1.0000 0.02410  0.03390  0.89790  Biso   1.000  H
  H11      1.0000 0.97590  0.53390  0.60210  Biso   1.000  H
  H12      1.0000 0.97590  0.96610  0.10210  Biso   1.000  H
  C37      1.0000 0.75530  0.31430  0.25200  Biso   1.000  C
  C38      1.0000 0.75530  0.18570  0.75200  Biso   1.000  C
  C39      1.0000 0.24470  0.68570  0.74800  Biso   1.000  C
  C40      1.0000 0.24470  0.81430  0.24800  Biso   1.000  C
  C41      1.0000 0.97060  0.32940  0.36820  Biso   1.000  C
  C42      1.0000 0.97060  0.17060  0.86820  Biso   1.000  C
  C43      1.0000 0.02940  0.67060  0.63180  Biso   1.000  C
  C44      1.0000 0.02940  0.82940  0.13180  Biso   1.000  C
  H13      1.0000 0.04780  0.30220  0.40890  Biso   1.000  H
  H14      1.0000 0.04780  0.19780  0.90890  Biso   1.000  H
  H15      1.0000 0.95220  0.69780  0.59110  Biso   1.000  H
  H16      1.0000 0.95220  0.80220  0.09110  Biso   1.000  H
  C45      1.0000 0.60300  0.80540  0.17260  Biso   1.000  C
  C46      1.0000 0.60300  0.69460  0.67260  Biso   1.000  C
  C47      1.0000 0.39700  0.19460  0.82740  Biso   1.000  C
  C48      1.0000 0.39700  0.30540  0.32740  Biso   1.000  C
  H17      1.0000 0.61240  0.73960  0.17660  Biso   1.000  H
  H18      1.0000 0.61240  0.76040  0.67660  Biso   1.000  H
  H19      1.0000 0.38760  0.26040  0.82340  Biso   1.000  H
  H20      1.0000 0.38760  0.23960  0.32340  Biso   1.000  H
  N9       1.0000 0.37660  0.30250  0.05140  Biso   1.000  N
  N10      1.0000 0.37660  0.19750  0.55140  Biso   1.000  N
  N11      1.0000 0.62340  0.69750  0.94860  Biso   1.000  N
  N12      1.0000 0.62340  0.80250  0.44860  Biso   1.000  N
  C49      1.0000 0.49890  0.84410  0.11140  Biso   1.000  C
  C50      1.0000 0.49890  0.65590  0.61140  Biso   1.000  C
  C51      1.0000 0.50110  0.15590  0.88860  Biso   1.000  C
  C52      1.0000 0.50110  0.34410  0.38860  Biso   1.000  C
  H21      1.0000 0.43710  0.80460  0.07360  Biso   1.000  H
  H22      1.0000 0.43710  0.69540  0.57360  Biso   1.000  H
  H23      1.0000 0.56290  0.19540  0.92640  Biso   1.000  H
  H24      1.0000 0.56290  0.30460  0.42640  Biso   1.000  H
  C53      1.0000 0.84720  0.46750  0.29850  Biso   1.000  C
  C54      1.0000 0.84720  0.03250  0.79850  Biso   1.000  C
  C55      1.0000 0.15280  0.53250  0.70150  Biso   1.000  C
  C56      1.0000 0.15280  0.96750  0.20150  Biso   1.000  C
  C57      1.0000 0.48090  0.94180  0.10310  Biso   1.000  C
  C58      1.0000 0.48090  0.55820  0.60310  Biso   1.000  C
  C59      1.0000 0.51910  0.05820  0.89690  Biso   1.000  C
  C60      1.0000 0.51910  0.44180  0.39690  Biso   1.000  C
  H25      1.0000 0.40840  0.96750  0.06010  Biso   1.000  H
  H26      1.0000 0.40840  0.53250  0.56010  Biso   1.000  H
  H27      1.0000 0.59160  0.03250  0.93990  Biso   1.000  H
  H28      1.0000 0.59160  0.46750  0.43990  Biso   1.000  H
  C61      1.0000 0.41970  0.22820  0.07600  Biso   1.000  C
  C62      1.0000 0.41970  0.27180  0.57600  Biso   1.000  C
  C63      1.0000 0.58030  0.77180  0.92400  Biso   1.000  C
  C64      1.0000 0.58030  0.72820  0.42400  Biso   1.000  C
  N13      1.0000 0.84700  0.65140  0.29130  Biso   1.000  N
  N14      1.0000 0.84700  0.84860  0.79130  Biso   1.000  N
  N15      1.0000 0.15300  0.34860  0.70870  Biso   1.000  N
  N16      1.0000 0.15300  0.15140  0.20870  Biso   1.000  N
  N17      1.0000 0.12530  0.04460  0.43710  Biso   1.000  N
  N18      1.0000 0.12530  0.45540  0.93710  Biso   1.000  N
  N19      1.0000 0.87470  0.95540  0.56290  Biso   1.000  N
  N20      1.0000 0.87470  0.54460  0.06290  Biso   1.000  N
  C65      1.0000 0.86960  0.27400  0.31550  Biso   1.000  C
  C66      1.0000 0.86960  0.22600  0.81550  Biso   1.000  C
  C67      1.0000 0.13040  0.72600  0.68450  Biso   1.000  C
  C68      1.0000 0.13040  0.77400  0.18450  Biso   1.000  C
  C69      1.0000 0.84250  0.56530  0.29430  Biso   1.000  C
  C70      1.0000 0.84250  0.93470  0.79430  Biso   1.000  C
  C71      1.0000 0.15750  0.43470  0.70570  Biso   1.000  C
  C72      1.0000 0.15750  0.06530  0.20570  Biso   1.000  C
  C73      1.0000 0.01570  0.02360  0.38720  Biso   1.000  C
  C74      1.0000 0.01570  0.47640  0.88720  Biso   1.000  C
  C75      1.0000 0.98430  0.97640  0.61280  Biso   1.000  C
  C76      1.0000 0.98430  0.52360  0.11280  Biso   1.000  C
  C77      1.0000 0.10040  0.70210  0.94880  Biso   1.000  C
  C78      1.0000 0.10040  0.79790  0.44880  Biso   1.000  C
  C79      1.0000 0.89960  0.29790  0.05120  Biso   1.000  C
  C80      1.0000 0.89960  0.20210  0.55120  Biso   1.000  C
  H29      1.0000 0.14750  0.67100  0.90930  Biso   1.000  H
  H30      1.0000 0.14750  0.82900  0.40930  Biso   1.000  H
  H31      1.0000 0.85250  0.32900  0.09070  Biso   1.000  H
  H32      1.0000 0.85250  0.17100  0.59070  Biso   1.000  H
  H33      1.0000 0.98040  0.68990  0.94020  Biso   1.000  H
  H34      1.0000 0.98040  0.81010  0.44020  Biso   1.000  H
  H35      1.0000 0.01960  0.31010  0.05980  Biso   1.000  H
  H36      1.0000 0.01960  0.18990  0.55980  Biso   1.000  H
  H37      1.0000 0.15420  0.67820  0.99880  Biso   1.000  H
  H38      1.0000 0.15420  0.82180  0.49880  Biso   1.000  H
  H39      1.0000 0.84580  0.32180  0.00120  Biso   1.000  H
  H40      1.0000 0.84580  0.17820  0.50120  Biso   1.000  H
  N21      1.0000 0.16720  0.87750  0.94980  Biso   1.000  N
  N22      1.0000 0.16720  0.62250  0.44980  Biso   1.000  N
  N23      1.0000 0.83280  0.12250  0.05020  Biso   1.000  N
  N24      1.0000 0.83280  0.37750  0.55020  Biso   1.000  N
  C81      1.0000 0.12700  0.79670  0.94600  Biso   1.000  C
  C82      1.0000 0.12700  0.70330  0.44600  Biso   1.000  C
  C83      1.0000 0.87300  0.20330  0.05400  Biso   1.000  C
  C84      1.0000 0.87300  0.29670  0.55400  Biso   1.000  C
