data_image0
_cell_length_a       4.005
_cell_length_b       17.8
_cell_length_c       10.84
_cell_angle_alpha    90
_cell_angle_beta     96.9
_cell_angle_gamma    90

_symmetry_space_group_name_H-M    "P 1"
_symmetry_int_tables_number       1

loop_
  _symmetry_equiv_pos_as_xyz
  'x, y, z'

loop_
  _atom_site_label
  _atom_site_occupancy
  _atom_site_fract_x
  _atom_site_fract_y
  _atom_site_fract_z
  _atom_site_thermal_displace_type
  _atom_site_B_iso_or_equiv
  _atom_site_type_symbol
  Br1      1.0000 0.26920  0.90910  0.02950  Biso   1.000  Br
  Br2      1.0000 0.23080  0.40910  0.47050  Biso   1.000  Br
  Br3      1.0000 0.73080  0.09090  0.97050  Biso   1.000  Br
  Br4      1.0000 0.76920  0.59090  0.52950  Biso   1.000  Br
  Cu1      1.0000 0.28150  0.04370  0.08500  Biso   1.000  Cu
  Cu2      1.0000 0.21850  0.54370  0.41500  Biso   1.000  Cu
  Cu3      1.0000 0.71850  0.95630  0.91500  Biso   1.000  Cu
  Cu4      1.0000 0.78150  0.45630  0.58500  Biso   1.000  Cu
  C1       1.0000 0.22940  0.09550  0.34750  Biso   1.000  C
  C2       1.0000 0.27060  0.59550  0.15250  Biso   1.000  C
  C3       1.0000 0.77060  0.90450  0.65250  Biso   1.000  C
  C4       1.0000 0.72940  0.40450  0.84750  Biso   1.000  C
  C5       1.0000 0.14150  0.12810  0.46200  Biso   1.000  C
  C6       1.0000 0.35850  0.62810  0.03800  Biso   1.000  C
  C7       1.0000 0.85850  0.87190  0.53800  Biso   1.000  C
  C8       1.0000 0.64150  0.37190  0.96200  Biso   1.000  C
  C9       1.0000 0.01450  0.20140  0.46020  Biso   1.000  C
  C10      1.0000 0.48550  0.70140  0.03980  Biso   1.000  C
  C11      1.0000 0.98550  0.79860  0.53980  Biso   1.000  C
  C12      1.0000 0.51450  0.29860  0.96020  Biso   1.000  C
  C13      1.0000 0.92020  0.23210  0.56690  Biso   1.000  C
  C14      1.0000 0.57980  0.73210  0.93310  Biso   1.000  C
  C15      1.0000 0.07980  0.76790  0.43310  Biso   1.000  C
  C16      1.0000 0.42020  0.26790  0.06690  Biso   1.000  C
  C17      1.0000 0.95220  0.19090  0.67610  Biso   1.000  C
  C18      1.0000 0.54780  0.69090  0.82390  Biso   1.000  C
  C19      1.0000 0.04780  0.80910  0.32390  Biso   1.000  C
  C20      1.0000 0.45220  0.30910  0.17610  Biso   1.000  C
  C21      1.0000 0.07960  0.11800  0.67810  Biso   1.000  C
  C22      1.0000 0.42040  0.61800  0.82190  Biso   1.000  C
  C23      1.0000 0.92040  0.88200  0.32190  Biso   1.000  C
  C24      1.0000 0.57960  0.38200  0.17810  Biso   1.000  C
  C25      1.0000 0.17400  0.08650  0.57120  Biso   1.000  C
  C26      1.0000 0.32600  0.58650  0.92880  Biso   1.000  C
  C27      1.0000 0.82600  0.91350  0.42880  Biso   1.000  C
  C28      1.0000 0.67400  0.41350  0.07120  Biso   1.000  C
  N1       1.0000 0.26070  0.07280  0.25650  Biso   1.000  N
  N2       1.0000 0.23930  0.57280  0.24350  Biso   1.000  N
  N3       1.0000 0.73930  0.92720  0.74350  Biso   1.000  N
  N4       1.0000 0.76070  0.42720  0.75650  Biso   1.000  N
