data_image0
_cell_length_a       3.995
_cell_length_b       17.759
_cell_length_c       10.925
_cell_angle_alpha    90
_cell_angle_beta     98.07
_cell_angle_gamma    90

_symmetry_space_group_name_H-M    "P 1"
_symmetry_int_tables_number       1

loop_
  _symmetry_equiv_pos_as_xyz
  'x, y, z'

loop_
  _atom_site_label
  _atom_site_occupancy
  _atom_site_fract_x
  _atom_site_fract_y
  _atom_site_fract_z
  _atom_site_thermal_displace_type
  _atom_site_B_iso_or_equiv
  _atom_site_type_symbol
  Br1      1.0000 0.73150  0.09435  0.96778  Biso   1.000  Br
  Br2      1.0000 0.76850  0.59435  0.53222  Biso   1.000  Br
  Br3      1.0000 0.26850  0.90565  0.03222  Biso   1.000  Br
  Br4      1.0000 0.23150  0.40565  0.46778  Biso   1.000  Br
  Cu1      1.0000 0.28980  0.04252  0.08147  Biso   1.000  Cu
  Cu2      1.0000 0.21020  0.54252  0.41853  Biso   1.000  Cu
  Cu3      1.0000 0.71020  0.95748  0.91853  Biso   1.000  Cu
  Cu4      1.0000 0.78980  0.45748  0.58147  Biso   1.000  Cu
  N1       1.0000 0.27780  0.07460  0.25040  Biso   1.000  N
  N2       1.0000 0.22220  0.57460  0.24960  Biso   1.000  N
  N3       1.0000 0.72220  0.92540  0.74960  Biso   1.000  N
  N4       1.0000 0.77780  0.42540  0.75040  Biso   1.000  N
  C1       1.0000 0.12200  0.12840  0.45540  Biso   1.000  C
  C2       1.0000 0.37800  0.62840  0.04460  Biso   1.000  C
  C3       1.0000 0.87800  0.87160  0.54460  Biso   1.000  C
  C4       1.0000 0.62200  0.37160  0.95540  Biso   1.000  C
  C5       1.0000 0.18800  0.08620  0.56140  Biso   1.000  C
  C6       1.0000 0.31200  0.58620  0.93860  Biso   1.000  C
  C7       1.0000 0.81200  0.91380  0.43860  Biso   1.000  C
  C8       1.0000 0.68800  0.41380  0.06140  Biso   1.000  C
  C9       1.0000 0.10000  0.11560  0.67000  Biso   1.000  C
  C10      1.0000 0.40000  0.61560  0.83000  Biso   1.000  C
  C11      1.0000 0.90000  0.88440  0.33000  Biso   1.000  C
  C12      1.0000 0.60000  0.38440  0.17000  Biso   1.000  C
  C13      1.0000 0.94800  0.18360  0.67020  Biso   1.000  C
  C14      1.0000 0.55200  0.68360  0.82980  Biso   1.000  C
  C15      1.0000 0.05200  0.81640  0.32980  Biso   1.000  C
  C16      1.0000 0.44800  0.31640  0.17020  Biso   1.000  C
  C17      1.0000 0.88800  0.22620  0.56480  Biso   1.000  C
  C18      1.0000 0.61200  0.72620  0.93520  Biso   1.000  C
  C19      1.0000 0.11200  0.77380  0.43520  Biso   1.000  C
  C20      1.0000 0.38800  0.27380  0.06480  Biso   1.000  C
  C21      1.0000 0.97200  0.19850  0.45540  Biso   1.000  C
  C22      1.0000 0.52800  0.69850  0.04460  Biso   1.000  C
  C23      1.0000 0.02800  0.80150  0.54460  Biso   1.000  C
  C24      1.0000 0.47200  0.30150  0.95540  Biso   1.000  C
  C25      1.0000 0.21100  0.09840  0.33980  Biso   1.000  C
  C26      1.0000 0.28900  0.59840  0.16020  Biso   1.000  C
  C27      1.0000 0.78900  0.90160  0.66020  Biso   1.000  C
  C28      1.0000 0.71100  0.40160  0.83980  Biso   1.000  C
  H1       1.0000 0.28600  0.03600  0.55700  Biso   1.000  H
  H2       1.0000 0.21400  0.53600  0.94300  Biso   1.000  H
  H3       1.0000 0.71400  0.96400  0.44300  Biso   1.000  H
  H4       1.0000 0.78600  0.46400  0.05700  Biso   1.000  H
  H5       1.0000 0.14500  0.08300  0.73400  Biso   1.000  H
  H6       1.0000 0.35500  0.58300  0.76600  Biso   1.000  H
  H7       1.0000 0.85500  0.91700  0.26600  Biso   1.000  H
  H8       1.0000 0.64500  0.41700  0.23400  Biso   1.000  H
  H9       1.0000 0.88300  0.20300  0.73800  Biso   1.000  H
  H10      1.0000 0.61700  0.70300  0.76200  Biso   1.000  H
  H11      1.0000 0.11700  0.79700  0.26200  Biso   1.000  H
  H12      1.0000 0.38300  0.29700  0.23800  Biso   1.000  H
  H13      1.0000 0.76300  0.28300  0.55100  Biso   1.000  H
  H14      1.0000 0.73700  0.78300  0.94900  Biso   1.000  H
  H15      1.0000 0.23700  0.71700  0.44900  Biso   1.000  H
  H16      1.0000 0.26300  0.21700  0.05100  Biso   1.000  H
  H17      1.0000 0.92100  0.21800  0.37400  Biso   1.000  H
  H18      1.0000 0.57900  0.71800  0.12600  Biso   1.000  H
  H19      1.0000 0.07900  0.78200  0.62600  Biso   1.000  H
  H20      1.0000 0.42100  0.28200  0.87400  Biso   1.000  H
