data_image0
_cell_length_a       5.528
_cell_length_b       5.442
_cell_length_c       25.999
_cell_angle_alpha    90
_cell_angle_beta     90.59
_cell_angle_gamma    90

_symmetry_space_group_name_H-M    "P 1"
_symmetry_int_tables_number       1

loop_
  _symmetry_equiv_pos_as_xyz
  'x, y, z'

loop_
  _atom_site_label
  _atom_site_occupancy
  _atom_site_fract_x
  _atom_site_fract_y
  _atom_site_fract_z
  _atom_site_thermal_displace_type
  _atom_site_B_iso_or_equiv
  _atom_site_type_symbol
  Cu1      1.0000 0.85060  0.18300  0.28617  Biso   1.000  Cu
  Cu2      1.0000 0.35060  0.31700  0.78617  Biso   1.000  Cu
  Cu3      1.0000 0.14940  0.81700  0.71383  Biso   1.000  Cu
  Cu4      1.0000 0.64940  0.68300  0.21383  Biso   1.000  Cu
  N1       1.0000 0.57250  0.41310  0.26891  Biso   1.000  N
  N2       1.0000 0.07250  0.08690  0.76891  Biso   1.000  N
  N3       1.0000 0.42750  0.58690  0.73109  Biso   1.000  N
  N4       1.0000 0.92750  0.91310  0.23109  Biso   1.000  N
  N5       1.0000 0.36770  0.37680  0.28183  Biso   1.000  N
  N6       1.0000 0.86770  0.12320  0.78183  Biso   1.000  N
  N7       1.0000 0.63230  0.62320  0.71817  Biso   1.000  N
  N8       1.0000 0.13230  0.87680  0.21817  Biso   1.000  N
  N9       1.0000 0.17130  0.35030  0.29590  Biso   1.000  N
  N10      1.0000 0.67130  0.14970  0.79590  Biso   1.000  N
  N11      1.0000 0.82870  0.64970  0.70410  Biso   1.000  N
  N12      1.0000 0.32870  0.85030  0.20410  Biso   1.000  N
  N13      1.0000 0.61950  0.65430  0.42883  Biso   1.000  N
  N14      1.0000 0.11950  0.84570  0.92883  Biso   1.000  N
  N15      1.0000 0.38050  0.34570  0.57117  Biso   1.000  N
  N16      1.0000 0.88050  0.15430  0.07117  Biso   1.000  N
  C1       1.0000 0.49770  0.86280  0.41908  Biso   1.000  C
  C2       1.0000 0.99770  0.63720  0.91908  Biso   1.000  C
  C3       1.0000 0.50230  0.13720  0.58092  Biso   1.000  C
  C4       1.0000 0.00230  0.36280  0.08092  Biso   1.000  C
  C5       1.0000 0.55770  0.01990  0.37939  Biso   1.000  C
  C6       1.0000 0.05770  0.48010  0.87939  Biso   1.000  C
  C7       1.0000 0.44230  0.98010  0.62061  Biso   1.000  C
  C8       1.0000 0.94230  0.51990  0.12061  Biso   1.000  C
  H1       1.0000 0.46710  0.16190  0.37416  Biso   1.000  H
  H2       1.0000 0.96710  0.33810  0.87416  Biso   1.000  H
  H3       1.0000 0.53290  0.83810  0.62584  Biso   1.000  H
  H4       1.0000 0.03290  0.66190  0.12584  Biso   1.000  H
  N17      1.0000 0.74550  0.97110  0.34802  Biso   1.000  N
  N18      1.0000 0.24550  0.52890  0.84802  Biso   1.000  N
  N19      1.0000 0.25450  0.02890  0.65198  Biso   1.000  N
  N20      1.0000 0.75450  0.47110  0.15198  Biso   1.000  N
  C9       1.0000 0.86590  0.76180  0.35730  Biso   1.000  C
  C10      1.0000 0.36590  0.73820  0.85730  Biso   1.000  C
  C11      1.0000 0.13410  0.23820  0.64270  Biso   1.000  C
  C12      1.0000 0.63410  0.26180  0.14270  Biso   1.000  C
  H5       1.0000 0.99410  0.71900  0.33620  Biso   1.000  H
  H6       1.0000 0.49410  0.78100  0.83620  Biso   1.000  H
  H7       1.0000 0.00590  0.28100  0.66380  Biso   1.000  H
  H8       1.0000 0.50590  0.21900  0.16380  Biso   1.000  H
  C13      1.0000 0.80420  0.60680  0.39770  Biso   1.000  C
  C14      1.0000 0.30420  0.89320  0.89770  Biso   1.000  C
  C15      1.0000 0.19580  0.39320  0.60230  Biso   1.000  C
  C16      1.0000 0.69580  0.10680  0.10230  Biso   1.000  C
  H9       1.0000 0.89500  0.46510  0.40320  Biso   1.000  H
  H10      1.0000 0.39500  0.03490  0.90320  Biso   1.000  H
  H11      1.0000 0.10500  0.53490  0.59680  Biso   1.000  H
  H12      1.0000 0.60500  0.96510  0.09680  Biso   1.000  H
  C17      1.0000 0.28450  0.92570  0.45278  Biso   1.000  C
  C18      1.0000 0.78450  0.57430  0.95278  Biso   1.000  C
  C19      1.0000 0.71550  0.07430  0.54722  Biso   1.000  C
  C20      1.0000 0.21550  0.42570  0.04722  Biso   1.000  C
  O1       1.0000 0.17530  0.12130  0.44618  Biso   1.000  O
  O2       1.0000 0.67530  0.37870  0.94618  Biso   1.000  O
  O3       1.0000 0.82470  0.87870  0.55382  Biso   1.000  O
  O4       1.0000 0.32470  0.62130  0.05382  Biso   1.000  O
  N21      1.0000 0.22930  0.76370  0.48860  Biso   1.000  N
  N22      1.0000 0.72930  0.73630  0.98860  Biso   1.000  N
  N23      1.0000 0.77070  0.23630  0.51140  Biso   1.000  N
  N24      1.0000 0.27070  0.26370  0.01140  Biso   1.000  N
  H13      1.0000 0.10180  0.79000  0.50840  Biso   1.000  H
  H14      1.0000 0.60180  0.71000  0.00840  Biso   1.000  H
  H15      1.0000 0.89820  0.21000  0.49160  Biso   1.000  H
  H16      1.0000 0.39820  0.29000  0.99160  Biso   1.000  H
  H17      1.0000 0.29270  0.61550  0.48710  Biso   1.000  H
  H18      1.0000 0.79270  0.88450  0.98710  Biso   1.000  H
  H19      1.0000 0.70730  0.38450  0.51290  Biso   1.000  H
  H20      1.0000 0.20730  0.11550  0.01290  Biso   1.000  H
