data_image0
_cell_length_a       12.87
_cell_length_b       20.7985
_cell_length_c       24.0234
_cell_angle_alpha    90
_cell_angle_beta     93.165
_cell_angle_gamma    90

_symmetry_space_group_name_H-M    "P 1"
_symmetry_int_tables_number       1

loop_
  _symmetry_equiv_pos_as_xyz
  'x, y, z'

loop_
  _atom_site_label
  _atom_site_occupancy
  _atom_site_fract_x
  _atom_site_fract_y
  _atom_site_fract_z
  _atom_site_thermal_displace_type
  _atom_site_B_iso_or_equiv
  _atom_site_type_symbol
  C1       1.0000 0.09680  0.70130  0.39160  Biso   1.000  C
  C2       1.0000 0.90320  0.20130  0.10840  Biso   1.000  C
  C3       1.0000 0.90320  0.29870  0.60840  Biso   1.000  C
  C4       1.0000 0.09680  0.79870  0.89160  Biso   1.000  C
  H1       1.0000 0.14420  0.67960  0.41540  Biso   1.000  H
  H2       1.0000 0.85580  0.17960  0.08460  Biso   1.000  H
  H3       1.0000 0.85580  0.32040  0.58460  Biso   1.000  H
  H4       1.0000 0.14420  0.82040  0.91540  Biso   1.000  H
  C5       1.0000 0.08660  0.76730  0.39890  Biso   1.000  C
  C6       1.0000 0.91340  0.26730  0.10110  Biso   1.000  C
  C7       1.0000 0.91340  0.23270  0.60110  Biso   1.000  C
  C8       1.0000 0.08660  0.73270  0.89890  Biso   1.000  C
  C9       1.0000 0.01480  0.79770  0.36300  Biso   1.000  C
  C10      1.0000 0.98520  0.29770  0.13700  Biso   1.000  C
  C11      1.0000 0.98520  0.20230  0.63700  Biso   1.000  C
  C12      1.0000 0.01480  0.70230  0.86300  Biso   1.000  C
  H5       1.0000 0.00580  0.84190  0.36610  Biso   1.000  H
  H6       1.0000 0.99420  0.34190  0.13390  Biso   1.000  H
  H7       1.0000 0.99420  0.15810  0.63390  Biso   1.000  H
  H8       1.0000 0.00580  0.65810  0.86610  Biso   1.000  H
  C13      1.0000 0.95740  0.76530  0.32350  Biso   1.000  C
  C14      1.0000 0.04260  0.26530  0.17650  Biso   1.000  C
  C15      1.0000 0.04260  0.23470  0.67650  Biso   1.000  C
  C16      1.0000 0.95740  0.73470  0.82350  Biso   1.000  C
  H9       1.0000 0.90770  0.78640  0.30070  Biso   1.000  H
  H10      1.0000 0.09230  0.28640  0.19930  Biso   1.000  H
  H11      1.0000 0.09230  0.21360  0.69930  Biso   1.000  H
  H12      1.0000 0.90770  0.71360  0.80070  Biso   1.000  H
  C17      1.0000 0.97450  0.69940  0.31780  Biso   1.000  C
  C18      1.0000 0.02550  0.19940  0.18220  Biso   1.000  C
  C19      1.0000 0.02550  0.30060  0.68220  Biso   1.000  C
  C20      1.0000 0.97450  0.80060  0.81780  Biso   1.000  C
  C21      1.0000 0.15720  0.80240  0.44010  Biso   1.000  C
  C22      1.0000 0.84280  0.30240  0.05990  Biso   1.000  C
  C23      1.0000 0.84280  0.19760  0.55990  Biso   1.000  C
  C24      1.0000 0.15720  0.69760  0.94010  Biso   1.000  C
  C25      1.0000 0.74340  0.64640  0.41140  Biso   1.000  C
  C26      1.0000 0.25660  0.14640  0.08860  Biso   1.000  C
  C27      1.0000 0.25660  0.35360  0.58860  Biso   1.000  C
  C28      1.0000 0.74340  0.85360  0.91140  Biso   1.000  C
  H13      1.0000 0.69740  0.66340  0.38410  Biso   1.000  H
  H14      1.0000 0.30260  0.16340  0.11590  Biso   1.000  H
  H15      1.0000 0.30260  0.33660  0.61590  Biso   1.000  H
  H16      1.0000 0.69740  0.83660  0.88410  Biso   1.000  H
  C29      1.0000 0.73610  0.66850  0.46470  Biso   1.000  C
  C30      1.0000 0.26390  0.16850  0.03530  Biso   1.000  C
  C31      1.0000 0.26390  0.33150  0.53530  Biso   1.000  C
  C32      1.0000 0.73610  0.83150  0.96470  Biso   1.000  C
  C33      1.0000 0.80990  0.64610  0.50520  Biso   1.000  C
  C34      1.0000 0.19010  0.14610  0.99480  Biso   1.000  C
  C35      1.0000 0.19010  0.35390  0.49480  Biso   1.000  C
  C36      1.0000 0.80990  0.85390  0.00520  Biso   1.000  C
  H17      1.0000 0.81120  0.66220  0.54140  Biso   1.000  H
  H18      1.0000 0.18880  0.16220  0.95860  Biso   1.000  H
  H19      1.0000 0.18880  0.33780  0.45860  Biso   1.000  H
  H20      1.0000 0.81120  0.83780  0.04140  Biso   1.000  H
  C37      1.0000 0.88040  0.60000  0.49090  Biso   1.000  C
  C38      1.0000 0.11960  0.10000  0.00910  Biso   1.000  C
  C39      1.0000 0.11960  0.40000  0.50910  Biso   1.000  C
  C40      1.0000 0.88040  0.90000  0.99090  Biso   1.000  C
  H21      1.0000 0.92860  0.58370  0.51750  Biso   1.000  H
  H22      1.0000 0.07140  0.08370  0.98250  Biso   1.000  H
  H23      1.0000 0.07140  0.41630  0.48250  Biso   1.000  H
  H24      1.0000 0.92860  0.91630  0.01750  Biso   1.000  H
  C41      1.0000 0.87850  0.57770  0.43460  Biso   1.000  C
  C42      1.0000 0.12150  0.07770  0.06540  Biso   1.000  C
  C43      1.0000 0.12150  0.42230  0.56540  Biso   1.000  C
  C44      1.0000 0.87850  0.92230  0.93460  Biso   1.000  C
  C45      1.0000 0.65600  0.71630  0.47830  Biso   1.000  C
  C46      1.0000 0.34400  0.21630  0.02170  Biso   1.000  C
  C47      1.0000 0.34400  0.28370  0.52170  Biso   1.000  C
  C48      1.0000 0.65600  0.78370  0.97830  Biso   1.000  C
  C49      1.0000 0.29610  0.61570  0.62320  Biso   1.000  C
  C50      1.0000 0.70390  0.11570  0.87680  Biso   1.000  C
  C51      1.0000 0.70390  0.38430  0.37680  Biso   1.000  C
  C52      1.0000 0.29610  0.88430  0.12320  Biso   1.000  C
  H25      1.0000 0.25030  0.63090  0.59490  Biso   1.000  H
  H26      1.0000 0.74970  0.13090  0.90510  Biso   1.000  H
  H27      1.0000 0.74970  0.36910  0.40510  Biso   1.000  H
  H28      1.0000 0.25030  0.86910  0.09490  Biso   1.000  H
  C53      1.0000 0.39250  0.64410  0.62950  Biso   1.000  C
  C54      1.0000 0.60750  0.14410  0.87050  Biso   1.000  C
  C55      1.0000 0.60750  0.35590  0.37050  Biso   1.000  C
  C56      1.0000 0.39250  0.85590  0.12950  Biso   1.000  C
  C57      1.0000 0.45720  0.62470  0.67390  Biso   1.000  C
  C58      1.0000 0.54280  0.12470  0.82610  Biso   1.000  C
  C59      1.0000 0.54280  0.37530  0.32610  Biso   1.000  C
  C60      1.0000 0.45720  0.87530  0.17390  Biso   1.000  C
  H29      1.0000 0.52120  0.64450  0.68130  Biso   1.000  H
  H30      1.0000 0.47880  0.14450  0.81870  Biso   1.000  H
  H31      1.0000 0.47880  0.35550  0.31870  Biso   1.000  H
  H32      1.0000 0.52120  0.85550  0.18130  Biso   1.000  H
  C61      1.0000 0.42500  0.57510  0.70730  Biso   1.000  C
  C62      1.0000 0.57500  0.07510  0.79270  Biso   1.000  C
  C63      1.0000 0.57500  0.42490  0.29270  Biso   1.000  C
  C64      1.0000 0.42500  0.92490  0.20730  Biso   1.000  C
  H33      1.0000 0.46800  0.56140  0.73740  Biso   1.000  H
  H34      1.0000 0.53200  0.06140  0.76260  Biso   1.000  H
  H35      1.0000 0.53200  0.43860  0.26260  Biso   1.000  H
  H36      1.0000 0.46800  0.93860  0.23740  Biso   1.000  H
  C65      1.0000 0.32980  0.54590  0.69630  Biso   1.000  C
  C66      1.0000 0.67020  0.04590  0.80370  Biso   1.000  C
  C67      1.0000 0.67020  0.45410  0.30370  Biso   1.000  C
  C68      1.0000 0.32980  0.95410  0.19630  Biso   1.000  C
  C69      1.0000 0.41980  0.69830  0.59210  Biso   1.000  C
  C70      1.0000 0.58020  0.19830  0.90790  Biso   1.000  C
  C71      1.0000 0.58020  0.30170  0.40790  Biso   1.000  C
  C72      1.0000 0.41980  0.80170  0.09210  Biso   1.000  C
  C73      1.0000 0.76060  0.35300  0.19540  Biso   1.000  C
  C74      1.0000 0.23940  0.85300  0.30460  Biso   1.000  C
  C75      1.0000 0.23940  0.64700  0.80460  Biso   1.000  C
  C76      1.0000 0.76060  0.14700  0.69540  Biso   1.000  C
  H37      1.0000 0.72940  0.37980  0.16830  Biso   1.000  H
  H38      1.0000 0.27060  0.87980  0.33170  Biso   1.000  H
  H39      1.0000 0.27060  0.62020  0.83170  Biso   1.000  H
  H40      1.0000 0.72940  0.12020  0.66830  Biso   1.000  H
  C77      1.0000 0.72740  0.28990  0.19730  Biso   1.000  C
  C78      1.0000 0.27260  0.78990  0.30270  Biso   1.000  C
  C79      1.0000 0.27260  0.71010  0.80270  Biso   1.000  C
  C80      1.0000 0.72740  0.21010  0.69730  Biso   1.000  C
  C81      1.0000 0.77720  0.25110  0.23670  Biso   1.000  C
  C82      1.0000 0.22280  0.75110  0.26330  Biso   1.000  C
  C83      1.0000 0.22280  0.74890  0.76330  Biso   1.000  C
  C84      1.0000 0.77720  0.24890  0.73670  Biso   1.000  C
  H41      1.0000 0.75850  0.20800  0.23870  Biso   1.000  H
  H42      1.0000 0.24150  0.70800  0.26130  Biso   1.000  H
  H43      1.0000 0.24150  0.79200  0.76130  Biso   1.000  H
  H44      1.0000 0.75850  0.29200  0.73870  Biso   1.000  H
  C85      1.0000 0.85380  0.27470  0.27290  Biso   1.000  C
  C86      1.0000 0.14620  0.77470  0.22710  Biso   1.000  C
  C87      1.0000 0.14620  0.72530  0.72710  Biso   1.000  C
  C88      1.0000 0.85380  0.22530  0.77290  Biso   1.000  C
  H45      1.0000 0.88660  0.24800  0.29950  Biso   1.000  H
  H46      1.0000 0.11340  0.74800  0.20050  Biso   1.000  H
  H47      1.0000 0.11340  0.75200  0.70050  Biso   1.000  H
  H48      1.0000 0.88660  0.25200  0.79950  Biso   1.000  H
  C89      1.0000 0.88180  0.33900  0.26940  Biso   1.000  C
  C90      1.0000 0.11820  0.83900  0.23060  Biso   1.000  C
  C91      1.0000 0.11820  0.66100  0.73060  Biso   1.000  C
  C92      1.0000 0.88180  0.16100  0.76940  Biso   1.000  C
  C93      1.0000 0.64350  0.26750  0.15830  Biso   1.000  C
  C94      1.0000 0.35650  0.76750  0.34170  Biso   1.000  C
  C95      1.0000 0.35650  0.73250  0.84170  Biso   1.000  C
  C96      1.0000 0.64350  0.23250  0.65830  Biso   1.000  C
  C97      1.0000 0.19370  0.40930  0.18130  Biso   1.000  C
  C98      1.0000 0.80630  0.90930  0.31870  Biso   1.000  C
  C99      1.0000 0.80630  0.59070  0.81870  Biso   1.000  C
  C100     1.0000 0.19370  0.09070  0.68130  Biso   1.000  C
  H49      1.0000 0.22670  0.38640  0.21050  Biso   1.000  H
  H50      1.0000 0.77330  0.88640  0.28950  Biso   1.000  H
  H51      1.0000 0.77330  0.61360  0.78950  Biso   1.000  H
  H52      1.0000 0.22670  0.11360  0.71050  Biso   1.000  H
  C101     1.0000 0.23670  0.40710  0.13090  Biso   1.000  C
  C102     1.0000 0.76330  0.90710  0.36910  Biso   1.000  C
  C103     1.0000 0.76330  0.59290  0.86910  Biso   1.000  C
  C104     1.0000 0.23670  0.09290  0.63090  Biso   1.000  C
  C105     1.0000 0.18750  0.44050  0.08640  Biso   1.000  C
  C106     1.0000 0.81250  0.94050  0.41360  Biso   1.000  C
  C107     1.0000 0.81250  0.55950  0.91360  Biso   1.000  C
  C108     1.0000 0.18750  0.05950  0.58640  Biso   1.000  C
  H53      1.0000 0.21460  0.44020  0.05120  Biso   1.000  H
  H54      1.0000 0.78540  0.94020  0.44880  Biso   1.000  H
  H55      1.0000 0.78540  0.55980  0.94880  Biso   1.000  H
  H56      1.0000 0.21460  0.05980  0.55120  Biso   1.000  H
  C109     1.0000 0.09680  0.47420  0.09610  Biso   1.000  C
  C110     1.0000 0.90320  0.97420  0.40390  Biso   1.000  C
  C111     1.0000 0.90320  0.52580  0.90390  Biso   1.000  C
  C112     1.0000 0.09680  0.02580  0.59610  Biso   1.000  C
  H57      1.0000 0.06150  0.49610  0.06710  Biso   1.000  H
  H58      1.0000 0.93850  0.99610  0.43290  Biso   1.000  H
  H59      1.0000 0.93850  0.50390  0.93290  Biso   1.000  H
  H60      1.0000 0.06150  0.00390  0.56710  Biso   1.000  H
  C113     1.0000 0.05890  0.47480  0.15000  Biso   1.000  C
  C114     1.0000 0.94110  0.97480  0.35000  Biso   1.000  C
  C115     1.0000 0.94110  0.52520  0.85000  Biso   1.000  C
  C116     1.0000 0.05890  0.02520  0.65000  Biso   1.000  C
  C117     1.0000 0.33530  0.36840  0.12300  Biso   1.000  C
  C118     1.0000 0.66470  0.86840  0.37700  Biso   1.000  C
  C119     1.0000 0.66470  0.63160  0.87700  Biso   1.000  C
  C120     1.0000 0.33530  0.13160  0.62300  Biso   1.000  C
  C121     1.0000 0.21650  0.60660  0.18220  Biso   1.000  C
  C122     1.0000 0.78350  0.10660  0.31780  Biso   1.000  C
  C123     1.0000 0.78350  0.39340  0.81780  Biso   1.000  C
  C124     1.0000 0.21650  0.89340  0.68220  Biso   1.000  C
  H61      1.0000 0.17240  0.62600  0.15520  Biso   1.000  H
  H62      1.0000 0.82760  0.12600  0.34480  Biso   1.000  H
  H63      1.0000 0.82760  0.37400  0.84480  Biso   1.000  H
  H64      1.0000 0.17240  0.87400  0.65520  Biso   1.000  H
  C125     1.0000 0.32360  0.60440  0.17390  Biso   1.000  C
  C126     1.0000 0.67640  0.10440  0.32610  Biso   1.000  C
  C127     1.0000 0.67640  0.39560  0.82610  Biso   1.000  C
  C128     1.0000 0.32360  0.89560  0.67390  Biso   1.000  C
  C129     1.0000 0.38740  0.57340  0.21450  Biso   1.000  C
  C130     1.0000 0.61260  0.07340  0.28550  Biso   1.000  C
  C131     1.0000 0.61260  0.42660  0.78550  Biso   1.000  C
  C132     1.0000 0.38740  0.92660  0.71450  Biso   1.000  C
  H65      1.0000 0.45890  0.57090  0.21100  Biso   1.000  H
  H66      1.0000 0.54110  0.07090  0.28900  Biso   1.000  H
  H67      1.0000 0.54110  0.42910  0.78900  Biso   1.000  H
  H68      1.0000 0.45890  0.92910  0.71100  Biso   1.000  H
  C133     1.0000 0.34330  0.54680  0.25930  Biso   1.000  C
  C134     1.0000 0.65670  0.04680  0.24070  Biso   1.000  C
  C135     1.0000 0.65670  0.45320  0.74070  Biso   1.000  C
  C136     1.0000 0.34330  0.95320  0.75930  Biso   1.000  C
  H69      1.0000 0.38500  0.52590  0.28650  Biso   1.000  H
  H70      1.0000 0.61500  0.02590  0.21350  Biso   1.000  H
  H71      1.0000 0.61500  0.47410  0.71350  Biso   1.000  H
  H72      1.0000 0.38500  0.97410  0.78650  Biso   1.000  H
  C137     1.0000 0.23740  0.55070  0.26470  Biso   1.000  C
  C138     1.0000 0.76260  0.05070  0.23530  Biso   1.000  C
  C139     1.0000 0.76260  0.44930  0.73530  Biso   1.000  C
  C140     1.0000 0.23740  0.94930  0.76470  Biso   1.000  C
  C141     1.0000 0.36310  0.63520  0.12220  Biso   1.000  C
  C142     1.0000 0.63690  0.13520  0.37780  Biso   1.000  C
  C143     1.0000 0.63690  0.36480  0.87780  Biso   1.000  C
  C144     1.0000 0.36310  0.86480  0.62220  Biso   1.000  C
  C145     1.0000 0.75020  0.88950  0.57590  Biso   1.000  C
  C146     1.0000 0.24980  0.38950  0.92410  Biso   1.000  C
  C147     1.0000 0.24980  0.11050  0.42410  Biso   1.000  C
  C148     1.0000 0.75020  0.61050  0.07590  Biso   1.000  C
  H73      1.0000 0.78360  0.93130  0.57570  Biso   1.000  H
  H74      1.0000 0.21640  0.43130  0.92430  Biso   1.000  H
  H75      1.0000 0.21640  0.06870  0.42430  Biso   1.000  H
  H76      1.0000 0.78360  0.56870  0.07570  Biso   1.000  H
  H77      1.0000 0.79510  0.85890  0.55840  Biso   1.000  H
  H78      1.0000 0.20490  0.35890  0.94160  Biso   1.000  H
  H79      1.0000 0.20490  0.14110  0.44160  Biso   1.000  H
  H80      1.0000 0.79510  0.64110  0.05840  Biso   1.000  H
  C149     1.0000 0.73540  0.86860  0.63680  Biso   1.000  C
  C150     1.0000 0.26460  0.36860  0.86320  Biso   1.000  C
  C151     1.0000 0.26460  0.13140  0.36320  Biso   1.000  C
  C152     1.0000 0.73540  0.63140  0.13680  Biso   1.000  C
  H81      1.0000 0.80280  0.86200  0.65610  Biso   1.000  H
  H82      1.0000 0.19720  0.36200  0.84390  Biso   1.000  H
  H83      1.0000 0.19720  0.13800  0.34390  Biso   1.000  H
  H84      1.0000 0.80280  0.63800  0.15610  Biso   1.000  H
  H85      1.0000 0.69920  0.90210  0.65610  Biso   1.000  H
  H86      1.0000 0.30080  0.40210  0.84390  Biso   1.000  H
  H87      1.0000 0.30080  0.09790  0.34390  Biso   1.000  H
  H88      1.0000 0.69920  0.59790  0.15610  Biso   1.000  H
  N1       1.0000 0.04320  0.66660  0.35280  Biso   1.000  N
  N2       1.0000 0.95680  0.16660  0.14720  Biso   1.000  N
  N3       1.0000 0.95680  0.33340  0.64720  Biso   1.000  N
  N4       1.0000 0.04320  0.83340  0.85280  Biso   1.000  N
  N5       1.0000 0.81180  0.60190  0.39510  Biso   1.000  N
  N6       1.0000 0.18820  0.10190  0.10490  Biso   1.000  N
  N7       1.0000 0.18820  0.39810  0.60490  Biso   1.000  N
  N8       1.0000 0.81180  0.89810  0.89510  Biso   1.000  N
  N9       1.0000 0.26380  0.56730  0.65510  Biso   1.000  N
  N10      1.0000 0.73620  0.06730  0.84490  Biso   1.000  N
  N11      1.0000 0.73620  0.43270  0.34490  Biso   1.000  N
  N12      1.0000 0.26380  0.93270  0.15510  Biso   1.000  N
  N13      1.0000 0.83640  0.37820  0.23080  Biso   1.000  N
  N14      1.0000 0.16360  0.87820  0.26920  Biso   1.000  N
  N15      1.0000 0.16360  0.62180  0.76920  Biso   1.000  N
  N16      1.0000 0.83640  0.12180  0.73080  Biso   1.000  N
  N17      1.0000 0.10740  0.44200  0.19200  Biso   1.000  N
  N18      1.0000 0.89260  0.94200  0.30800  Biso   1.000  N
  N19      1.0000 0.89260  0.55800  0.80800  Biso   1.000  N
  N20      1.0000 0.10740  0.05800  0.69200  Biso   1.000  N
  N21      1.0000 0.17470  0.58150  0.22820  Biso   1.000  N
  N22      1.0000 0.82530  0.08150  0.27180  Biso   1.000  N
  N23      1.0000 0.82530  0.41850  0.77180  Biso   1.000  N
  N24      1.0000 0.17470  0.91850  0.72820  Biso   1.000  N
  N25      1.0000 0.65600  0.89260  0.54600  Biso   1.000  N
  N26      1.0000 0.34400  0.39260  0.95400  Biso   1.000  N
  N27      1.0000 0.34400  0.10740  0.45400  Biso   1.000  N
  N28      1.0000 0.65600  0.60740  0.04600  Biso   1.000  N
  H89      1.0000 0.59960  0.88340  0.56190  Biso   1.000  H
  H90      1.0000 0.40040  0.38340  0.93810  Biso   1.000  H
  H91      1.0000 0.40040  0.11660  0.43810  Biso   1.000  H
  H92      1.0000 0.59960  0.61660  0.06190  Biso   1.000  H
  H93      1.0000 0.65360  0.90360  0.51150  Biso   1.000  H
  H94      1.0000 0.34640  0.40360  0.98850  Biso   1.000  H
  H95      1.0000 0.34640  0.09640  0.48850  Biso   1.000  H
  H96      1.0000 0.65360  0.59640  0.01150  Biso   1.000  H
  N29      1.0000 0.67580  0.80960  0.63710  Biso   1.000  N
  N30      1.0000 0.32420  0.30960  0.86290  Biso   1.000  N
  N31      1.0000 0.32420  0.19040  0.36290  Biso   1.000  N
  N32      1.0000 0.67580  0.69040  0.13710  Biso   1.000  N
  H97      1.0000 0.65480  0.79200  0.60620  Biso   1.000  H
  H98      1.0000 0.34520  0.29200  0.89380  Biso   1.000  H
  H99      1.0000 0.34520  0.20800  0.39380  Biso   1.000  H
  H100     1.0000 0.65480  0.70800  0.10620  Biso   1.000  H
  H101     1.0000 0.66150  0.79230  0.66830  Biso   1.000  H
  H102     1.0000 0.33850  0.29230  0.83170  Biso   1.000  H
  H103     1.0000 0.33850  0.20770  0.33170  Biso   1.000  H
  H104     1.0000 0.66150  0.70770  0.16830  Biso   1.000  H
  O1       1.0000 0.15070  0.86180  0.44250  Biso   1.000  O
  O2       1.0000 0.84930  0.36180  0.05750  Biso   1.000  O
  O3       1.0000 0.84930  0.13820  0.55750  Biso   1.000  O
  O4       1.0000 0.15070  0.63820  0.94250  Biso   1.000  O
  O5       1.0000 0.21920  0.76820  0.46960  Biso   1.000  O
  O6       1.0000 0.78080  0.26820  0.03040  Biso   1.000  O
  O7       1.0000 0.78080  0.23180  0.53040  Biso   1.000  O
  O8       1.0000 0.21920  0.73180  0.96960  Biso   1.000  O
  O9       1.0000 0.58050  0.72190  0.44060  Biso   1.000  O
  O10      1.0000 0.41950  0.22190  0.05940  Biso   1.000  O
  O11      1.0000 0.41950  0.27810  0.55940  Biso   1.000  O
  O12      1.0000 0.58050  0.77810  0.94060  Biso   1.000  O
  O13      1.0000 0.66480  0.74860  0.52160  Biso   1.000  O
  O14      1.0000 0.33520  0.24860  0.97840  Biso   1.000  O
  O15      1.0000 0.33520  0.25140  0.47840  Biso   1.000  O
  O16      1.0000 0.66480  0.75140  0.02160  Biso   1.000  O
  O17      1.0000 0.50160  0.72620  0.60120  Biso   1.000  O
  O18      1.0000 0.49840  0.22620  0.89880  Biso   1.000  O
  O19      1.0000 0.49840  0.27380  0.39880  Biso   1.000  O
  O20      1.0000 0.50160  0.77380  0.10120  Biso   1.000  O
  O21      1.0000 0.35410  0.71100  0.55200  Biso   1.000  O
  O22      1.0000 0.64590  0.21100  0.94800  Biso   1.000  O
  O23      1.0000 0.64590  0.28900  0.44800  Biso   1.000  O
  O24      1.0000 0.35410  0.78900  0.05200  Biso   1.000  O
  O25      1.0000 0.61810  0.21260  0.15750  Biso   1.000  O
  O26      1.0000 0.38190  0.71260  0.34250  Biso   1.000  O
  O27      1.0000 0.38190  0.78740  0.84250  Biso   1.000  O
  O28      1.0000 0.61810  0.28740  0.65750  Biso   1.000  O
  O29      1.0000 0.60440  0.30960  0.12570  Biso   1.000  O
  O30      1.0000 0.39560  0.80960  0.37430  Biso   1.000  O
  O31      1.0000 0.39560  0.69040  0.87430  Biso   1.000  O
  O32      1.0000 0.60440  0.19040  0.62570  Biso   1.000  O
  O33      1.0000 0.37260  0.36920  0.07740  Biso   1.000  O
  O34      1.0000 0.62740  0.86920  0.42260  Biso   1.000  O
  O35      1.0000 0.62740  0.63080  0.92260  Biso   1.000  O
  O36      1.0000 0.37260  0.13080  0.57740  Biso   1.000  O
  O37      1.0000 0.36570  0.33030  0.15970  Biso   1.000  O
  O38      1.0000 0.63430  0.83030  0.34030  Biso   1.000  O
  O39      1.0000 0.63430  0.66970  0.84030  Biso   1.000  O
  O40      1.0000 0.36570  0.16970  0.65970  Biso   1.000  O
  O41      1.0000 0.29660  0.65960  0.08950  Biso   1.000  O
  O42      1.0000 0.70340  0.15960  0.41050  Biso   1.000  O
  O43      1.0000 0.70340  0.34040  0.91050  Biso   1.000  O
  O44      1.0000 0.29660  0.84040  0.58950  Biso   1.000  O
  O45      1.0000 0.45810  0.63350  0.11760  Biso   1.000  O
  O46      1.0000 0.54190  0.13350  0.38240  Biso   1.000  O
  O47      1.0000 0.54190  0.36650  0.88240  Biso   1.000  O
  O48      1.0000 0.45810  0.86650  0.61760  Biso   1.000  O
  O49      1.0000 0.46040  0.82930  0.49860  Biso   1.000  O
  O50      1.0000 0.53960  0.32930  0.00140  Biso   1.000  O
  O51      1.0000 0.53960  0.17070  0.50140  Biso   1.000  O
  O52      1.0000 0.46040  0.67070  0.99860  Biso   1.000  O
  S1       1.0000 0.90694  0.65392  0.26608  Biso   1.000  S
  S2       1.0000 0.09306  0.15392  0.23392  Biso   1.000  S
  S3       1.0000 0.09306  0.34608  0.73392  Biso   1.000  S
  S4       1.0000 0.90694  0.84608  0.76608  Biso   1.000  S
  S5       1.0000 0.96877  0.51957  0.41525  Biso   1.000  S
  S6       1.0000 0.03123  0.01957  0.08475  Biso   1.000  S
  S7       1.0000 0.03123  0.48043  0.58475  Biso   1.000  S
  S8       1.0000 0.96877  0.98043  0.91525  Biso   1.000  S
  S9       1.0000 0.28605  0.48225  0.73864  Biso   1.000  S
  S10      1.0000 0.71395  0.98225  0.76136  Biso   1.000  S
  S11      1.0000 0.71395  0.51775  0.26136  Biso   1.000  S
  S12      1.0000 0.28605  0.01775  0.23864  Biso   1.000  S
  S13      1.0000 0.97688  0.37350  0.31630  Biso   1.000  S
  S14      1.0000 0.02312  0.87350  0.18370  Biso   1.000  S
  S15      1.0000 0.02312  0.62650  0.68370  Biso   1.000  S
  S16      1.0000 0.97688  0.12650  0.81630  Biso   1.000  S
  S17      1.0000 0.94864  0.52110  0.16306  Biso   1.000  S
  S18      1.0000 0.05136  0.02110  0.33694  Biso   1.000  S
  S19      1.0000 0.05136  0.47890  0.83694  Biso   1.000  S
  S20      1.0000 0.94864  0.97890  0.66306  Biso   1.000  S
  S21      1.0000 0.17980  0.50994  0.32032  Biso   1.000  S
  S22      1.0000 0.82020  0.00994  0.17968  Biso   1.000  S
  S23      1.0000 0.82020  0.49006  0.67968  Biso   1.000  S
  S24      1.0000 0.17980  0.99006  0.82032  Biso   1.000  S
  Cu1      1.0000 0.05075  0.57135  0.34742  Biso   1.000  Cu
  Cu2      1.0000 0.94925  0.07135  0.15258  Biso   1.000  Cu
  Cu3      1.0000 0.94925  0.42865  0.65258  Biso   1.000  Cu
  Cu4      1.0000 0.05075  0.92865  0.84742  Biso   1.000  Cu
  Cu5      1.0000 0.88777  0.45812  0.35101  Biso   1.000  Cu
  Cu6      1.0000 0.11223  0.95812  0.14899  Biso   1.000  Cu
  Cu7      1.0000 0.11223  0.54188  0.64899  Biso   1.000  Cu
  Cu8      1.0000 0.88777  0.04188  0.85101  Biso   1.000  Cu
  Cu9      1.0000 0.06049  0.44901  0.27064  Biso   1.000  Cu
  Cu10     1.0000 0.93951  0.94901  0.22936  Biso   1.000  Cu
  Cu11     1.0000 0.93951  0.55099  0.72936  Biso   1.000  Cu
  Cu12     1.0000 0.06049  0.05099  0.77064  Biso   1.000  Cu
  Cu13     1.0000 0.01841  0.58206  0.23493  Biso   1.000  Cu
  Cu14     1.0000 0.98159  0.08206  0.26507  Biso   1.000  Cu
  Cu15     1.0000 0.98159  0.41794  0.76507  Biso   1.000  Cu
  Cu16     1.0000 0.01841  0.91794  0.73493  Biso   1.000  Cu
  Cu17     1.0000 0.82581  0.57717  0.31481  Biso   1.000  Cu
  Cu18     1.0000 0.17419  0.07717  0.18519  Biso   1.000  Cu
  Cu19     1.0000 0.17419  0.42283  0.68519  Biso   1.000  Cu
  Cu20     1.0000 0.82581  0.92283  0.81481  Biso   1.000  Cu
  Cu21     1.0000 0.86188  0.47363  0.22915  Biso   1.000  Cu
  Cu22     1.0000 0.13812  0.97363  0.27085  Biso   1.000  Cu
  Cu23     1.0000 0.13812  0.52637  0.77085  Biso   1.000  Cu
  Cu24     1.0000 0.86188  0.02637  0.72915  Biso   1.000  Cu
  Zn1      1.0000 0.32621  0.79753  0.52236  Biso   1.000  Zn
  Zn2      1.0000 0.67379  0.29753  0.97764  Biso   1.000  Zn
  Zn3      1.0000 0.67379  0.20247  0.47764  Biso   1.000  Zn
  Zn4      1.0000 0.32621  0.70247  0.02236  Biso   1.000  Zn
  Zn5      1.0000 0.56586  0.81018  0.56778  Biso   1.000  Zn
  Zn6      1.0000 0.43414  0.31018  0.93222  Biso   1.000  Zn
  Zn7      1.0000 0.43414  0.18982  0.43222  Biso   1.000  Zn
  Zn8      1.0000 0.56586  0.68982  0.06778  Biso   1.000  Zn
  Zn9      1.0000 0.51499  0.80427  0.42609  Biso   1.000  Zn
  Zn10     1.0000 0.48501  0.30427  0.07391  Biso   1.000  Zn
  Zn11     1.0000 0.48501  0.19573  0.57391  Biso   1.000  Zn
  Zn12     1.0000 0.51499  0.69573  0.92609  Biso   1.000  Zn
  O53      1.0000 0.42110  0.95760  0.47460  Biso   1.000  O
  O54      1.0000 0.57890  0.45760  0.02540  Biso   1.000  O
  O55      1.0000 0.57890  0.04240  0.52540  Biso   1.000  O
  O56      1.0000 0.42110  0.54240  0.97460  Biso   1.000  O
  O57      1.0000 0.19160  0.56600  0.48780  Biso   1.000  O
  O58      1.0000 0.80840  0.06600  0.01220  Biso   1.000  O
  O59      1.0000 0.80840  0.43400  0.51220  Biso   1.000  O
  O60      1.0000 0.19160  0.93400  0.98780  Biso   1.000  O
  O61      1.0000 0.43760  0.16110  0.21510  Biso   1.000  O
  O62      1.0000 0.56240  0.66110  0.28490  Biso   1.000  O
  O63      1.0000 0.56240  0.83890  0.78490  Biso   1.000  O
  O64      1.0000 0.43760  0.33890  0.71510  Biso   1.000  O
  O65      1.0000 0.65170  0.60250  0.59980  Biso   1.000  O
  O66      1.0000 0.34830  0.10250  0.90020  Biso   1.000  O
  O67      1.0000 0.34830  0.39750  0.40020  Biso   1.000  O
  O68      1.0000 0.65170  0.89750  0.09980  Biso   1.000  O
  O69      1.0000 0.77490  0.67920  0.66390  Biso   1.000  O
  O70      1.0000 0.22510  0.17920  0.83610  Biso   1.000  O
  O71      1.0000 0.22510  0.32080  0.33610  Biso   1.000  O
  O72      1.0000 0.77490  0.82080  0.16390  Biso   1.000  O
  O73      1.0000 0.56080  0.01430  0.63700  Biso   1.000  O
  O74      1.0000 0.43920  0.51430  0.86300  Biso   1.000  O
  O75      1.0000 0.43920  0.98570  0.36300  Biso   1.000  O
  O76      1.0000 0.56080  0.48570  0.13700  Biso   1.000  O
