data_image0
_cell_length_a       13.9429
_cell_length_b       19.5452
_cell_length_c       26.004
_cell_angle_alpha    90
_cell_angle_beta     98.909
_cell_angle_gamma    90

_symmetry_space_group_name_H-M    "P 1"
_symmetry_int_tables_number       1

loop_
  _symmetry_equiv_pos_as_xyz
  'x, y, z'

loop_
  _atom_site_label
  _atom_site_occupancy
  _atom_site_fract_x
  _atom_site_fract_y
  _atom_site_fract_z
  _atom_site_thermal_displace_type
  _atom_site_B_iso_or_equiv
  _atom_site_type_symbol
  Cu1      1.0000 0.95267  0.09022  0.19459  Biso   1.000  Cu
  Cu2      1.0000 0.04733  0.09022  0.30541  Biso   1.000  Cu
  Cu3      1.0000 0.45267  0.59022  0.19459  Biso   1.000  Cu
  Cu4      1.0000 0.54733  0.59022  0.30541  Biso   1.000  Cu
  Cu5      1.0000 0.04733  0.90978  0.80541  Biso   1.000  Cu
  Cu6      1.0000 0.95267  0.90978  0.69459  Biso   1.000  Cu
  Cu7      1.0000 0.54733  0.40978  0.80541  Biso   1.000  Cu
  Cu8      1.0000 0.45267  0.40978  0.69459  Biso   1.000  Cu
  Zn1      1.0000 0.00833  0.49367  0.06152  Biso   1.000  Zn
  Zn2      1.0000 0.99167  0.49367  0.43848  Biso   1.000  Zn
  Zn3      1.0000 0.50833  0.99367  0.06152  Biso   1.000  Zn
  Zn4      1.0000 0.49167  0.99367  0.43848  Biso   1.000  Zn
  Zn5      1.0000 0.99167  0.50633  0.93848  Biso   1.000  Zn
  Zn6      1.0000 0.00833  0.50633  0.56152  Biso   1.000  Zn
  Zn7      1.0000 0.49167  0.00633  0.93848  Biso   1.000  Zn
  Zn8      1.0000 0.50833  0.00633  0.56152  Biso   1.000  Zn
  Cu9      1.0000 0.94933  0.92105  0.20194  Biso   1.000  Cu
  Cu10     1.0000 0.05067  0.92105  0.29807  Biso   1.000  Cu
  Cu11     1.0000 0.44933  0.42105  0.20194  Biso   1.000  Cu
  Cu12     1.0000 0.55067  0.42105  0.29807  Biso   1.000  Cu
  Cu13     1.0000 0.05067  0.07895  0.79807  Biso   1.000  Cu
  Cu14     1.0000 0.94933  0.07895  0.70194  Biso   1.000  Cu
  Cu15     1.0000 0.55067  0.57895  0.79807  Biso   1.000  Cu
  Cu16     1.0000 0.44933  0.57895  0.70194  Biso   1.000  Cu
  Zn9      1.0000 0.90452  0.36275  0.00409  Biso   1.000  Zn
  Zn10     1.0000 0.09548  0.36275  0.49591  Biso   1.000  Zn
  Zn11     1.0000 0.40452  0.86275  0.00409  Biso   1.000  Zn
  Zn12     1.0000 0.59548  0.86275  0.49591  Biso   1.000  Zn
  Zn13     1.0000 0.09548  0.63725  0.99591  Biso   1.000  Zn
  Zn14     1.0000 0.90452  0.63725  0.50409  Biso   1.000  Zn
  Zn15     1.0000 0.59548  0.13725  0.99591  Biso   1.000  Zn
  Zn16     1.0000 0.40452  0.13725  0.50409  Biso   1.000  Zn
  Cu17     1.0000 0.12705  0.02505  0.21292  Biso   1.000  Cu
  Cu18     1.0000 0.87295  0.02505  0.28708  Biso   1.000  Cu
  Cu19     1.0000 0.62705  0.52505  0.21292  Biso   1.000  Cu
  Cu20     1.0000 0.37295  0.52505  0.28708  Biso   1.000  Cu
  Cu21     1.0000 0.87295  0.97495  0.78708  Biso   1.000  Cu
  Cu22     1.0000 0.12705  0.97495  0.71292  Biso   1.000  Cu
  Cu23     1.0000 0.37295  0.47495  0.78708  Biso   1.000  Cu
  Cu24     1.0000 0.62705  0.47495  0.71292  Biso   1.000  Cu
  S1       1.0000 0.92584  0.00399  0.13854  Biso   1.000  S
  S2       1.0000 0.07416  0.00399  0.36146  Biso   1.000  S
  S3       1.0000 0.42584  0.50399  0.13854  Biso   1.000  S
  S4       1.0000 0.57416  0.50399  0.36146  Biso   1.000  S
  S5       1.0000 0.07416  0.99601  0.86146  Biso   1.000  S
  S6       1.0000 0.92584  0.99601  0.63854  Biso   1.000  S
  S7       1.0000 0.57416  0.49601  0.86146  Biso   1.000  S
  S8       1.0000 0.42584  0.49601  0.63854  Biso   1.000  S
  S9       1.0000 0.16529  0.12043  0.25824  Biso   1.000  S
  S10      1.0000 0.83471  0.12043  0.24176  Biso   1.000  S
  S11      1.0000 0.66529  0.62043  0.25824  Biso   1.000  S
  S12      1.0000 0.33471  0.62043  0.24176  Biso   1.000  S
  S13      1.0000 0.83471  0.87957  0.74176  Biso   1.000  S
  S14      1.0000 0.16529  0.87957  0.75824  Biso   1.000  S
  S15      1.0000 0.33471  0.37957  0.74176  Biso   1.000  S
  S16      1.0000 0.66529  0.37957  0.75824  Biso   1.000  S
  S17      1.0000 0.16983  0.92200  0.25091  Biso   1.000  S
  S18      1.0000 0.83017  0.92200  0.24909  Biso   1.000  S
  S19      1.0000 0.66983  0.42200  0.25091  Biso   1.000  S
  S20      1.0000 0.33017  0.42200  0.24909  Biso   1.000  S
  S21      1.0000 0.83017  0.07800  0.74909  Biso   1.000  S
  S22      1.0000 0.16983  0.07800  0.75091  Biso   1.000  S
  S23      1.0000 0.33017  0.57800  0.74909  Biso   1.000  S
  S24      1.0000 0.66983  0.57800  0.75091  Biso   1.000  S
  O1       1.0000 0.99561  0.56963  0.00303  Biso   1.000  O
  O2       1.0000 0.00439  0.56963  0.49697  Biso   1.000  O
  O3       1.0000 0.49561  0.06963  0.00303  Biso   1.000  O
  O4       1.0000 0.50439  0.06963  0.49697  Biso   1.000  O
  O5       1.0000 0.00439  0.43037  0.99697  Biso   1.000  O
  O6       1.0000 0.99561  0.43037  0.50303  Biso   1.000  O
  O7       1.0000 0.50439  0.93037  0.99697  Biso   1.000  O
  O8       1.0000 0.49561  0.93037  0.50303  Biso   1.000  O
  O9       1.0000 0.01810  0.39965  0.11403  Biso   1.000  O
  O10      1.0000 0.98190  0.39965  0.38597  Biso   1.000  O
  O11      1.0000 0.51810  0.89965  0.11403  Biso   1.000  O
  O12      1.0000 0.48190  0.89965  0.38597  Biso   1.000  O
  O13      1.0000 0.98190  0.60035  0.88597  Biso   1.000  O
  O14      1.0000 0.01810  0.60035  0.61403  Biso   1.000  O
  O15      1.0000 0.48190  0.10035  0.88597  Biso   1.000  O
  O16      1.0000 0.51810  0.10035  0.61403  Biso   1.000  O
  O17      1.0000 0.93870  0.31322  0.06943  Biso   1.000  O
  O18      1.0000 0.06130  0.31322  0.43057  Biso   1.000  O
  O19      1.0000 0.43870  0.81322  0.06943  Biso   1.000  O
  O20      1.0000 0.56130  0.81322  0.43057  Biso   1.000  O
  O21      1.0000 0.06130  0.68678  0.93057  Biso   1.000  O
  O22      1.0000 0.93870  0.68678  0.56943  Biso   1.000  O
  O23      1.0000 0.56130  0.18678  0.93057  Biso   1.000  O
  O24      1.0000 0.43870  0.18678  0.56943  Biso   1.000  O
  O25      1.0000 0.97520  0.73197  0.04748  Biso   1.000  O
  O26      1.0000 0.02480  0.73197  0.45252  Biso   1.000  O
  O27      1.0000 0.47520  0.23197  0.04748  Biso   1.000  O
  O28      1.0000 0.52480  0.23197  0.45252  Biso   1.000  O
  O29      1.0000 0.02480  0.26803  0.95252  Biso   1.000  O
  O30      1.0000 0.97520  0.26803  0.54748  Biso   1.000  O
  O31      1.0000 0.52480  0.76803  0.95252  Biso   1.000  O
  O32      1.0000 0.47520  0.76803  0.54748  Biso   1.000  O
  O33      1.0000 0.28344  0.91391  0.00675  Biso   1.000  O
  O34      1.0000 0.71656  0.91391  0.49325  Biso   1.000  O
  O35      1.0000 0.78344  0.41391  0.00675  Biso   1.000  O
  O36      1.0000 0.21656  0.41391  0.49325  Biso   1.000  O
  O37      1.0000 0.71656  0.08609  0.99325  Biso   1.000  O
  O38      1.0000 0.28344  0.08609  0.50675  Biso   1.000  O
  O39      1.0000 0.21656  0.58609  0.99325  Biso   1.000  O
  O40      1.0000 0.78344  0.58609  0.50675  Biso   1.000  O
  O41      1.0000 0.35796  0.99027  0.06346  Biso   1.000  O
  O42      1.0000 0.64204  0.99027  0.43654  Biso   1.000  O
  O43      1.0000 0.85796  0.49027  0.06346  Biso   1.000  O
  O44      1.0000 0.14204  0.49027  0.43654  Biso   1.000  O
  O45      1.0000 0.64204  0.00973  0.93654  Biso   1.000  O
  O46      1.0000 0.35796  0.00973  0.56346  Biso   1.000  O
  O47      1.0000 0.14204  0.50973  0.93654  Biso   1.000  O
  O48      1.0000 0.85796  0.50973  0.56346  Biso   1.000  O
  O49      1.0000 0.13070  0.70137  0.05247  Biso   1.000  O
  O50      1.0000 0.86930  0.70137  0.44753  Biso   1.000  O
  O51      1.0000 0.63070  0.20137  0.05247  Biso   1.000  O
  O52      1.0000 0.36930  0.20137  0.44753  Biso   1.000  O
  O53      1.0000 0.86930  0.29863  0.94753  Biso   1.000  O
  O54      1.0000 0.13070  0.29863  0.55247  Biso   1.000  O
  O55      1.0000 0.36930  0.79863  0.94753  Biso   1.000  O
  O56      1.0000 0.63070  0.79863  0.55247  Biso   1.000  O
  N1       1.0000 0.04600  0.85669  0.17808  Biso   1.000  N
  N2       1.0000 0.95400  0.85669  0.32192  Biso   1.000  N
  N3       1.0000 0.54600  0.35669  0.17808  Biso   1.000  N
  N4       1.0000 0.45400  0.35669  0.32192  Biso   1.000  N
  N5       1.0000 0.95400  0.14331  0.82192  Biso   1.000  N
  N6       1.0000 0.04600  0.14331  0.67808  Biso   1.000  N
  N7       1.0000 0.45400  0.64331  0.82192  Biso   1.000  N
  N8       1.0000 0.54600  0.64331  0.67808  Biso   1.000  N
  N9       1.0000 0.01270  0.56471  0.12414  Biso   1.000  N
  N10      1.0000 0.98730  0.56471  0.37586  Biso   1.000  N
  N11      1.0000 0.51270  0.06471  0.12414  Biso   1.000  N
  N12      1.0000 0.48730  0.06471  0.37586  Biso   1.000  N
  N13      1.0000 0.98730  0.43529  0.87586  Biso   1.000  N
  N14      1.0000 0.01270  0.43529  0.62414  Biso   1.000  N
  N15      1.0000 0.48730  0.93529  0.87586  Biso   1.000  N
  N16      1.0000 0.51270  0.93529  0.62414  Biso   1.000  N
  H1       1.0000 0.99610  0.52510  0.11130  Biso   1.000  H
  H2       1.0000 0.00390  0.52510  0.38870  Biso   1.000  H
  H3       1.0000 0.49610  0.02510  0.11130  Biso   1.000  H
  H4       1.0000 0.50390  0.02510  0.38870  Biso   1.000  H
  H5       1.0000 0.00390  0.47490  0.88870  Biso   1.000  H
  H6       1.0000 0.99610  0.47490  0.61130  Biso   1.000  H
  H7       1.0000 0.50390  0.97490  0.88870  Biso   1.000  H
  H8       1.0000 0.49610  0.97490  0.61130  Biso   1.000  H
  H9       1.0000 0.96970  0.59630  0.12410  Biso   1.000  H
  H10      1.0000 0.03030  0.59630  0.37590  Biso   1.000  H
  H11      1.0000 0.46970  0.09630  0.12410  Biso   1.000  H
  H12      1.0000 0.53030  0.09630  0.37590  Biso   1.000  H
  H13      1.0000 0.03030  0.40370  0.87590  Biso   1.000  H
  H14      1.0000 0.96970  0.40370  0.62410  Biso   1.000  H
  H15      1.0000 0.53030  0.90370  0.87590  Biso   1.000  H
  H16      1.0000 0.46970  0.90370  0.62410  Biso   1.000  H
  C1       1.0000 0.09340  0.78256  0.11258  Biso   1.000  C
  C2       1.0000 0.90660  0.78256  0.38742  Biso   1.000  C
  C3       1.0000 0.59340  0.28256  0.11258  Biso   1.000  C
  C4       1.0000 0.40660  0.28256  0.38742  Biso   1.000  C
  C5       1.0000 0.90660  0.21744  0.88742  Biso   1.000  C
  C6       1.0000 0.09340  0.21744  0.61258  Biso   1.000  C
  C7       1.0000 0.40660  0.71744  0.88742  Biso   1.000  C
  C8       1.0000 0.59340  0.71744  0.61258  Biso   1.000  C
  C9       1.0000 0.03770  0.28752  0.14813  Biso   1.000  C
  C10      1.0000 0.96230  0.28752  0.35187  Biso   1.000  C
  C11      1.0000 0.53770  0.78752  0.14813  Biso   1.000  C
  C12      1.0000 0.46230  0.78752  0.35187  Biso   1.000  C
  C13      1.0000 0.96230  0.71248  0.85187  Biso   1.000  C
  C14      1.0000 0.03770  0.71248  0.64813  Biso   1.000  C
  C15      1.0000 0.46230  0.21248  0.85187  Biso   1.000  C
  C16      1.0000 0.53770  0.21248  0.64813  Biso   1.000  C
  N17      1.0000 0.02980  0.17567  0.18564  Biso   1.000  N
  N18      1.0000 0.97020  0.17567  0.31436  Biso   1.000  N
  N19      1.0000 0.52980  0.67567  0.18564  Biso   1.000  N
  N20      1.0000 0.47020  0.67567  0.31436  Biso   1.000  N
  N21      1.0000 0.97020  0.82433  0.81436  Biso   1.000  N
  N22      1.0000 0.02980  0.82433  0.68564  Biso   1.000  N
  N23      1.0000 0.47020  0.32433  0.81436  Biso   1.000  N
  N24      1.0000 0.52980  0.32433  0.68564  Biso   1.000  N
  C17      1.0000 0.19240  0.96905  0.06393  Biso   1.000  C
  C18      1.0000 0.80760  0.96905  0.43607  Biso   1.000  C
  C19      1.0000 0.69240  0.46905  0.06393  Biso   1.000  C
  C20      1.0000 0.30760  0.46905  0.43607  Biso   1.000  C
  C21      1.0000 0.80760  0.03095  0.93607  Biso   1.000  C
  C22      1.0000 0.19240  0.03095  0.56393  Biso   1.000  C
  C23      1.0000 0.30760  0.53095  0.93607  Biso   1.000  C
  C24      1.0000 0.69240  0.53095  0.56393  Biso   1.000  C
  N25      1.0000 0.11630  0.00975  0.13504  Biso   1.000  N
  N26      1.0000 0.88370  0.00975  0.36496  Biso   1.000  N
  N27      1.0000 0.61630  0.50975  0.13504  Biso   1.000  N
  N28      1.0000 0.38370  0.50975  0.36496  Biso   1.000  N
  N29      1.0000 0.88370  0.99025  0.86496  Biso   1.000  N
  N30      1.0000 0.11630  0.99025  0.63504  Biso   1.000  N
  N31      1.0000 0.38370  0.49025  0.86496  Biso   1.000  N
  N32      1.0000 0.61630  0.49025  0.63504  Biso   1.000  N
  C25      1.0000 0.02420  0.81499  0.13682  Biso   1.000  C
  C26      1.0000 0.97580  0.81499  0.36318  Biso   1.000  C
  C27      1.0000 0.52420  0.31499  0.13682  Biso   1.000  C
  C28      1.0000 0.47580  0.31499  0.36318  Biso   1.000  C
  C29      1.0000 0.97580  0.18501  0.86318  Biso   1.000  C
  C30      1.0000 0.02420  0.18501  0.63682  Biso   1.000  C
  C31      1.0000 0.47580  0.68501  0.86318  Biso   1.000  C
  C32      1.0000 0.52420  0.68501  0.63682  Biso   1.000  C
  H17      1.0000 0.95910  0.80750  0.12390  Biso   1.000  H
  H18      1.0000 0.04090  0.80750  0.37610  Biso   1.000  H
  H19      1.0000 0.45910  0.30750  0.12390  Biso   1.000  H
  H20      1.0000 0.54090  0.30750  0.37610  Biso   1.000  H
  H21      1.0000 0.04090  0.19250  0.87610  Biso   1.000  H
  H22      1.0000 0.95910  0.19250  0.62390  Biso   1.000  H
  H23      1.0000 0.54090  0.69250  0.87610  Biso   1.000  H
  H24      1.0000 0.45910  0.69250  0.62390  Biso   1.000  H
  N33      1.0000 0.16170  0.49206  0.08732  Biso   1.000  N
  N34      1.0000 0.83830  0.49206  0.41268  Biso   1.000  N
  N35      1.0000 0.66170  0.99206  0.08732  Biso   1.000  N
  N36      1.0000 0.33830  0.99206  0.41268  Biso   1.000  N
  N37      1.0000 0.83830  0.50794  0.91268  Biso   1.000  N
  N38      1.0000 0.16170  0.50794  0.58732  Biso   1.000  N
  N39      1.0000 0.33830  0.00794  0.91268  Biso   1.000  N
  N40      1.0000 0.66170  0.00794  0.58732  Biso   1.000  N
  H25      1.0000 0.12330  0.51360  0.06370  Biso   1.000  H
  H26      1.0000 0.87670  0.51360  0.43630  Biso   1.000  H
  H27      1.0000 0.62330  0.01360  0.06370  Biso   1.000  H
  H28      1.0000 0.37670  0.01360  0.43630  Biso   1.000  H
  H29      1.0000 0.87670  0.48640  0.93630  Biso   1.000  H
  H30      1.0000 0.12330  0.48640  0.56370  Biso   1.000  H
  H31      1.0000 0.37670  0.98640  0.93630  Biso   1.000  H
  H32      1.0000 0.62330  0.98640  0.56370  Biso   1.000  H
  H33      1.0000 0.19250  0.45650  0.07920  Biso   1.000  H
  H34      1.0000 0.80750  0.45650  0.42080  Biso   1.000  H
  H35      1.0000 0.69250  0.95650  0.07920  Biso   1.000  H
  H36      1.0000 0.30750  0.95650  0.42080  Biso   1.000  H
  H37      1.0000 0.80750  0.54350  0.92080  Biso   1.000  H
  H38      1.0000 0.19250  0.54350  0.57920  Biso   1.000  H
  H39      1.0000 0.30750  0.04350  0.92080  Biso   1.000  H
  H40      1.0000 0.69250  0.04350  0.57920  Biso   1.000  H
  C33      1.0000 0.99420  0.22460  0.15207  Biso   1.000  C
  C34      1.0000 0.00580  0.22460  0.34793  Biso   1.000  C
  C35      1.0000 0.49420  0.72460  0.15207  Biso   1.000  C
  C36      1.0000 0.50580  0.72460  0.34793  Biso   1.000  C
  C37      1.0000 0.00580  0.77540  0.84793  Biso   1.000  C
  C38      1.0000 0.99420  0.77540  0.65207  Biso   1.000  C
  C39      1.0000 0.50580  0.27540  0.84793  Biso   1.000  C
  C40      1.0000 0.49420  0.27540  0.65207  Biso   1.000  C
  H41      1.0000 0.93650  0.21570  0.13000  Biso   1.000  H
  H42      1.0000 0.06350  0.21570  0.37000  Biso   1.000  H
  H43      1.0000 0.43650  0.71570  0.13000  Biso   1.000  H
  H44      1.0000 0.56350  0.71570  0.37000  Biso   1.000  H
  H45      1.0000 0.06350  0.78430  0.87000  Biso   1.000  H
  H46      1.0000 0.93650  0.78430  0.63000  Biso   1.000  H
  H47      1.0000 0.56350  0.28430  0.87000  Biso   1.000  H
  H48      1.0000 0.43650  0.28430  0.63000  Biso   1.000  H
  C41      1.0000 0.14100  0.86709  0.19704  Biso   1.000  C
  C42      1.0000 0.85900  0.86709  0.30296  Biso   1.000  C
  C43      1.0000 0.64100  0.36709  0.19704  Biso   1.000  C
  C44      1.0000 0.35900  0.36709  0.30296  Biso   1.000  C
  C45      1.0000 0.85900  0.13291  0.80296  Biso   1.000  C
  C46      1.0000 0.14100  0.13291  0.69704  Biso   1.000  C
  C47      1.0000 0.35900  0.63291  0.80296  Biso   1.000  C
  C48      1.0000 0.64100  0.63291  0.69704  Biso   1.000  C
  C49      1.0000 0.10330  0.94710  0.03831  Biso   1.000  C
  C50      1.0000 0.89670  0.94710  0.46169  Biso   1.000  C
  C51      1.0000 0.60330  0.44710  0.03831  Biso   1.000  C
  C52      1.0000 0.39670  0.44710  0.46169  Biso   1.000  C
  C53      1.0000 0.89670  0.05290  0.96169  Biso   1.000  C
  C54      1.0000 0.10330  0.05290  0.53831  Biso   1.000  C
  C55      1.0000 0.39670  0.55290  0.96169  Biso   1.000  C
  C56      1.0000 0.60330  0.55290  0.53831  Biso   1.000  C
  H49      1.0000 0.09920  0.92470  0.00650  Biso   1.000  H
  H50      1.0000 0.90080  0.92470  0.49350  Biso   1.000  H
  H51      1.0000 0.59920  0.42470  0.00650  Biso   1.000  H
  H52      1.0000 0.40080  0.42470  0.49350  Biso   1.000  H
  H53      1.0000 0.90080  0.07530  0.99350  Biso   1.000  H
  H54      1.0000 0.09920  0.07530  0.50650  Biso   1.000  H
  H55      1.0000 0.40080  0.57530  0.99350  Biso   1.000  H
  H56      1.0000 0.59920  0.57530  0.50650  Biso   1.000  H
  C57      1.0000 0.02070  0.95870  0.06021  Biso   1.000  C
  C58      1.0000 0.97930  0.95870  0.43979  Biso   1.000  C
  C59      1.0000 0.52070  0.45870  0.06021  Biso   1.000  C
  C60      1.0000 0.47930  0.45870  0.43979  Biso   1.000  C
  C61      1.0000 0.97930  0.04130  0.93979  Biso   1.000  C
  C62      1.0000 0.02070  0.04130  0.56021  Biso   1.000  C
  C63      1.0000 0.47930  0.54130  0.93979  Biso   1.000  C
  C64      1.0000 0.52070  0.54130  0.56021  Biso   1.000  C
  H57      1.0000 0.96020  0.94530  0.04300  Biso   1.000  H
  H58      1.0000 0.03980  0.94530  0.45700  Biso   1.000  H
  H59      1.0000 0.46020  0.44530  0.04300  Biso   1.000  H
  H60      1.0000 0.53980  0.44530  0.45700  Biso   1.000  H
  H61      1.0000 0.03980  0.05470  0.95700  Biso   1.000  H
  H62      1.0000 0.96020  0.05470  0.54300  Biso   1.000  H
  H63      1.0000 0.53980  0.55470  0.95700  Biso   1.000  H
  H64      1.0000 0.46020  0.55470  0.54300  Biso   1.000  H
  C65      1.0000 0.21520  0.83750  0.17381  Biso   1.000  C
  C66      1.0000 0.78480  0.83750  0.32619  Biso   1.000  C
  C67      1.0000 0.71520  0.33750  0.17381  Biso   1.000  C
  C68      1.0000 0.28480  0.33750  0.32619  Biso   1.000  C
  C69      1.0000 0.78480  0.16250  0.82619  Biso   1.000  C
  C70      1.0000 0.21520  0.16250  0.67381  Biso   1.000  C
  C71      1.0000 0.28480  0.66250  0.82619  Biso   1.000  C
  C72      1.0000 0.71520  0.66250  0.67381  Biso   1.000  C
  H65      1.0000 0.28000  0.84650  0.18660  Biso   1.000  H
  H66      1.0000 0.72000  0.84650  0.31340  Biso   1.000  H
  H67      1.0000 0.78000  0.34650  0.18660  Biso   1.000  H
  H68      1.0000 0.22000  0.34650  0.31340  Biso   1.000  H
  H69      1.0000 0.72000  0.15350  0.81340  Biso   1.000  H
  H70      1.0000 0.28000  0.15350  0.68660  Biso   1.000  H
  H71      1.0000 0.22000  0.65350  0.81340  Biso   1.000  H
  H72      1.0000 0.78000  0.65350  0.68660  Biso   1.000  H
  C73      1.0000 0.19030  0.79460  0.13157  Biso   1.000  C
  C74      1.0000 0.80970  0.79460  0.36843  Biso   1.000  C
  C75      1.0000 0.69030  0.29460  0.13157  Biso   1.000  C
  C76      1.0000 0.30970  0.29460  0.36843  Biso   1.000  C
  C77      1.0000 0.80970  0.20540  0.86843  Biso   1.000  C
  C78      1.0000 0.19030  0.20540  0.63157  Biso   1.000  C
  C79      1.0000 0.30970  0.70540  0.86843  Biso   1.000  C
  C80      1.0000 0.69030  0.70540  0.63157  Biso   1.000  C
  H73      1.0000 0.23850  0.77390  0.11600  Biso   1.000  H
  H74      1.0000 0.76150  0.77390  0.38400  Biso   1.000  H
  H75      1.0000 0.73850  0.27390  0.11600  Biso   1.000  H
  H76      1.0000 0.26150  0.27390  0.38400  Biso   1.000  H
  H77      1.0000 0.76150  0.22610  0.88400  Biso   1.000  H
  H78      1.0000 0.23850  0.22610  0.61600  Biso   1.000  H
  H79      1.0000 0.26150  0.72610  0.88400  Biso   1.000  H
  H80      1.0000 0.73850  0.72610  0.61600  Biso   1.000  H
  C81      1.0000 0.16340  0.24980  0.21624  Biso   1.000  C
  C82      1.0000 0.83660  0.24980  0.28376  Biso   1.000  C
  C83      1.0000 0.66340  0.74980  0.21624  Biso   1.000  C
  C84      1.0000 0.33660  0.74980  0.28376  Biso   1.000  C
  C85      1.0000 0.83660  0.75020  0.78376  Biso   1.000  C
  C86      1.0000 0.16340  0.75020  0.71624  Biso   1.000  C
  C87      1.0000 0.33660  0.25020  0.78376  Biso   1.000  C
  C88      1.0000 0.66340  0.25020  0.71624  Biso   1.000  C
  H81      1.0000 0.22120  0.25750  0.23860  Biso   1.000  H
  H82      1.0000 0.77880  0.25750  0.26140  Biso   1.000  H
  H83      1.0000 0.72120  0.75750  0.23860  Biso   1.000  H
  H84      1.0000 0.27880  0.75750  0.26140  Biso   1.000  H
  H85      1.0000 0.77880  0.74250  0.76140  Biso   1.000  H
  H86      1.0000 0.22120  0.74250  0.73860  Biso   1.000  H
  H87      1.0000 0.27880  0.24250  0.76140  Biso   1.000  H
  H88      1.0000 0.72120  0.24250  0.73860  Biso   1.000  H
  C89      1.0000 0.28510  0.95743  0.04326  Biso   1.000  C
  C90      1.0000 0.71490  0.95743  0.45674  Biso   1.000  C
  C91      1.0000 0.78510  0.45743  0.04326  Biso   1.000  C
  C92      1.0000 0.21490  0.45743  0.45674  Biso   1.000  C
  C93      1.0000 0.71490  0.04257  0.95674  Biso   1.000  C
  C94      1.0000 0.28510  0.04257  0.54326  Biso   1.000  C
  C95      1.0000 0.21490  0.54257  0.95674  Biso   1.000  C
  C96      1.0000 0.78510  0.54257  0.54326  Biso   1.000  C
  C97      1.0000 0.19600  0.00007  0.11225  Biso   1.000  C
  C98      1.0000 0.80400  0.00007  0.38775  Biso   1.000  C
  C99      1.0000 0.69600  0.50007  0.11225  Biso   1.000  C
  C100     1.0000 0.30400  0.50007  0.38775  Biso   1.000  C
  C101     1.0000 0.80400  0.99993  0.88775  Biso   1.000  C
  C102     1.0000 0.19600  0.99993  0.61225  Biso   1.000  C
  C103     1.0000 0.30400  0.49993  0.88775  Biso   1.000  C
  C104     1.0000 0.69600  0.49993  0.61225  Biso   1.000  C
  H89      1.0000 0.25570  0.01480  0.12960  Biso   1.000  H
  H90      1.0000 0.74430  0.01480  0.37040  Biso   1.000  H
  H91      1.0000 0.75570  0.51480  0.12960  Biso   1.000  H
  H92      1.0000 0.24430  0.51480  0.37040  Biso   1.000  H
  H93      1.0000 0.74430  0.98520  0.87040  Biso   1.000  H
  H94      1.0000 0.25570  0.98520  0.62960  Biso   1.000  H
  H95      1.0000 0.24430  0.48520  0.87040  Biso   1.000  H
  H96      1.0000 0.75570  0.48520  0.62960  Biso   1.000  H
  C105     1.0000 0.06210  0.73580  0.06713  Biso   1.000  C
  C106     1.0000 0.93790  0.73580  0.43287  Biso   1.000  C
  C107     1.0000 0.56210  0.23580  0.06713  Biso   1.000  C
  C108     1.0000 0.43790  0.23580  0.43287  Biso   1.000  C
  C109     1.0000 0.93790  0.26420  0.93287  Biso   1.000  C
  C110     1.0000 0.06210  0.26420  0.56713  Biso   1.000  C
  C111     1.0000 0.43790  0.76420  0.93287  Biso   1.000  C
  C112     1.0000 0.56210  0.76420  0.56713  Biso   1.000  C
  C113     1.0000 0.02970  0.99091  0.10861  Biso   1.000  C
  C114     1.0000 0.97030  0.99091  0.39139  Biso   1.000  C
  C115     1.0000 0.52970  0.49091  0.10861  Biso   1.000  C
  C116     1.0000 0.47030  0.49091  0.39139  Biso   1.000  C
  C117     1.0000 0.97030  0.00909  0.89139  Biso   1.000  C
  C118     1.0000 0.02970  0.00909  0.60861  Biso   1.000  C
  C119     1.0000 0.47030  0.50909  0.89139  Biso   1.000  C
  C120     1.0000 0.52970  0.50909  0.60861  Biso   1.000  C
  C121     1.0000 0.99560  0.33840  0.10778  Biso   1.000  C
  C122     1.0000 0.00440  0.33840  0.39222  Biso   1.000  C
  C123     1.0000 0.49560  0.83840  0.10778  Biso   1.000  C
  C124     1.0000 0.50440  0.83840  0.39222  Biso   1.000  C
  C125     1.0000 0.00440  0.66160  0.89222  Biso   1.000  C
  C126     1.0000 0.99560  0.66160  0.60778  Biso   1.000  C
  C127     1.0000 0.50440  0.16160  0.89222  Biso   1.000  C
  C128     1.0000 0.49560  0.16160  0.60778  Biso   1.000  C
  C129     1.0000 0.12400  0.30020  0.18182  Biso   1.000  C
  C130     1.0000 0.87600  0.30020  0.31818  Biso   1.000  C
  C131     1.0000 0.62400  0.80020  0.18182  Biso   1.000  C
  C132     1.0000 0.37600  0.80020  0.31818  Biso   1.000  C
  C133     1.0000 0.87600  0.69980  0.81818  Biso   1.000  C
  C134     1.0000 0.12400  0.69980  0.68182  Biso   1.000  C
  C135     1.0000 0.37600  0.19980  0.81818  Biso   1.000  C
  C136     1.0000 0.62400  0.19980  0.68182  Biso   1.000  C
  H97      1.0000 0.15500  0.34230  0.18120  Biso   1.000  H
  H98      1.0000 0.84500  0.34230  0.31880  Biso   1.000  H
  H99      1.0000 0.65500  0.84230  0.18120  Biso   1.000  H
  H100     1.0000 0.34500  0.84230  0.31880  Biso   1.000  H
  H101     1.0000 0.84500  0.65770  0.81880  Biso   1.000  H
  H102     1.0000 0.15500  0.65770  0.68120  Biso   1.000  H
  H103     1.0000 0.34500  0.15770  0.81880  Biso   1.000  H
  H104     1.0000 0.65500  0.15770  0.68120  Biso   1.000  H
  C137     1.0000 0.11530  0.18739  0.21696  Biso   1.000  C
  C138     1.0000 0.88470  0.18739  0.28304  Biso   1.000  C
  C139     1.0000 0.61530  0.68739  0.21696  Biso   1.000  C
  C140     1.0000 0.38470  0.68739  0.28304  Biso   1.000  C
  C141     1.0000 0.88470  0.81261  0.78304  Biso   1.000  C
  C142     1.0000 0.11530  0.81261  0.71696  Biso   1.000  C
  C143     1.0000 0.38470  0.31261  0.78304  Biso   1.000  C
  C144     1.0000 0.61530  0.31261  0.71696  Biso   1.000  C
  C145     1.0000 0.17490  0.51620  0.14190  Biso   1.000  C
  C146     1.0000 0.82510  0.51620  0.35810  Biso   1.000  C
  C147     1.0000 0.67490  0.01620  0.14190  Biso   1.000  C
  C148     1.0000 0.32510  0.01620  0.35810  Biso   1.000  C
  C149     1.0000 0.82510  0.48380  0.85810  Biso   1.000  C
  C150     1.0000 0.17490  0.48380  0.64190  Biso   1.000  C
  C151     1.0000 0.32510  0.98380  0.85810  Biso   1.000  C
  C152     1.0000 0.67490  0.98380  0.64190  Biso   1.000  C
  H105     1.0000 0.24270  0.52690  0.15350  Biso   1.000  H
  H106     1.0000 0.75730  0.52690  0.34650  Biso   1.000  H
  H107     1.0000 0.74270  0.02690  0.15350  Biso   1.000  H
  H108     1.0000 0.25730  0.02690  0.34650  Biso   1.000  H
  H109     1.0000 0.75730  0.47310  0.84650  Biso   1.000  H
  H110     1.0000 0.24270  0.47310  0.65350  Biso   1.000  H
  H111     1.0000 0.25730  0.97310  0.84650  Biso   1.000  H
  H112     1.0000 0.74270  0.97310  0.65350  Biso   1.000  H
  H113     1.0000 0.15610  0.48030  0.16410  Biso   1.000  H
  H114     1.0000 0.84390  0.48030  0.33590  Biso   1.000  H
  H115     1.0000 0.65610  0.98030  0.16410  Biso   1.000  H
  H116     1.0000 0.34390  0.98030  0.33590  Biso   1.000  H
  H117     1.0000 0.84390  0.51970  0.83590  Biso   1.000  H
  H118     1.0000 0.15610  0.51970  0.66410  Biso   1.000  H
  H119     1.0000 0.34390  0.01970  0.83590  Biso   1.000  H
  H120     1.0000 0.65610  0.01970  0.66410  Biso   1.000  H
  C153     1.0000 0.11430  0.57840  0.14618  Biso   1.000  C
  C154     1.0000 0.88570  0.57840  0.35382  Biso   1.000  C
  C155     1.0000 0.61430  0.07840  0.14618  Biso   1.000  C
  C156     1.0000 0.38570  0.07840  0.35382  Biso   1.000  C
  C157     1.0000 0.88570  0.42160  0.85382  Biso   1.000  C
  C158     1.0000 0.11430  0.42160  0.64618  Biso   1.000  C
  C159     1.0000 0.38570  0.92160  0.85382  Biso   1.000  C
  C160     1.0000 0.61430  0.92160  0.64618  Biso   1.000  C
  H121     1.0000 0.11850  0.59130  0.18250  Biso   1.000  H
  H122     1.0000 0.88150  0.59130  0.31750  Biso   1.000  H
  H123     1.0000 0.61850  0.09130  0.18250  Biso   1.000  H
  H124     1.0000 0.38150  0.09130  0.31750  Biso   1.000  H
  H125     1.0000 0.88150  0.40870  0.81750  Biso   1.000  H
  H126     1.0000 0.11850  0.40870  0.68250  Biso   1.000  H
  H127     1.0000 0.38150  0.90870  0.81750  Biso   1.000  H
  H128     1.0000 0.61850  0.90870  0.68250  Biso   1.000  H
  H129     1.0000 0.13870  0.61610  0.12770  Biso   1.000  H
  H130     1.0000 0.86130  0.61610  0.37230  Biso   1.000  H
  H131     1.0000 0.63870  0.11610  0.12770  Biso   1.000  H
  H132     1.0000 0.36130  0.11610  0.37230  Biso   1.000  H
  H133     1.0000 0.86130  0.38390  0.87230  Biso   1.000  H
  H134     1.0000 0.13870  0.38390  0.62770  Biso   1.000  H
  H135     1.0000 0.36130  0.88390  0.87230  Biso   1.000  H
  H136     1.0000 0.63870  0.88390  0.62770  Biso   1.000  H
  H137     1.0000 0.93700  0.59200  0.00140  Biso   1.000  H
  H138     1.0000 0.06300  0.59200  0.49860  Biso   1.000  H
  H139     1.0000 0.43700  0.09200  0.00140  Biso   1.000  H
  H140     1.0000 0.56300  0.09200  0.49860  Biso   1.000  H
  H141     1.0000 0.06300  0.40800  0.99860  Biso   1.000  H
  H142     1.0000 0.93700  0.40800  0.50140  Biso   1.000  H
  H143     1.0000 0.56300  0.90800  0.99860  Biso   1.000  H
  H144     1.0000 0.43700  0.90800  0.50140  Biso   1.000  H
  O57      1.0000 0.16650  0.34765  0.02538  Biso   1.000  O
  O58      1.0000 0.83350  0.34765  0.47462  Biso   1.000  O
  O59      1.0000 0.66650  0.84765  0.02538  Biso   1.000  O
  O60      1.0000 0.33350  0.84765  0.47462  Biso   1.000  O
  O61      1.0000 0.83350  0.65235  0.97462  Biso   1.000  O
  O62      1.0000 0.16650  0.65235  0.52538  Biso   1.000  O
  O63      1.0000 0.33350  0.15235  0.97462  Biso   1.000  O
  O64      1.0000 0.66650  0.15235  0.52538  Biso   1.000  O
  O65      1.0000 0.14460  0.83470  0.49469  Biso   1.000  O
  O66      1.0000 0.85540  0.83470  0.00531  Biso   1.000  O
  O67      1.0000 0.64460  0.33470  0.49469  Biso   1.000  O
  O68      1.0000 0.35540  0.33470  0.00531  Biso   1.000  O
  O69      1.0000 0.85540  0.16530  0.50531  Biso   1.000  O
  O70      1.0000 0.14460  0.16530  0.99469  Biso   1.000  O
  O71      1.0000 0.35540  0.66530  0.50531  Biso   1.000  O
  O72      1.0000 0.64460  0.66530  0.99469  Biso   1.000  O
  H145     1.0000 0.18230  0.86560  0.49020  Biso   1.000  H
  H146     1.0000 0.81770  0.86560  0.00980  Biso   1.000  H
  H147     1.0000 0.68230  0.36560  0.49020  Biso   1.000  H
  H148     1.0000 0.31770  0.36560  0.00980  Biso   1.000  H
  H149     1.0000 0.81770  0.13440  0.50980  Biso   1.000  H
  H150     1.0000 0.18230  0.13440  0.99020  Biso   1.000  H
  H151     1.0000 0.31770  0.63440  0.50980  Biso   1.000  H
  H152     1.0000 0.68230  0.63440  0.99020  Biso   1.000  H
  C161     1.0000 0.12480  0.83720  0.54730  Biso   1.000  C
  C162     1.0000 0.87520  0.83720  0.95270  Biso   1.000  C
  C163     1.0000 0.62480  0.33720  0.54730  Biso   1.000  C
  C164     1.0000 0.37520  0.33720  0.95270  Biso   1.000  C
  C165     1.0000 0.87520  0.16280  0.45270  Biso   1.000  C
  C166     1.0000 0.12480  0.16280  0.04730  Biso   1.000  C
  C167     1.0000 0.37520  0.66280  0.45270  Biso   1.000  C
  C168     1.0000 0.62480  0.66280  0.04730  Biso   1.000  C
  H153     1.0000 0.07950  0.80120  0.55250  Biso   1.000  H
  H154     1.0000 0.92050  0.80120  0.94750  Biso   1.000  H
  H155     1.0000 0.57950  0.30120  0.55250  Biso   1.000  H
  H156     1.0000 0.42050  0.30120  0.94750  Biso   1.000  H
  H157     1.0000 0.92050  0.19880  0.44750  Biso   1.000  H
  H158     1.0000 0.07950  0.19880  0.05250  Biso   1.000  H
  H159     1.0000 0.42050  0.69880  0.44750  Biso   1.000  H
  H160     1.0000 0.57950  0.69880  0.05250  Biso   1.000  H
  H161     1.0000 0.09490  0.88070  0.55320  Biso   1.000  H
  H162     1.0000 0.90510  0.88070  0.94680  Biso   1.000  H
  H163     1.0000 0.59490  0.38070  0.55320  Biso   1.000  H
  H164     1.0000 0.40510  0.38070  0.94680  Biso   1.000  H
  H165     1.0000 0.90510  0.11930  0.44680  Biso   1.000  H
  H166     1.0000 0.09490  0.11930  0.05320  Biso   1.000  H
  H167     1.0000 0.40510  0.61930  0.44680  Biso   1.000  H
  H168     1.0000 0.59490  0.61930  0.05320  Biso   1.000  H
  C169     1.0000 0.21730  0.82870  0.58590  Biso   1.000  C
  C170     1.0000 0.78270  0.82870  0.91410  Biso   1.000  C
  C171     1.0000 0.71730  0.32870  0.58590  Biso   1.000  C
  C172     1.0000 0.28270  0.32870  0.91410  Biso   1.000  C
  C173     1.0000 0.78270  0.17130  0.41410  Biso   1.000  C
  C174     1.0000 0.21730  0.17130  0.08590  Biso   1.000  C
  C175     1.0000 0.28270  0.67130  0.41410  Biso   1.000  C
  C176     1.0000 0.71730  0.67130  0.08590  Biso   1.000  C
  H169     1.0000 0.20220  0.83020  0.62070  Biso   1.000  H
  H170     1.0000 0.79780  0.83020  0.87930  Biso   1.000  H
  H171     1.0000 0.70220  0.33020  0.62070  Biso   1.000  H
  H172     1.0000 0.29780  0.33020  0.87930  Biso   1.000  H
  H173     1.0000 0.79780  0.16980  0.37930  Biso   1.000  H
  H174     1.0000 0.20220  0.16980  0.12070  Biso   1.000  H
  H175     1.0000 0.29780  0.66980  0.37930  Biso   1.000  H
  H176     1.0000 0.70220  0.66980  0.12070  Biso   1.000  H
  H177     1.0000 0.26150  0.86500  0.58130  Biso   1.000  H
  H178     1.0000 0.73850  0.86500  0.91870  Biso   1.000  H
  H179     1.0000 0.76150  0.36500  0.58130  Biso   1.000  H
  H180     1.0000 0.23850  0.36500  0.91870  Biso   1.000  H
  H181     1.0000 0.73850  0.13500  0.41870  Biso   1.000  H
  H182     1.0000 0.26150  0.13500  0.08130  Biso   1.000  H
  H183     1.0000 0.23850  0.63500  0.41870  Biso   1.000  H
  H184     1.0000 0.76150  0.63500  0.08130  Biso   1.000  H
  H185     1.0000 0.24660  0.78550  0.58020  Biso   1.000  H
  H186     1.0000 0.75340  0.78550  0.91980  Biso   1.000  H
  H187     1.0000 0.74660  0.28550  0.58020  Biso   1.000  H
  H188     1.0000 0.25340  0.28550  0.91980  Biso   1.000  H
  H189     1.0000 0.75340  0.21450  0.41980  Biso   1.000  H
  H190     1.0000 0.24660  0.21450  0.08020  Biso   1.000  H
  H191     1.0000 0.25340  0.71450  0.41980  Biso   1.000  H
  H192     1.0000 0.74660  0.71450  0.08020  Biso   1.000  H
  O73      1.0000 0.87150  0.57830  0.20900  Biso   1.000  O
  O74      1.0000 0.12850  0.57830  0.29100  Biso   1.000  O
  O75      1.0000 0.37150  0.07830  0.20900  Biso   1.000  O
  O76      1.0000 0.62850  0.07830  0.29100  Biso   1.000  O
  O77      1.0000 0.12850  0.42170  0.79100  Biso   1.000  O
  O78      1.0000 0.87150  0.42170  0.70900  Biso   1.000  O
  O79      1.0000 0.62850  0.92170  0.79100  Biso   1.000  O
  O80      1.0000 0.37150  0.92170  0.70900  Biso   1.000  O
