data_image0
_cell_length_a       11.1148
_cell_length_b       16.4516
_cell_length_c       20.8107
_cell_angle_alpha    77.806
_cell_angle_beta     86.676
_cell_angle_gamma    77.019

_symmetry_space_group_name_H-M    "P 1"
_symmetry_int_tables_number       1

loop_
  _symmetry_equiv_pos_as_xyz
  'x, y, z'

loop_
  _atom_site_label
  _atom_site_occupancy
  _atom_site_fract_x
  _atom_site_fract_y
  _atom_site_fract_z
  _atom_site_thermal_displace_type
  _atom_site_B_iso_or_equiv
  _atom_site_type_symbol
  Cu1      1.0000 0.63382  0.00352  0.93456  Biso   1.000  Cu
  Cu2      1.0000 0.36618  0.99648  0.06544  Biso   1.000  Cu
  Cu3      1.0000 0.62030  0.57243  0.51831  Biso   1.000  Cu
  Cu4      1.0000 0.37970  0.42757  0.48169  Biso   1.000  Cu
  Zn1      1.0000 0.01934  0.19552  0.63589  Biso   1.000  Zn
  Zn2      1.0000 0.98066  0.80448  0.36411  Biso   1.000  Zn
  Cu5      1.0000 0.50908  0.11519  0.01074  Biso   1.000  Cu
  Cu6      1.0000 0.49092  0.88481  0.98926  Biso   1.000  Cu
  Cu7      1.0000 0.37768  0.05274  0.92933  Biso   1.000  Cu
  Cu8      1.0000 0.62232  0.94726  0.07067  Biso   1.000  Cu
  Cu9      1.0000 0.56298  0.52736  0.40388  Biso   1.000  Cu
  Cu10     1.0000 0.43702  0.47264  0.59612  Biso   1.000  Cu
  Zn3      1.0000 0.12535  0.13180  0.33519  Biso   1.000  Zn
  Zn4      1.0000 0.87465  0.86820  0.66481  Biso   1.000  Zn
  Zn5      1.0000 0.66672  0.49733  0.06938  Biso   1.000  Zn
  Zn6      1.0000 0.33328  0.50267  0.93062  Biso   1.000  Zn
  S1       1.0000 0.78041  0.98564  0.00923  Biso   1.000  S
  S2       1.0000 0.21959  0.01436  0.99077  Biso   1.000  S
  S3       1.0000 0.42097  0.18289  0.91337  Biso   1.000  S
  S4       1.0000 0.57903  0.81711  0.08663  Biso   1.000  S
  S5       1.0000 0.26455  0.55054  0.42629  Biso   1.000  S
  S6       1.0000 0.73545  0.44946  0.57371  Biso   1.000  S
  S7       1.0000 0.59784  0.89505  0.89327  Biso   1.000  S
  S8       1.0000 0.40216  0.10495  0.10673  Biso   1.000  S
  S9       1.0000 0.66525  0.38997  0.41576  Biso   1.000  S
  S10      1.0000 0.33475  0.61003  0.58424  Biso   1.000  S
  S11      1.0000 0.65618  0.63100  0.41337  Biso   1.000  S
  S12      1.0000 0.34382  0.36900  0.58663  Biso   1.000  S
  C1       1.0000 0.28470  0.23960  0.31750  Biso   1.000  C
  C2       1.0000 0.71530  0.76040  0.68250  Biso   1.000  C
  O1       1.0000 0.18170  0.94270  0.44770  Biso   1.000  O
  O2       1.0000 0.81830  0.05730  0.55230  Biso   1.000  O
  O3       1.0000 0.89950  0.08570  0.71280  Biso   1.000  O
  O4       1.0000 0.10050  0.91430  0.28720  Biso   1.000  O
  O5       1.0000 0.27350  0.02080  0.36690  Biso   1.000  O
  O6       1.0000 0.72650  0.97920  0.63310  Biso   1.000  O
  O7       1.0000 0.86310  0.22750  0.68170  Biso   1.000  O
  O8       1.0000 0.13690  0.77250  0.31830  Biso   1.000  O
  O9       1.0000 0.03440  0.08990  0.41840  Biso   1.000  O
  O10      1.0000 0.96560  0.91010  0.58160  Biso   1.000  O
  N1       1.0000 0.04240  0.31540  0.58210  Biso   1.000  N
  N2       1.0000 0.95760  0.68460  0.41790  Biso   1.000  N
  H1       1.0000 0.01840  0.36520  0.59130  Biso   1.000  H
  H2       1.0000 0.98160  0.63480  0.40870  Biso   1.000  H
  O11      1.0000 0.15750  0.14320  0.69480  Biso   1.000  O
  O12      1.0000 0.84250  0.85680  0.30520  Biso   1.000  O
  N3       1.0000 0.43710  0.54350  0.33250  Biso   1.000  N
  N4       1.0000 0.56290  0.45650  0.66750  Biso   1.000  N
  N5       1.0000 0.63130  0.10760  0.86150  Biso   1.000  N
  N6       1.0000 0.36870  0.89240  0.13850  Biso   1.000  N
  O13      1.0000 0.21150  0.21290  0.36260  Biso   1.000  O
  O14      1.0000 0.78850  0.78710  0.63740  Biso   1.000  O
  N7       1.0000 0.44370  0.34980  0.41700  Biso   1.000  N
  N8       1.0000 0.55630  0.65020  0.58300  Biso   1.000  N
  O15      1.0000 0.28210  0.23440  0.25850  Biso   1.000  O
  O16      1.0000 0.71790  0.76560  0.74150  Biso   1.000  O
  O17      1.0000 0.20390  0.03790  0.63820  Biso   1.000  O
  O18      1.0000 0.79610  0.96210  0.36180  Biso   1.000  O
  N9       1.0000 0.39690  0.01050  0.84360  Biso   1.000  N
  N10      1.0000 0.60310  0.98950  0.15640  Biso   1.000  N
  N11      1.0000 0.00780  0.16580  0.54700  Biso   1.000  N
  N12      1.0000 0.99220  0.83420  0.45300  Biso   1.000  N
  H3       1.0000 0.96980  0.12650  0.54450  Biso   1.000  H
  H4       1.0000 0.03020  0.87350  0.45550  Biso   1.000  H
  C3       1.0000 0.31140  0.02170  0.73630  Biso   1.000  C
  C4       1.0000 0.68860  0.97830  0.26370  Biso   1.000  C
  C5       1.0000 0.38080  0.27930  0.33940  Biso   1.000  C
  C6       1.0000 0.61920  0.72070  0.66060  Biso   1.000  C
  C7       1.0000 0.36280  0.87390  0.39890  Biso   1.000  C
  C8       1.0000 0.63720  0.12610  0.60110  Biso   1.000  C
  C9       1.0000 0.72340  0.10350  0.81620  Biso   1.000  C
  C10      1.0000 0.27660  0.89650  0.18380  Biso   1.000  C
  H5       1.0000 0.78550  0.05430  0.82160  Biso   1.000  H
  H6       1.0000 0.21450  0.94570  0.17840  Biso   1.000  H
  O19      1.0000 0.67250  0.38210  0.05700  Biso   1.000  O
  O20      1.0000 0.32750  0.61790  0.94300  Biso   1.000  O
  N13      1.0000 0.67500  0.14310  0.02440  Biso   1.000  N
  N14      1.0000 0.32500  0.85690  0.97560  Biso   1.000  N
  C11      1.0000 0.73130  0.16740  0.76260  Biso   1.000  C
  C12      1.0000 0.26870  0.83260  0.23740  Biso   1.000  C
  N15      1.0000 0.95030  0.20750  0.29200  Biso   1.000  N
  N16      1.0000 0.04970  0.79250  0.70800  Biso   1.000  N
  H7       1.0000 0.89160  0.24740  0.30120  Biso   1.000  H
  H8       1.0000 0.10840  0.75260  0.69880  Biso   1.000  H
  N17      1.0000 0.43070  0.72120  0.43150  Biso   1.000  N
  N18      1.0000 0.56930  0.27880  0.56850  Biso   1.000  N
  N19      1.0000 0.14300  0.08800  0.24900  Biso   1.000  N
  N20      1.0000 0.85700  0.91200  0.75100  Biso   1.000  N
  H9       1.0000 0.21620  0.07140  0.23410  Biso   1.000  H
  H10      1.0000 0.78380  0.92860  0.76590  Biso   1.000  H
  C13      1.0000 0.31510  0.04760  0.79590  Biso   1.000  C
  C14      1.0000 0.68490  0.95240  0.20410  Biso   1.000  C
  H11      1.0000 0.25550  0.09470  0.80280  Biso   1.000  H
  H12      1.0000 0.74450  0.90530  0.19720  Biso   1.000  H
  C15      1.0000 0.54070  0.24610  0.80060  Biso   1.000  C
  C16      1.0000 0.45930  0.75390  0.19940  Biso   1.000  C
  H13      1.0000 0.47760  0.29480  0.79570  Biso   1.000  H
  H14      1.0000 0.52240  0.70520  0.20430  Biso   1.000  H
  C17      1.0000 0.47340  0.87680  0.36420  Biso   1.000  C
  C18      1.0000 0.52660  0.12320  0.63580  Biso   1.000  C
  H15      1.0000 0.48710  0.92850  0.34020  Biso   1.000  H
  H16      1.0000 0.51290  0.07150  0.65980  Biso   1.000  H
  C19      1.0000 0.56310  0.80260  0.36560  Biso   1.000  C
  C20      1.0000 0.43690  0.19740  0.63440  Biso   1.000  C
  H17      1.0000 0.63670  0.80410  0.34210  Biso   1.000  H
  H18      1.0000 0.36330  0.19590  0.65790  Biso   1.000  H
  O21      1.0000 0.39720  0.52810  0.11060  Biso   1.000  O
  O22      1.0000 0.60280  0.47190  0.88940  Biso   1.000  O
  O23      1.0000 0.58130  0.51890  0.15000  Biso   1.000  O
  O24      1.0000 0.41870  0.48110  0.85000  Biso   1.000  O
  C21      1.0000 0.78310  0.08740  0.02240  Biso   1.000  C
  C22      1.0000 0.21690  0.91260  0.97760  Biso   1.000  C
  C23      1.0000 0.47900  0.53780  0.27100  Biso   1.000  C
  C24      1.0000 0.52100  0.46220  0.72900  Biso   1.000  C
  H19      1.0000 0.56260  0.53570  0.26240  Biso   1.000  H
  H20      1.0000 0.43740  0.46430  0.73760  Biso   1.000  H
  C25      1.0000 0.40840  0.53500  0.22100  Biso   1.000  C
  C26      1.0000 0.59160  0.46500  0.77900  Biso   1.000  C
  C27      1.0000 0.26460  0.95150  0.40420  Biso   1.000  C
  C28      1.0000 0.73540  0.04850  0.59580  Biso   1.000  C
  C29      1.0000 0.83880  0.15810  0.71620  Biso   1.000  C
  C30      1.0000 0.16120  0.84190  0.28380  Biso   1.000  C
  C31      1.0000 0.54050  0.17840  0.85360  Biso   1.000  C
  C32      1.0000 0.45950  0.82160  0.14640  Biso   1.000  C
  C33      1.0000 0.63600  0.23960  0.75570  Biso   1.000  C
  C34      1.0000 0.36400  0.76040  0.24430  Biso   1.000  C
  H21      1.0000 0.63680  0.28430  0.71990  Biso   1.000  H
  H22      1.0000 0.36320  0.71570  0.28010  Biso   1.000  H
  C35      1.0000 0.40110  0.95130  0.72810  Biso   1.000  C
  C36      1.0000 0.59890  0.04870  0.27190  Biso   1.000  C
  H23      1.0000 0.40250  0.93060  0.68970  Biso   1.000  H
  H24      1.0000 0.59750  0.06940  0.31030  Biso   1.000  H
  C37      1.0000 0.48480  0.94300  0.83270  Biso   1.000  C
  C38      1.0000 0.51520  0.05700  0.16730  Biso   1.000  C
  C39      1.0000 0.67610  0.21930  0.03590  Biso   1.000  C
  C40      1.0000 0.32390  0.78070  0.96410  Biso   1.000  C
  H25      1.0000 0.60060  0.25680  0.03850  Biso   1.000  H
  H26      1.0000 0.39940  0.74320  0.96150  Biso   1.000  H
  C41      1.0000 0.57700  0.31490  0.32820  Biso   1.000  C
  C42      1.0000 0.42300  0.68510  0.67180  Biso   1.000  C
  H27      1.0000 0.65290  0.31460  0.30680  Biso   1.000  H
  H28      1.0000 0.34710  0.68540  0.69320  Biso   1.000  H
  C43      1.0000 0.89570  0.10910  0.03160  Biso   1.000  C
  C44      1.0000 0.10430  0.89090  0.96840  Biso   1.000  C
  H29      1.0000 0.97040  0.07040  0.02980  Biso   1.000  H
  H30      1.0000 0.02960  0.92960  0.97020  Biso   1.000  H
  C45      1.0000 0.06130  0.30640  0.51230  Biso   1.000  C
  C46      1.0000 0.93870  0.69360  0.48770  Biso   1.000  C
  H31      1.0000 0.14830  0.27950  0.50670  Biso   1.000  H
  H32      1.0000 0.85170  0.72050  0.49330  Biso   1.000  H
  C47      1.0000 0.31680  0.54760  0.34540  Biso   1.000  C
  C48      1.0000 0.68320  0.45240  0.65460  Biso   1.000  C
  C49      1.0000 0.48880  0.91110  0.77550  Biso   1.000  C
  C50      1.0000 0.51120  0.08890  0.22450  Biso   1.000  C
  H33      1.0000 0.54900  0.86390  0.76940  Biso   1.000  H
  H34      1.0000 0.45100  0.13610  0.23060  Biso   1.000  H
  C51      1.0000 0.54170  0.72570  0.40240  Biso   1.000  C
  C52      1.0000 0.45830  0.27430  0.59760  Biso   1.000  C
  C53      1.0000 0.36120  0.31270  0.39500  Biso   1.000  C
  C54      1.0000 0.63880  0.68730  0.60500  Biso   1.000  C
  H35      1.0000 0.28820  0.30990  0.41870  Biso   1.000  H
  H36      1.0000 0.71180  0.69010  0.58130  Biso   1.000  H
  C55      1.0000 0.98390  0.24710  0.49790  Biso   1.000  C
  C56      1.0000 0.01610  0.75290  0.50210  Biso   1.000  C
  H37      1.0000 0.89700  0.27440  0.49900  Biso   1.000  H
  H38      1.0000 0.10300  0.72560  0.50100  Biso   1.000  H
  H39      1.0000 0.00380  0.23570  0.45420  Biso   1.000  H
  H40      1.0000 0.99620  0.76430  0.54580  Biso   1.000  H
  C57      1.0000 0.55350  0.34690  0.38530  Biso   1.000  C
  C58      1.0000 0.44650  0.65310  0.61470  Biso   1.000  C
  C59      1.0000 0.21670  0.07010  0.68560  Biso   1.000  C
  C60      1.0000 0.78330  0.92990  0.31440  Biso   1.000  C
  C61      1.0000 0.34700  0.79300  0.43150  Biso   1.000  C
  C62      1.0000 0.65300  0.20700  0.56850  Biso   1.000  C
  H41      1.0000 0.27340  0.78940  0.45450  Biso   1.000  H
  H42      1.0000 0.72660  0.21060  0.54550  Biso   1.000  H
  C63      1.0000 0.78260  0.24700  0.04440  Biso   1.000  C
  C64      1.0000 0.21740  0.75300  0.95560  Biso   1.000  C
  C65      1.0000 0.23510  0.54850  0.29570  Biso   1.000  C
  C66      1.0000 0.76490  0.45150  0.70430  Biso   1.000  C
  H43      1.0000 0.15090  0.55440  0.30430  Biso   1.000  H
  H44      1.0000 0.84910  0.44560  0.69570  Biso   1.000  H
  C67      1.0000 0.89260  0.18740  0.04320  Biso   1.000  C
  C68      1.0000 0.10740  0.81260  0.95680  Biso   1.000  C
  H45      1.0000 0.96620  0.20180  0.05050  Biso   1.000  H
  H46      1.0000 0.03380  0.79820  0.94950  Biso   1.000  H
  C69      1.0000 0.03480  0.38950  0.46470  Biso   1.000  C
  C70      1.0000 0.96520  0.61050  0.53530  Biso   1.000  C
  H47      1.0000 0.08510  0.42560  0.47450  Biso   1.000  H
  H48      1.0000 0.91490  0.57440  0.52550  Biso   1.000  H
  H49      1.0000 0.94930  0.41640  0.46790  Biso   1.000  H
  H50      1.0000 0.05070  0.58360  0.53210  Biso   1.000  H
  H51      1.0000 0.05310  0.38010  0.42080  Biso   1.000  H
  H52      1.0000 0.94690  0.61990  0.57920  Biso   1.000  H
  N21      1.0000 0.59110  0.57930  0.98660  Biso   1.000  N
  N22      1.0000 0.40890  0.42070  0.01340  Biso   1.000  N
  H53      1.0000 0.52300  0.57970  0.96880  Biso   1.000  H
  H54      1.0000 0.47700  0.42030  0.03120  Biso   1.000  H
  C71      1.0000 0.49010  0.28390  0.30280  Biso   1.000  C
  C72      1.0000 0.50990  0.71610  0.69720  Biso   1.000  C
  H55      1.0000 0.50290  0.26640  0.26280  Biso   1.000  H
  H56      1.0000 0.49710  0.73360  0.73720  Biso   1.000  H
  C73      1.0000 0.46510  0.52680  0.15430  Biso   1.000  C
  C74      1.0000 0.53490  0.47320  0.84570  Biso   1.000  C
  C75      1.0000 0.28150  0.54080  0.23550  Biso   1.000  C
  C76      1.0000 0.71850  0.45920  0.76450  Biso   1.000  C
  H57      1.0000 0.22890  0.53920  0.20280  Biso   1.000  H
  H58      1.0000 0.77110  0.46080  0.79720  Biso   1.000  H
  C77      1.0000 0.84550  0.69870  0.98910  Biso   1.000  C
  C78      1.0000 0.15450  0.30130  0.01090  Biso   1.000  C
  H59      1.0000 0.92180  0.68830  0.01190  Biso   1.000  H
  H60      1.0000 0.07820  0.31170  0.98810  Biso   1.000  H
  H61      1.0000 0.79050  0.74830  0.99960  Biso   1.000  H
  H62      1.0000 0.20950  0.25170  0.00040  Biso   1.000  H
  H63      1.0000 0.86130  0.70790  0.94250  Biso   1.000  H
  H64      1.0000 0.13870  0.29210  0.05750  Biso   1.000  H
  N23      1.0000 0.81190  0.55640  0.05330  Biso   1.000  N
  N24      1.0000 0.18810  0.44360  0.94670  Biso   1.000  N
  H65      1.0000 0.87410  0.54790  0.07840  Biso   1.000  H
  H66      1.0000 0.12590  0.45210  0.92160  Biso   1.000  H
  C79      1.0000 0.04330  0.13600  0.20350  Biso   1.000  C
  C80      1.0000 0.95670  0.86400  0.79650  Biso   1.000  C
  H67      1.0000 0.03100  0.10230  0.17240  Biso   1.000  H
  H68      1.0000 0.96900  0.89770  0.82760  Biso   1.000  H
  H69      1.0000 0.06380  0.18840  0.17930  Biso   1.000  H
  H70      1.0000 0.93620  0.81160  0.82070  Biso   1.000  H
  C81      1.0000 0.65760  0.64640  0.96150  Biso   1.000  C
  C82      1.0000 0.34240  0.35360  0.03850  Biso   1.000  C
  H71      1.0000 0.60690  0.70160  0.96490  Biso   1.000  H
  H72      1.0000 0.39310  0.29840  0.03510  Biso   1.000  H
  H73      1.0000 0.68100  0.64710  0.91580  Biso   1.000  H
  H74      1.0000 0.31900  0.35290  0.08420  Biso   1.000  H
  C83      1.0000 0.92890  0.15540  0.24400  Biso   1.000  C
  C84      1.0000 0.07110  0.84460  0.75600  Biso   1.000  C
  H75      1.0000 0.92870  0.09990  0.27270  Biso   1.000  H
  H76      1.0000 0.07130  0.90010  0.72730  Biso   1.000  H
  C85      1.0000 0.78690  0.62250  0.00990  Biso   1.000  C
  C86      1.0000 0.21310  0.37750  0.99010  Biso   1.000  C
  H77      1.0000 0.83670  0.59380  0.97750  Biso   1.000  H
  H78      1.0000 0.16330  0.40620  0.02250  Biso   1.000  H
  O25      1.0000 0.86840  0.35120  0.07780  Biso   1.000  O
  O26      1.0000 0.13160  0.64880  0.92220  Biso   1.000  O
  C87      1.0000 0.77140  0.33460  0.05900  Biso   1.000  C
  C88      1.0000 0.22860  0.66540  0.94100  Biso   1.000  C
  C89      1.0000 0.80470  0.17950  0.21680  Biso   1.000  C
  C90      1.0000 0.19530  0.82050  0.78320  Biso   1.000  C
  H79      1.0000 0.74500  0.18270  0.25190  Biso   1.000  H
  H80      1.0000 0.25500  0.81730  0.74810  Biso   1.000  H
  H81      1.0000 0.79330  0.13760  0.19320  Biso   1.000  H
  H82      1.0000 0.20670  0.86240  0.80680  Biso   1.000  H
  H83      1.0000 0.79430  0.23400  0.18740  Biso   1.000  H
  H84      1.0000 0.20570  0.76600  0.81260  Biso   1.000  H
  Cu11     1.0000 0.38174  0.61155  0.47688  Biso   1.000  Cu
  Cu12     1.0000 0.61826  0.38845  0.52312  Biso   1.000  Cu
  H85      1.0000 0.61990  0.53930  0.01930  Biso   1.000  H
  H86      1.0000 0.38010  0.46070  0.98070  Biso   1.000  H
  H87      1.0000 0.76700  0.51920  0.05800  Biso   1.000  H
  H88      1.0000 0.23300  0.48080  0.94200  Biso   1.000  H
  H89      1.0000 0.05530  0.27090  0.61320  Biso   1.000  H
  H90      1.0000 0.94470  0.72910  0.38680  Biso   1.000  H
  H91      1.0000 0.05970  0.15800  0.57800  Biso   1.000  H
  H92      1.0000 0.94030  0.84200  0.42200  Biso   1.000  H
  H93      1.0000 0.02100  0.19730  0.31030  Biso   1.000  H
  H94      1.0000 0.97900  0.80270  0.68970  Biso   1.000  H
  H95      1.0000 0.12820  0.07660  0.29060  Biso   1.000  H
  H96      1.0000 0.87180  0.92340  0.70940  Biso   1.000  H
  O27      1.0000 0.20780  0.89740  0.58670  Biso   1.000  O
  O28      1.0000 0.79220  0.10260  0.41330  Biso   1.000  O
  O29      1.0000 0.69460  0.88590  0.50300  Biso   1.000  O
  O30      1.0000 0.30540  0.11410  0.49700  Biso   1.000  O
  O31      1.0000 0.94100  0.37880  0.19670  Biso   1.000  O
  O32      1.0000 0.05900  0.62120  0.80330  Biso   1.000  O
  O33      1.0000 0.80500  0.61830  0.83300  Biso   1.000  O
  O34      1.0000 0.19500  0.38170  0.16700  Biso   1.000  O
