data_image0
_cell_length_a       8.2701
_cell_length_b       14.8223
_cell_length_c       26.6956
_cell_angle_alpha    90
_cell_angle_beta     95.453
_cell_angle_gamma    90

_symmetry_space_group_name_H-M    "P 1"
_symmetry_int_tables_number       1

loop_
  _symmetry_equiv_pos_as_xyz
  'x, y, z'

loop_
  _atom_site_label
  _atom_site_occupancy
  _atom_site_fract_x
  _atom_site_fract_y
  _atom_site_fract_z
  _atom_site_thermal_displace_type
  _atom_site_B_iso_or_equiv
  _atom_site_type_symbol
  U1       1.0000 0.40811  0.27250  0.94036  Biso   1.000  U
  U2       1.0000 0.40811  0.72750  0.44036  Biso   1.000  U
  U3       1.0000 0.14249  0.20029  0.25634  Biso   1.000  U
  U4       1.0000 0.14249  0.79971  0.75634  Biso   1.000  U
  O1       1.0000 0.47950  0.17770  0.90870  Biso   1.000  O
  O2       1.0000 0.47950  0.82230  0.40870  Biso   1.000  O
  O3       1.0000 0.33350  0.36610  0.97120  Biso   1.000  O
  O4       1.0000 0.33350  0.63390  0.47120  Biso   1.000  O
  O5       1.0000 0.04330  0.19130  0.19450  Biso   1.000  O
  O6       1.0000 0.04330  0.80870  0.69450  Biso   1.000  O
  O7       1.0000 0.24470  0.20890  0.31780  Biso   1.000  O
  O8       1.0000 0.24470  0.79110  0.81780  Biso   1.000  O
  O9       1.0000 0.62830  0.25280  0.00550  Biso   1.000  O
  O10      1.0000 0.62830  0.74720  0.50550  Biso   1.000  O
  O11      1.0000 0.39890  0.19030  0.02140  Biso   1.000  O
  O12      1.0000 0.39890  0.80970  0.52140  Biso   1.000  O
  O13      1.0000 0.36890  0.27500  0.21810  Biso   1.000  O
  O14      1.0000 0.36890  0.72500  0.71810  Biso   1.000  O
  O15      1.0000 0.39020  0.12870  0.23140  Biso   1.000  O
  O16      1.0000 0.39020  0.87130  0.73140  Biso   1.000  O
  O17      1.0000 0.14690  0.19020  0.94210  Biso   1.000  O
  O18      1.0000 0.14690  0.80980  0.44210  Biso   1.000  O
  O19      1.0000 0.17210  0.27910  0.87740  Biso   1.000  O
  O20      1.0000 0.17210  0.72090  0.37740  Biso   1.000  O
  O21      1.0000 0.12520  0.96610  0.76830  Biso   1.000  O
  O22      1.0000 0.12520  0.03390  0.26830  Biso   1.000  O
  O23      1.0000 0.92350  0.88550  0.79050  Biso   1.000  O
  O24      1.0000 0.92350  0.11450  0.29050  Biso   1.000  O
  O25      1.0000 0.45400  0.36850  0.86630  Biso   1.000  O
  O26      1.0000 0.45400  0.63150  0.36630  Biso   1.000  O
  O27      1.0000 0.65440  0.35950  0.92540  Biso   1.000  O
  O28      1.0000 0.65440  0.64050  0.42540  Biso   1.000  O
  O29      1.0000 0.92100  0.70880  0.78210  Biso   1.000  O
  O30      1.0000 0.92100  0.29120  0.28210  Biso   1.000  O
  O31      1.0000 0.12110  0.63080  0.75650  Biso   1.000  O
  O32      1.0000 0.12110  0.36920  0.25650  Biso   1.000  O
  C1       1.0000 0.61460  0.20460  0.08990  Biso   1.000  C
  C2       1.0000 0.61460  0.79540  0.58990  Biso   1.000  C
  H1       1.0000 0.73540  0.20120  0.08990  Biso   1.000  H
  H2       1.0000 0.73540  0.79880  0.58990  Biso   1.000  H
  C3       1.0000 0.56080  0.12130  0.11660  Biso   1.000  C
  C4       1.0000 0.56080  0.87870  0.61660  Biso   1.000  C
  H3       1.0000 0.58590  0.06660  0.09750  Biso   1.000  H
  H4       1.0000 0.58590  0.93340  0.59750  Biso   1.000  H
  H5       1.0000 0.44210  0.12340  0.11890  Biso   1.000  H
  H6       1.0000 0.44210  0.87660  0.61890  Biso   1.000  H
  C5       1.0000 0.65110  0.11820  0.16970  Biso   1.000  C
  C6       1.0000 0.65110  0.88180  0.66970  Biso   1.000  C
  H7       1.0000 0.61510  0.06460  0.18780  Biso   1.000  H
  H8       1.0000 0.61510  0.93540  0.68780  Biso   1.000  H
  H9       1.0000 0.76920  0.11220  0.16700  Biso   1.000  H
  H10      1.0000 0.76920  0.88780  0.66700  Biso   1.000  H
  C7       1.0000 0.61980  0.20270  0.19960  Biso   1.000  C
  C8       1.0000 0.61980  0.79730  0.69960  Biso   1.000  C
  H11      1.0000 0.69680  0.20070  0.23090  Biso   1.000  H
  H12      1.0000 0.69680  0.79930  0.73090  Biso   1.000  H
  C9       1.0000 0.65810  0.28830  0.17180  Biso   1.000  C
  C10      1.0000 0.65810  0.71170  0.67180  Biso   1.000  C
  H13      1.0000 0.77710  0.29300  0.17080  Biso   1.000  H
  H14      1.0000 0.77710  0.70700  0.67080  Biso   1.000  H
  H15      1.0000 0.62190  0.34110  0.19050  Biso   1.000  H
  H16      1.0000 0.62190  0.65890  0.69050  Biso   1.000  H
  C11      1.0000 0.57610  0.29070  0.11800  Biso   1.000  C
  C12      1.0000 0.57610  0.70930  0.61800  Biso   1.000  C
  H17      1.0000 0.61500  0.34390  0.10020  Biso   1.000  H
  H18      1.0000 0.61500  0.65610  0.60020  Biso   1.000  H
  H19      1.0000 0.45710  0.29640  0.11880  Biso   1.000  H
  H20      1.0000 0.45710  0.70360  0.61880  Biso   1.000  H
  C13      1.0000 0.54430  0.21420  0.03550  Biso   1.000  C
  C14      1.0000 0.54430  0.78580  0.53550  Biso   1.000  C
  C15      1.0000 0.44800  0.20270  0.21670  Biso   1.000  C
  C16      1.0000 0.44800  0.79730  0.71670  Biso   1.000  C
  C17      1.0000 0.91610  0.20150  0.87880  Biso   1.000  C
  C18      1.0000 0.91610  0.79850  0.37880  Biso   1.000  C
  H21      1.0000 0.84160  0.24690  0.89210  Biso   1.000  H
  H22      1.0000 0.84160  0.75310  0.39210  Biso   1.000  H
  C19      1.0000 0.86220  0.10770  0.89540  Biso   1.000  C
  C20      1.0000 0.86220  0.89230  0.39540  Biso   1.000  C
  H23      1.0000 0.88620  0.10210  0.93240  Biso   1.000  H
  H24      1.0000 0.88620  0.89790  0.43240  Biso   1.000  H
  H25      1.0000 0.74330  0.10180  0.88750  Biso   1.000  H
  H26      1.0000 0.74330  0.89820  0.38750  Biso   1.000  H
  C21      1.0000 0.94540  0.03230  0.87020  Biso   1.000  C
  C22      1.0000 0.94540  0.96770  0.37020  Biso   1.000  C
  H27      1.0000 0.90100  0.97370  0.88010  Biso   1.000  H
  H28      1.0000 0.90100  0.02630  0.38010  Biso   1.000  H
  H29      1.0000 0.06310  0.03320  0.88130  Biso   1.000  H
  H30      1.0000 0.06310  0.96680  0.38130  Biso   1.000  H
  C23      1.0000 0.91990  0.04250  0.81190  Biso   1.000  C
  C24      1.0000 0.91990  0.95750  0.31190  Biso   1.000  C
  H31      1.0000 0.80030  0.04150  0.80180  Biso   1.000  H
  H32      1.0000 0.80030  0.95850  0.30180  Biso   1.000  H
  C25      1.0000 0.98480  0.13260  0.79620  Biso   1.000  C
  C26      1.0000 0.98480  0.86740  0.29620  Biso   1.000  C
  H33      1.0000 0.96670  0.13880  0.75920  Biso   1.000  H
  H34      1.0000 0.96670  0.86120  0.25920  Biso   1.000  H
  H35      1.0000 0.10320  0.13550  0.80600  Biso   1.000  H
  H36      1.0000 0.10320  0.86450  0.30600  Biso   1.000  H
  C27      1.0000 0.90020  0.21030  0.82120  Biso   1.000  C
  C28      1.0000 0.90020  0.78970  0.32120  Biso   1.000  C
  H37      1.0000 0.78380  0.21110  0.80850  Biso   1.000  H
  H38      1.0000 0.78380  0.78890  0.30850  Biso   1.000  H
  H39      1.0000 0.94870  0.26830  0.81180  Biso   1.000  H
  H40      1.0000 0.94870  0.73170  0.31180  Biso   1.000  H
  C29      1.0000 0.08920  0.22450  0.90060  Biso   1.000  C
  C30      1.0000 0.08920  0.77550  0.40060  Biso   1.000  C
  C31      1.0000 0.99440  0.96050  0.78870  Biso   1.000  C
  C32      1.0000 0.99440  0.03950  0.28870  Biso   1.000  C
  C33      1.0000 0.69130  0.46030  0.85820  Biso   1.000  C
  C34      1.0000 0.69130  0.53970  0.35820  Biso   1.000  C
  H41      1.0000 0.64440  0.51920  0.86810  Biso   1.000  H
  H42      1.0000 0.64440  0.48080  0.36810  Biso   1.000  H
  C35      1.0000 0.86570  0.46830  0.87590  Biso   1.000  C
  C36      1.0000 0.86570  0.53170  0.37590  Biso   1.000  C
  H43      1.0000 0.92220  0.41210  0.86760  Biso   1.000  H
  H44      1.0000 0.92220  0.58790  0.36760  Biso   1.000  H
  H45      1.0000 0.87770  0.47540  0.91290  Biso   1.000  H
  H46      1.0000 0.87770  0.52460  0.41290  Biso   1.000  H
  C37      1.0000 0.94450  0.54790  0.85200  Biso   1.000  C
  C38      1.0000 0.94450  0.45210  0.35200  Biso   1.000  C
  H47      1.0000 0.06330  0.54560  0.86110  Biso   1.000  H
  H48      1.0000 0.06330  0.45440  0.36110  Biso   1.000  H
  H49      1.0000 0.90340  0.60450  0.86590  Biso   1.000  H
  H50      1.0000 0.90340  0.39550  0.36590  Biso   1.000  H
  C39      1.0000 0.91160  0.54950  0.79500  Biso   1.000  C
  C40      1.0000 0.91160  0.45050  0.29500  Biso   1.000  C
  H51      1.0000 0.96550  0.49590  0.78110  Biso   1.000  H
  H52      1.0000 0.96550  0.50410  0.28110  Biso   1.000  H
  C41      1.0000 0.72900  0.54340  0.77930  Biso   1.000  C
  C42      1.0000 0.72900  0.45660  0.27930  Biso   1.000  C
  H53      1.0000 0.67370  0.59780  0.79080  Biso   1.000  H
  H54      1.0000 0.67370  0.40220  0.29080  Biso   1.000  H
  H55      1.0000 0.70930  0.54010  0.74220  Biso   1.000  H
  H56      1.0000 0.70930  0.45990  0.24220  Biso   1.000  H
  C43      1.0000 0.66300  0.46000  0.80270  Biso   1.000  C
  C44      1.0000 0.66300  0.54000  0.30270  Biso   1.000  C
  H57      1.0000 0.54430  0.45600  0.79280  Biso   1.000  H
  H58      1.0000 0.54430  0.54400  0.29280  Biso   1.000  H
  H59      1.0000 0.71430  0.40590  0.78940  Biso   1.000  H
  H60      1.0000 0.71430  0.59410  0.28940  Biso   1.000  H
  C45      1.0000 0.59480  0.39050  0.88450  Biso   1.000  C
  C46      1.0000 0.59480  0.60950  0.38450  Biso   1.000  C
  C47      1.0000 0.98760  0.63340  0.77580  Biso   1.000  C
  C48      1.0000 0.98760  0.36660  0.27580  Biso   1.000  C
  Cu1      1.0000 0.38260  0.17962  0.59916  Biso   1.000  Cu
  Cu2      1.0000 0.38260  0.82038  0.09916  Biso   1.000  Cu
  N1       1.0000 0.41820  0.17130  0.67540  Biso   1.000  N
  N2       1.0000 0.41820  0.82870  0.17540  Biso   1.000  N
  N3       1.0000 0.38820  0.31330  0.61460  Biso   1.000  N
  N4       1.0000 0.38820  0.68670  0.11460  Biso   1.000  N
  N5       1.0000 0.46530  0.11270  0.54180  Biso   1.000  N
  N6       1.0000 0.46530  0.88730  0.04180  Biso   1.000  N
  N7       1.0000 0.18510  0.09710  0.58110  Biso   1.000  N
  N8       1.0000 0.18510  0.90290  0.08110  Biso   1.000  N
  C49      1.0000 0.41940  0.09650  0.70340  Biso   1.000  C
  C50      1.0000 0.41940  0.90350  0.20340  Biso   1.000  C
  H61      1.0000 0.41630  0.03970  0.68680  Biso   1.000  H
  H62      1.0000 0.41630  0.96030  0.18680  Biso   1.000  H
  C51      1.0000 0.42490  0.09790  0.75560  Biso   1.000  C
  C52      1.0000 0.42490  0.90210  0.25560  Biso   1.000  C
  H63      1.0000 0.42920  0.04370  0.77470  Biso   1.000  H
  H64      1.0000 0.42920  0.95630  0.27470  Biso   1.000  H
  C53      1.0000 0.42380  0.18120  0.77870  Biso   1.000  C
  C54      1.0000 0.42380  0.81880  0.27870  Biso   1.000  C
  H65      1.0000 0.42820  0.18520  0.81430  Biso   1.000  H
  H66      1.0000 0.42820  0.81480  0.31430  Biso   1.000  H
  C55      1.0000 0.41630  0.25860  0.75000  Biso   1.000  C
  C56      1.0000 0.41630  0.74140  0.25000  Biso   1.000  C
  H67      1.0000 0.41200  0.31610  0.76560  Biso   1.000  H
  H68      1.0000 0.41200  0.68390  0.26560  Biso   1.000  H
  C57      1.0000 0.41500  0.25170  0.69830  Biso   1.000  C
  C58      1.0000 0.41500  0.74830  0.19830  Biso   1.000  C
  C59      1.0000 0.40730  0.33020  0.66410  Biso   1.000  C
  C60      1.0000 0.40730  0.66980  0.16410  Biso   1.000  C
  C61      1.0000 0.41580  0.42070  0.68230  Biso   1.000  C
  C62      1.0000 0.41580  0.57930  0.18230  Biso   1.000  C
  H69      1.0000 0.42930  0.43250  0.71740  Biso   1.000  H
  H70      1.0000 0.42930  0.56750  0.21740  Biso   1.000  H
  C63      1.0000 0.40400  0.49160  0.64780  Biso   1.000  C
  C64      1.0000 0.40400  0.50840  0.14780  Biso   1.000  C
  H71      1.0000 0.40520  0.55250  0.65890  Biso   1.000  H
  H72      1.0000 0.40520  0.44750  0.15890  Biso   1.000  H
  C65      1.0000 0.39070  0.47150  0.59760  Biso   1.000  C
  C66      1.0000 0.39070  0.52850  0.09760  Biso   1.000  C
  H73      1.0000 0.38640  0.51850  0.57340  Biso   1.000  H
  H74      1.0000 0.38640  0.48150  0.07340  Biso   1.000  H
  C67      1.0000 0.38370  0.38430  0.58260  Biso   1.000  C
  C68      1.0000 0.38370  0.61570  0.08260  Biso   1.000  C
  H75      1.0000 0.37520  0.37220  0.54750  Biso   1.000  H
  H76      1.0000 0.37520  0.62780  0.04750  Biso   1.000  H
  C69      1.0000 0.60120  0.12840  0.51880  Biso   1.000  C
  C70      1.0000 0.60120  0.87160  0.01880  Biso   1.000  C
  H77      1.0000 0.67650  0.17190  0.53310  Biso   1.000  H
  H78      1.0000 0.67650  0.82810  0.03310  Biso   1.000  H
  C71      1.0000 0.63540  0.08480  0.47600  Biso   1.000  C
  C72      1.0000 0.63540  0.91520  0.97600  Biso   1.000  C
  H79      1.0000 0.73510  0.09640  0.46230  Biso   1.000  H
  H80      1.0000 0.73510  0.90360  0.96230  Biso   1.000  H
  C73      1.0000 0.52800  0.02470  0.45290  Biso   1.000  C
  C74      1.0000 0.52800  0.97530  0.95290  Biso   1.000  C
  H81      1.0000 0.54840  0.99610  0.42230  Biso   1.000  H
  H82      1.0000 0.54840  0.00390  0.92230  Biso   1.000  H
  C75      1.0000 0.38600  0.00670  0.47610  Biso   1.000  C
  C76      1.0000 0.38600  0.99330  0.97610  Biso   1.000  C
  H83      1.0000 0.30890  0.96430  0.46170  Biso   1.000  H
  H84      1.0000 0.30890  0.03570  0.96170  Biso   1.000  H
  C77      1.0000 0.35940  0.05130  0.52010  Biso   1.000  C
  C78      1.0000 0.35940  0.94870  0.02010  Biso   1.000  C
  C79      1.0000 0.21010  0.03570  0.54600  Biso   1.000  C
  C80      1.0000 0.21010  0.96430  0.04600  Biso   1.000  C
  C81      1.0000 0.10590  0.96430  0.53450  Biso   1.000  C
  C82      1.0000 0.10590  0.03570  0.03450  Biso   1.000  C
  H85      1.0000 0.12800  0.92130  0.50960  Biso   1.000  H
  H86      1.0000 0.12800  0.07870  0.00960  Biso   1.000  H
  C83      1.0000 0.96940  0.95690  0.55990  Biso   1.000  C
  C84      1.0000 0.96940  0.04310  0.05990  Biso   1.000  C
  H87      1.0000 0.89470  0.90890  0.55280  Biso   1.000  H
  H88      1.0000 0.89470  0.09110  0.05280  Biso   1.000  H
  C85      1.0000 0.94360  0.01950  0.59510  Biso   1.000  C
  C86      1.0000 0.94360  0.98050  0.09510  Biso   1.000  C
  H89      1.0000 0.84890  0.01610  0.61250  Biso   1.000  H
  H90      1.0000 0.84890  0.98390  0.11250  Biso   1.000  H
  C87      1.0000 0.05310  0.08810  0.60580  Biso   1.000  C
  C88      1.0000 0.05310  0.91190  0.10580  Biso   1.000  C
  H91      1.0000 0.03450  0.13020  0.63150  Biso   1.000  H
  H92      1.0000 0.03450  0.86980  0.13150  Biso   1.000  H
  Cu3      1.0000 0.81158  0.41730  0.52870  Biso   1.000  Cu
  Cu4      1.0000 0.81158  0.58270  0.02870  Biso   1.000  Cu
  N9       1.0000 0.83840  0.39360  0.60390  Biso   1.000  N
  N10      1.0000 0.83840  0.60640  0.10390  Biso   1.000  N
  N11      1.0000 0.92440  0.53320  0.55080  Biso   1.000  N
  N12      1.0000 0.92440  0.46680  0.05080  Biso   1.000  N
  N13      1.0000 0.91210  0.31230  0.49000  Biso   1.000  N
  N14      1.0000 0.91210  0.68770  0.99000  Biso   1.000  N
  N15      1.0000 0.63520  0.40060  0.47310  Biso   1.000  N
  N16      1.0000 0.63520  0.59940  0.97310  Biso   1.000  N
  C89      1.0000 0.80210  0.31770  0.62880  Biso   1.000  C
  C90      1.0000 0.80210  0.68230  0.12880  Biso   1.000  C
  H93      1.0000 0.73070  0.27540  0.61160  Biso   1.000  H
  H94      1.0000 0.73070  0.72460  0.11160  Biso   1.000  H
  C91      1.0000 0.86110  0.29820  0.67700  Biso   1.000  C
  C92      1.0000 0.86110  0.70180  0.17700  Biso   1.000  C
  H95      1.0000 0.83330  0.24340  0.69250  Biso   1.000  H
  H96      1.0000 0.83330  0.75660  0.19250  Biso   1.000  H
  C93      1.0000 0.96280  0.36040  0.70250  Biso   1.000  C
  C94      1.0000 0.96280  0.63960  0.20250  Biso   1.000  C
  H97      1.0000 0.00670  0.34890  0.73610  Biso   1.000  H
  H98      1.0000 0.00670  0.65110  0.23610  Biso   1.000  H
  C95      1.0000 0.99940  0.43860  0.67890  Biso   1.000  C
  C96      1.0000 0.99940  0.56140  0.17890  Biso   1.000  C
  H99      1.0000 0.06900  0.48180  0.69610  Biso   1.000  H
  H100     1.0000 0.06900  0.51820  0.19610  Biso   1.000  H
  C97      1.0000 0.93470  0.45490  0.62960  Biso   1.000  C
  C98      1.0000 0.93470  0.54510  0.12960  Biso   1.000  C
  C99      1.0000 0.96960  0.53680  0.60080  Biso   1.000  C
  C100     1.0000 0.96960  0.46320  0.10080  Biso   1.000  C
  C101     1.0000 0.04580  0.61360  0.62340  Biso   1.000  C
  C102     1.0000 0.04580  0.38640  0.12340  Biso   1.000  C
  H101     1.0000 0.07760  0.61500  0.65850  Biso   1.000  H
  H102     1.0000 0.07760  0.38500  0.15850  Biso   1.000  H
  C103     1.0000 0.07320  0.68670  0.59340  Biso   1.000  C
  C104     1.0000 0.07320  0.31330  0.09340  Biso   1.000  C
  H103     1.0000 0.12380  0.73940  0.60770  Biso   1.000  H
  H104     1.0000 0.12380  0.26060  0.10770  Biso   1.000  H
  C105     1.0000 0.02670  0.68260  0.54280  Biso   1.000  C
  C106     1.0000 0.02670  0.31740  0.04280  Biso   1.000  C
  H105     1.0000 0.04500  0.73250  0.52170  Biso   1.000  H
  H106     1.0000 0.04500  0.26750  0.02170  Biso   1.000  H
  C107     1.0000 0.95430  0.60640  0.52300  Biso   1.000  C
  C108     1.0000 0.95430  0.39360  0.02300  Biso   1.000  C
  H107     1.0000 0.92320  0.60460  0.48780  Biso   1.000  H
  H108     1.0000 0.92320  0.39540  0.98780  Biso   1.000  H
  C109     1.0000 0.06270  0.27800  0.49800  Biso   1.000  C
  C110     1.0000 0.06270  0.72200  0.99800  Biso   1.000  C
  H109     1.0000 0.12520  0.29150  0.52880  Biso   1.000  H
  H110     1.0000 0.12520  0.70850  0.02880  Biso   1.000  H
  C111     1.0000 0.13030  0.22460  0.46370  Biso   1.000  C
  C112     1.0000 0.13030  0.77540  0.96370  Biso   1.000  C
  H111     1.0000 0.23850  0.20320  0.47030  Biso   1.000  H
  H112     1.0000 0.23850  0.79680  0.97030  Biso   1.000  H
  C113     1.0000 0.03970  0.20240  0.41980  Biso   1.000  C
  C114     1.0000 0.03970  0.79760  0.91980  Biso   1.000  C
  H113     1.0000 0.08380  0.16510  0.39550  Biso   1.000  H
  H114     1.0000 0.08380  0.83490  0.89550  Biso   1.000  H
  C115     1.0000 0.88180  0.23560  0.41120  Biso   1.000  C
  C116     1.0000 0.88180  0.76440  0.91120  Biso   1.000  C
  H115     1.0000 0.81610  0.22090  0.38120  Biso   1.000  H
  H116     1.0000 0.81610  0.77910  0.88120  Biso   1.000  H
  C117     1.0000 0.82210  0.29060  0.44720  Biso   1.000  C
  C118     1.0000 0.82210  0.70940  0.94720  Biso   1.000  C
  C119     1.0000 0.65770  0.33280  0.44050  Biso   1.000  C
  C120     1.0000 0.65770  0.66720  0.94050  Biso   1.000  C
  C121     1.0000 0.53820  0.30650  0.40330  Biso   1.000  C
  C122     1.0000 0.53820  0.69350  0.90330  Biso   1.000  C
  H117     1.0000 0.55620  0.25810  0.38120  Biso   1.000  H
  H118     1.0000 0.55620  0.74190  0.88120  Biso   1.000  H
  C123     1.0000 0.39240  0.35280  0.39920  Biso   1.000  C
  C124     1.0000 0.39240  0.64720  0.89920  Biso   1.000  C
  H119     1.0000 0.30630  0.33400  0.37530  Biso   1.000  H
  H120     1.0000 0.30630  0.66600  0.87530  Biso   1.000  H
  C125     1.0000 0.37170  0.42690  0.43000  Biso   1.000  C
  C126     1.0000 0.37170  0.57310  0.93000  Biso   1.000  C
  H121     1.0000 0.27640  0.46300  0.42570  Biso   1.000  H
  H122     1.0000 0.27640  0.53700  0.92570  Biso   1.000  H
  C127     1.0000 0.49470  0.44600  0.46690  Biso   1.000  C
  C128     1.0000 0.49470  0.55400  0.96690  Biso   1.000  C
  H123     1.0000 0.47890  0.49420  0.48940  Biso   1.000  H
  H124     1.0000 0.47890  0.50580  0.98940  Biso   1.000  H
  O33      1.0000 0.61560  0.11560  0.33340  Biso   1.000  O
  O34      1.0000 0.61560  0.88440  0.83340  Biso   1.000  O
  H125     1.0000 0.51270  0.12270  0.31190  Biso   1.000  H
  H126     1.0000 0.51270  0.87730  0.81190  Biso   1.000  H
  H127     1.0000 0.68160  0.11200  0.30630  Biso   1.000  H
  H128     1.0000 0.68160  0.88800  0.80630  Biso   1.000  H
  O35      1.0000 0.24950  0.45080  0.78640  Biso   1.000  O
  O36      1.0000 0.24950  0.54920  0.28640  Biso   1.000  O
