data_image0
_cell_length_a       12.497
_cell_length_b       8.055
_cell_length_c       13.828
_cell_angle_alpha    90
_cell_angle_beta     106.86
_cell_angle_gamma    90

_symmetry_space_group_name_H-M    "P 1"
_symmetry_int_tables_number       1

loop_
  _symmetry_equiv_pos_as_xyz
  'x, y, z'

loop_
  _atom_site_label
  _atom_site_occupancy
  _atom_site_fract_x
  _atom_site_fract_y
  _atom_site_fract_z
  _atom_site_thermal_displace_type
  _atom_site_B_iso_or_equiv
  _atom_site_type_symbol
  C1       1.0000 0.09240  0.03690  0.77260  Biso   1.000  C
  C2       1.0000 0.40760  0.53690  0.72740  Biso   1.000  C
  C3       1.0000 0.90760  0.96310  0.22740  Biso   1.000  C
  C4       1.0000 0.59240  0.46310  0.27260  Biso   1.000  C
  H1       1.0000 0.14910  0.05140  0.83490  Biso   1.000  H
  H2       1.0000 0.35090  0.55140  0.66510  Biso   1.000  H
  H3       1.0000 0.85090  0.94860  0.16510  Biso   1.000  H
  H4       1.0000 0.64910  0.44860  0.33490  Biso   1.000  H
  H5       1.0000 0.09930  0.08900  0.71310  Biso   1.000  H
  H6       1.0000 0.40070  0.58900  0.78690  Biso   1.000  H
  H7       1.0000 0.90070  0.91100  0.28690  Biso   1.000  H
  H8       1.0000 0.59930  0.41100  0.21310  Biso   1.000  H
  C5       1.0000 0.00140  0.94170  0.76870  Biso   1.000  C
  C6       1.0000 0.49860  0.44170  0.73130  Biso   1.000  C
  C7       1.0000 0.99860  0.05830  0.23130  Biso   1.000  C
  C8       1.0000 0.50140  0.55830  0.26870  Biso   1.000  C
  H9       1.0000 0.94560  0.92870  0.70580  Biso   1.000  H
  H10      1.0000 0.55440  0.42870  0.79420  Biso   1.000  H
  H11      1.0000 0.05440  0.07130  0.29420  Biso   1.000  H
  H12      1.0000 0.44560  0.57130  0.20580  Biso   1.000  H
  C9       1.0000 0.98580  0.85650  0.85980  Biso   1.000  C
  C10      1.0000 0.51420  0.35650  0.64020  Biso   1.000  C
  C11      1.0000 0.01420  0.14350  0.14020  Biso   1.000  C
  C12      1.0000 0.48580  0.64350  0.35980  Biso   1.000  C
  H13      1.0000 0.01960  0.74440  0.86560  Biso   1.000  H
  H14      1.0000 0.48040  0.24440  0.63440  Biso   1.000  H
  H15      1.0000 0.98040  0.25560  0.13440  Biso   1.000  H
  H16      1.0000 0.51960  0.75560  0.36560  Biso   1.000  H
  H17      1.0000 0.02500  0.92010  0.92110  Biso   1.000  H
  H18      1.0000 0.47500  0.42010  0.57890  Biso   1.000  H
  H19      1.0000 0.97500  0.07990  0.07890  Biso   1.000  H
  H20      1.0000 0.52500  0.57990  0.42110  Biso   1.000  H
  C13      1.0000 0.70850  0.90300  0.85630  Biso   1.000  C
  C14      1.0000 0.79150  0.40300  0.64370  Biso   1.000  C
  C15      1.0000 0.29150  0.09700  0.14370  Biso   1.000  C
  C16      1.0000 0.20850  0.59700  0.35630  Biso   1.000  C
  C17      1.0000 0.60730  0.97880  0.86940  Biso   1.000  C
  C18      1.0000 0.89270  0.47880  0.63060  Biso   1.000  C
  C19      1.0000 0.39270  0.02120  0.13060  Biso   1.000  C
  C20      1.0000 0.10730  0.52120  0.36940  Biso   1.000  C
  C21      1.0000 0.60950  0.11830  0.92840  Biso   1.000  C
  C22      1.0000 0.89050  0.61830  0.57160  Biso   1.000  C
  C23      1.0000 0.39050  0.88170  0.07160  Biso   1.000  C
  C24      1.0000 0.10950  0.38170  0.42840  Biso   1.000  C
  H21      1.0000 0.67830  0.16760  0.96530  Biso   1.000  H
  H22      1.0000 0.82170  0.66760  0.53470  Biso   1.000  H
  H23      1.0000 0.32170  0.83240  0.03470  Biso   1.000  H
  H24      1.0000 0.17830  0.33240  0.46530  Biso   1.000  H
  C25      1.0000 0.50760  0.18410  0.93180  Biso   1.000  C
  C26      1.0000 0.99240  0.68410  0.56820  Biso   1.000  C
  C27      1.0000 0.49240  0.81590  0.06820  Biso   1.000  C
  C28      1.0000 0.00760  0.31590  0.43180  Biso   1.000  C
  H25      1.0000 0.50540  0.27900  0.97200  Biso   1.000  H
  H26      1.0000 0.99460  0.77900  0.52800  Biso   1.000  H
  H27      1.0000 0.49460  0.72100  0.02800  Biso   1.000  H
  H28      1.0000 0.00540  0.22100  0.47200  Biso   1.000  H
  C29      1.0000 0.41020  0.10920  0.87580  Biso   1.000  C
  C30      1.0000 0.08980  0.60920  0.62420  Biso   1.000  C
  C31      1.0000 0.58980  0.89080  0.12420  Biso   1.000  C
  C32      1.0000 0.91020  0.39080  0.37580  Biso   1.000  C
  H29      1.0000 0.33970  0.15300  0.87630  Biso   1.000  H
  H30      1.0000 0.16030  0.65300  0.62370  Biso   1.000  H
  H31      1.0000 0.66030  0.84700  0.12370  Biso   1.000  H
  H32      1.0000 0.83970  0.34700  0.37630  Biso   1.000  H
  C33      1.0000 0.41580  0.97160  0.81980  Biso   1.000  C
  C34      1.0000 0.08420  0.47160  0.68020  Biso   1.000  C
  C35      1.0000 0.58420  0.02840  0.18020  Biso   1.000  C
  C36      1.0000 0.91580  0.52840  0.31980  Biso   1.000  C
  H33      1.0000 0.34780  0.92060  0.78230  Biso   1.000  H
  H34      1.0000 0.15220  0.42060  0.71770  Biso   1.000  H
  H35      1.0000 0.65220  0.07940  0.21770  Biso   1.000  H
  H36      1.0000 0.84780  0.57940  0.28230  Biso   1.000  H
  Cu1      1.0000 0.53954  0.69001  0.74531  Biso   1.000  Cu
  Cu2      1.0000 0.96046  0.19001  0.75469  Biso   1.000  Cu
  Cu3      1.0000 0.46046  0.30999  0.25469  Biso   1.000  Cu
  Cu4      1.0000 0.03954  0.80999  0.24531  Biso   1.000  Cu
  N1       1.0000 0.81260  0.95480  0.89150  Biso   1.000  N
  N2       1.0000 0.68740  0.45480  0.60850  Biso   1.000  N
  N3       1.0000 0.18740  0.04520  0.10850  Biso   1.000  N
  N4       1.0000 0.31260  0.54520  0.39150  Biso   1.000  N
  N5       1.0000 0.86670  0.84190  0.85370  Biso   1.000  N
  N6       1.0000 0.63330  0.34190  0.64630  Biso   1.000  N
  N7       1.0000 0.13330  0.15810  0.14630  Biso   1.000  N
  N8       1.0000 0.36670  0.65810  0.35370  Biso   1.000  N
  N9       1.0000 0.80330  0.72540  0.79810  Biso   1.000  N
  N10      1.0000 0.69670  0.22540  0.70190  Biso   1.000  N
  N11      1.0000 0.19670  0.27460  0.20190  Biso   1.000  N
  N12      1.0000 0.30330  0.77460  0.29810  Biso   1.000  N
  N13      1.0000 0.70040  0.76380  0.80020  Biso   1.000  N
  N14      1.0000 0.79960  0.26380  0.69980  Biso   1.000  N
  N15      1.0000 0.29960  0.23620  0.19980  Biso   1.000  N
  N16      1.0000 0.20040  0.73620  0.30020  Biso   1.000  N
  N17      1.0000 0.51230  0.90520  0.81509  Biso   1.000  N
  N18      1.0000 0.98770  0.40520  0.68491  Biso   1.000  N
  N19      1.0000 0.48770  0.09480  0.18491  Biso   1.000  N
  N20      1.0000 0.01230  0.59480  0.31509  Biso   1.000  N
  O1       1.0000 0.51710  0.78230  0.58820  Biso   1.000  O
  O2       1.0000 0.98290  0.28230  0.91180  Biso   1.000  O
  O3       1.0000 0.48290  0.21770  0.41180  Biso   1.000  O
  O4       1.0000 0.01710  0.71770  0.08820  Biso   1.000  O
  H37      1.0000 0.46200  0.85250  0.57180  Biso   1.000  H
  H38      1.0000 0.03800  0.35250  0.92820  Biso   1.000  H
  H39      1.0000 0.53800  0.14750  0.42820  Biso   1.000  H
  H40      1.0000 0.96200  0.64750  0.07180  Biso   1.000  H
  H41      1.0000 0.57680  0.83290  0.58360  Biso   1.000  H
  H42      1.0000 0.92320  0.33290  0.91640  Biso   1.000  H
  H43      1.0000 0.42320  0.16710  0.41640  Biso   1.000  H
  H44      1.0000 0.07680  0.66710  0.08360  Biso   1.000  H
  B1       1.0000 0.74850  0.00160  0.46740  Biso   1.000  B
  B2       1.0000 0.75150  0.50160  0.03260  Biso   1.000  B
  B3       1.0000 0.25150  0.99840  0.53260  Biso   1.000  B
  B4       1.0000 0.24850  0.49840  0.96740  Biso   1.000  B
  F1       1.0000 0.69900  0.93500  0.53800  Biso   1.000  F
  F2       1.0000 0.80100  0.43500  0.96200  Biso   1.000  F
  F3       1.0000 0.30100  0.06500  0.46200  Biso   1.000  F
  F4       1.0000 0.19900  0.56500  0.03800  Biso   1.000  F
  F5       1.0000 0.70460  0.14510  0.43240  Biso   1.000  F
  F6       1.0000 0.79540  0.64510  0.06760  Biso   1.000  F
  F7       1.0000 0.29540  0.85490  0.56760  Biso   1.000  F
  F8       1.0000 0.20460  0.35490  0.93240  Biso   1.000  F
  F9       1.0000 0.86100  0.02130  0.52160  Biso   1.000  F
  F10      1.0000 0.63900  0.52130  0.97840  Biso   1.000  F
  F11      1.0000 0.13900  0.97870  0.47840  Biso   1.000  F
  F12      1.0000 0.36100  0.47870  0.02160  Biso   1.000  F
  F13      1.0000 0.74380  0.87940  0.39740  Biso   1.000  F
  F14      1.0000 0.75620  0.37940  0.10260  Biso   1.000  F
  F15      1.0000 0.25620  0.12060  0.60260  Biso   1.000  F
  F16      1.0000 0.24380  0.62060  0.89740  Biso   1.000  F
  F17      1.0000 0.66220  0.97400  0.50700  Biso   1.000  F
  F18      1.0000 0.83780  0.47400  0.99300  Biso   1.000  F
  F19      1.0000 0.33780  0.02600  0.49300  Biso   1.000  F
  F20      1.0000 0.16220  0.52600  0.00700  Biso   1.000  F
  F21      1.0000 0.71670  0.15600  0.41040  Biso   1.000  F
  F22      1.0000 0.78330  0.65600  0.08960  Biso   1.000  F
  F23      1.0000 0.28330  0.84400  0.58960  Biso   1.000  F
  F24      1.0000 0.21670  0.34400  0.91040  Biso   1.000  F
  F25      1.0000 0.84420  0.02800  0.53750  Biso   1.000  F
  F26      1.0000 0.65580  0.52800  0.96250  Biso   1.000  F
  F27      1.0000 0.15580  0.97200  0.46250  Biso   1.000  F
  F28      1.0000 0.34420  0.47200  0.03750  Biso   1.000  F
  F29      1.0000 0.75600  0.89200  0.39740  Biso   1.000  F
  F30      1.0000 0.74400  0.39200  0.10260  Biso   1.000  F
  F31      1.0000 0.24400  0.10800  0.60260  Biso   1.000  F
  F32      1.0000 0.25600  0.60800  0.89740  Biso   1.000  F
