data_image0
_cell_length_a       11.5152
_cell_length_b       11.312
_cell_length_c       12.6953
_cell_angle_alpha    114.171
_cell_angle_beta     91.497
_cell_angle_gamma    68.347

_symmetry_space_group_name_H-M    "P 1"
_symmetry_int_tables_number       1

loop_
  _symmetry_equiv_pos_as_xyz
  'x, y, z'

loop_
  _atom_site_label
  _atom_site_occupancy
  _atom_site_fract_x
  _atom_site_fract_y
  _atom_site_fract_z
  _atom_site_thermal_displace_type
  _atom_site_B_iso_or_equiv
  _atom_site_type_symbol
  Cu1      1.0000 0.11949  0.82860  0.59397  Biso   1.000  Cu
  Cu2      1.0000 0.88051  0.17140  0.40603  Biso   1.000  Cu
  N1       1.0000 0.77149  0.23978  0.10213  Biso   1.000  N
  N2       1.0000 0.22851  0.76022  0.89787  Biso   1.000  N
  C1       1.0000 0.59160  0.53390  0.37760  Biso   1.000  C
  C2       1.0000 0.40840  0.46610  0.62240  Biso   1.000  C
  H1       1.0000 0.65350  0.52390  0.43110  Biso   1.000  H
  H2       1.0000 0.34650  0.47610  0.56890  Biso   1.000  H
  H3       1.0000 0.51030  0.54670  0.41220  Biso   1.000  H
  H4       1.0000 0.48970  0.45330  0.58780  Biso   1.000  H
  H5       1.0000 0.58140  0.61600  0.36370  Biso   1.000  H
  H6       1.0000 0.41860  0.38400  0.63630  Biso   1.000  H
  Cu3      1.0000 0.94181  0.13464  0.00869  Biso   1.000  Cu
  Cu4      1.0000 0.05819  0.86536  0.99131  Biso   1.000  Cu
  N3       1.0000 0.74984  0.35833  0.20196  Biso   1.000  N
  N4       1.0000 0.25016  0.64167  0.79804  Biso   1.000  N
  H7       1.0000 0.80350  0.39970  0.22290  Biso   1.000  H
  H8       1.0000 0.19650  0.60030  0.77710  Biso   1.000  H
  C3       1.0000 0.63630  0.40550  0.26550  Biso   1.000  C
  C4       1.0000 0.36370  0.59450  0.73450  Biso   1.000  C
  Cu5      1.0000 0.18194  0.36024  0.28921  Biso   1.000  Cu
  Cu6      1.0000 0.81806  0.63976  0.71079  Biso   1.000  Cu
  N5       1.0000 0.34428  0.21531  0.30700  Biso   1.000  N
  N6       1.0000 0.65572  0.78469  0.69300  Biso   1.000  N
  C5       1.0000 0.58182  0.31200  0.20220  Biso   1.000  C
  C6       1.0000 0.41818  0.68800  0.79780  Biso   1.000  C
  N7       1.0000 0.12964  0.10101  0.62906  Biso   1.000  N
  N8       1.0000 0.87036  0.89899  0.37094  Biso   1.000  N
  H9       1.0000 0.10780  0.13280  0.70450  Biso   1.000  H
  H10      1.0000 0.89220  0.86720  0.29550  Biso   1.000  H
  C7       1.0000 0.66880  0.21160  0.10160  Biso   1.000  C
  C8       1.0000 0.33120  0.78840  0.89840  Biso   1.000  C
  N9       1.0000 0.15039  0.96688  0.54947  Biso   1.000  N
  N10      1.0000 0.84961  0.03312  0.45053  Biso   1.000  N
  C9       1.0000 0.65990  0.08610  0.00500  Biso   1.000  C
  C10      1.0000 0.34010  0.91390  0.99500  Biso   1.000  C
  H11      1.0000 0.73560  0.03750  0.94640  Biso   1.000  H
  H12      1.0000 0.26440  0.96250  0.05360  Biso   1.000  H
  H13      1.0000 0.58490  0.11600  0.96890  Biso   1.000  H
  H14      1.0000 0.41510  0.88400  0.03110  Biso   1.000  H
  H15      1.0000 0.65330  0.02210  0.03600  Biso   1.000  H
  H16      1.0000 0.34670  0.97790  0.96400  Biso   1.000  H
  N11      1.0000 0.05413  0.94040  0.75692  Biso   1.000  N
  N12      1.0000 0.94587  0.05960  0.24308  Biso   1.000  N
  C11      1.0000 0.45530  0.31680  0.23580  Biso   1.000  C
  C12      1.0000 0.54470  0.68320  0.76420  Biso   1.000  C
  H17      1.0000 0.41200  0.29820  0.16600  Biso   1.000  H
  H18      1.0000 0.58800  0.70180  0.83400  Biso   1.000  H
  H19      1.0000 0.40390  0.41360  0.29450  Biso   1.000  H
  H20      1.0000 0.59610  0.58640  0.70550  Biso   1.000  H
  N13      1.0000 0.02602  0.25937  0.10563  Biso   1.000  N
  N14      1.0000 0.97398  0.74063  0.89437  Biso   1.000  N
  C13      1.0000 0.45813  0.21480  0.28490  Biso   1.000  C
  C14      1.0000 0.54187  0.78520  0.71510  Biso   1.000  C
  N15      1.0000 0.16389  0.53390  0.41813  Biso   1.000  N
  N16      1.0000 0.83611  0.46610  0.58187  Biso   1.000  N
  C15      1.0000 0.56580  0.12710  0.30730  Biso   1.000  C
  C16      1.0000 0.43420  0.87290  0.69270  Biso   1.000  C
  H21      1.0000 0.64590  0.12630  0.28990  Biso   1.000  H
  H22      1.0000 0.35410  0.87370  0.71010  Biso   1.000  H
  C17      1.0000 0.55640  0.04120  0.35460  Biso   1.000  C
  C18      1.0000 0.44360  0.95880  0.64540  Biso   1.000  C
  H23      1.0000 0.62920  0.98290  0.37320  Biso   1.000  H
  H24      1.0000 0.37080  0.01710  0.62680  Biso   1.000  H
  C19      1.0000 0.43850  0.04080  0.37510  Biso   1.000  C
  C20      1.0000 0.56150  0.95920  0.62490  Biso   1.000  C
  H25      1.0000 0.43010  0.98020  0.40590  Biso   1.000  H
  H26      1.0000 0.56990  0.01980  0.59410  Biso   1.000  H
  C21      1.0000 0.33470  0.12870  0.35030  Biso   1.000  C
  C22      1.0000 0.66530  0.87130  0.64970  Biso   1.000  C
  C23      1.0000 0.20220  0.13580  0.36870  Biso   1.000  C
  C24      1.0000 0.79780  0.86420  0.63130  Biso   1.000  C
  H27      1.0000 0.14150  0.23360  0.39010  Biso   1.000  H
  H28      1.0000 0.85850  0.76640  0.60990  Biso   1.000  H
  H29      1.0000 0.18460  0.07460  0.29380  Biso   1.000  H
  H30      1.0000 0.81540  0.92540  0.70620  Biso   1.000  H
  C25      1.0000 0.13200  0.32940  0.65010  Biso   1.000  C
  C26      1.0000 0.86800  0.67060  0.34990  Biso   1.000  C
  H31      1.0000 0.05280  0.38200  0.70460  Biso   1.000  H
  H32      1.0000 0.94720  0.61800  0.29540  Biso   1.000  H
  H33      1.0000 0.13090  0.37290  0.59720  Biso   1.000  H
  H34      1.0000 0.86910  0.62710  0.40280  Biso   1.000  H
  H35      1.0000 0.20320  0.33080  0.69390  Biso   1.000  H
  H36      1.0000 0.79680  0.66920  0.30610  Biso   1.000  H
  C27      1.0000 0.14619  0.17790  0.57970  Biso   1.000  C
  C28      1.0000 0.85381  0.82210  0.42030  Biso   1.000  C
  C29      1.0000 0.17850  0.09240  0.46080  Biso   1.000  C
  C30      1.0000 0.82150  0.90760  0.53920  Biso   1.000  C
  C31      1.0000 0.18092  0.96230  0.44675  Biso   1.000  C
  C32      1.0000 0.81908  0.03770  0.55325  Biso   1.000  C
  C33      1.0000 0.21030  0.83120  0.33640  Biso   1.000  C
  C34      1.0000 0.78970  0.16880  0.66360  Biso   1.000  C
  H37      1.0000 0.30000  0.79210  0.30510  Biso   1.000  H
  H38      1.0000 0.70000  0.20790  0.69490  Biso   1.000  H
  H39      1.0000 0.15880  0.85340  0.27910  Biso   1.000  H
  H40      1.0000 0.84120  0.14660  0.72090  Biso   1.000  H
  H41      1.0000 0.19140  0.76200  0.35240  Biso   1.000  H
  H42      1.0000 0.80860  0.23800  0.64760  Biso   1.000  H
  C35      1.0000 0.01102  0.00700  0.85376  Biso   1.000  C
  C36      1.0000 0.98898  0.99300  0.14624  Biso   1.000  C
  C37      1.0000 0.08652  0.30210  0.17254  Biso   1.000  C
  C38      1.0000 0.91348  0.69790  0.82746  Biso   1.000  C
  C39      1.0000 0.14982  0.64360  0.48843  Biso   1.000  C
  C40      1.0000 0.85018  0.35640  0.51157  Biso   1.000  C
  O1       1.0000 0.11540  0.25450  0.87880  Biso   1.000  O
  O2       1.0000 0.88460  0.74550  0.12120  Biso   1.000  O
  O3       1.0000 0.83830  0.51510  0.03010  Biso   1.000  O
  O4       1.0000 0.16170  0.48490  0.96990  Biso   1.000  O
  C41      1.0000 0.60940  0.62660  0.05730  Biso   1.000  C
  C42      1.0000 0.39060  0.37340  0.94270  Biso   1.000  C
  H43      1.0000 0.57320  0.59230  0.10210  Biso   1.000  H
  H44      1.0000 0.42680  0.40770  0.89790  Biso   1.000  H
  H45      1.0000 0.54610  0.66500  0.01420  Biso   1.000  H
  H46      1.0000 0.45390  0.33500  0.98580  Biso   1.000  H
  H47      1.0000 0.63540  0.70070  0.11080  Biso   1.000  H
  H48      1.0000 0.36460  0.29930  0.88920  Biso   1.000  H
  C43      1.0000 0.73440  0.49420  0.96390  Biso   1.000  C
  C44      1.0000 0.26560  0.50580  0.03610  Biso   1.000  C
  H49      1.0000 0.73170  0.40180  0.94710  Biso   1.000  H
  H50      1.0000 0.26830  0.59820  0.05290  Biso   1.000  H
  H51      1.0000 0.74140  0.50220  0.88970  Biso   1.000  H
  H52      1.0000 0.25860  0.49780  0.11030  Biso   1.000  H
