data_image0
_cell_length_a       11.4964
_cell_length_b       11.3571
_cell_length_c       12.9352
_cell_angle_alpha    115.386
_cell_angle_beta     91.133
_cell_angle_gamma    69.305

_symmetry_space_group_name_H-M    "P 1"
_symmetry_int_tables_number       1

loop_
  _symmetry_equiv_pos_as_xyz
  'x, y, z'

loop_
  _atom_site_label
  _atom_site_occupancy
  _atom_site_fract_x
  _atom_site_fract_y
  _atom_site_fract_z
  _atom_site_thermal_displace_type
  _atom_site_B_iso_or_equiv
  _atom_site_type_symbol
  Cu1      1.0000 0.94121  0.13681  0.00615  Biso   1.000  Cu
  Cu2      1.0000 0.05879  0.86319  0.99385  Biso   1.000  Cu
  Cu3      1.0000 0.12206  0.82972  0.59423  Biso   1.000  Cu
  Cu4      1.0000 0.87794  0.17028  0.40577  Biso   1.000  Cu
  N1       1.0000 0.77134  0.23323  0.10060  Biso   1.000  N
  N2       1.0000 0.22866  0.76677  0.89940  Biso   1.000  N
  N3       1.0000 0.34221  0.21218  0.30773  Biso   1.000  N
  N4       1.0000 0.65779  0.78782  0.69227  Biso   1.000  N
  N5       1.0000 0.13214  0.10228  0.63194  Biso   1.000  N
  N6       1.0000 0.86786  0.89772  0.36806  Biso   1.000  N
  H1       1.0000 0.11190  0.13290  0.70510  Biso   1.000  H
  H2       1.0000 0.88810  0.86710  0.29490  Biso   1.000  H
  N7       1.0000 0.15212  0.96885  0.55187  Biso   1.000  N
  N8       1.0000 0.84788  0.03115  0.44813  Biso   1.000  N
  N9       1.0000 0.02308  0.26293  0.11123  Biso   1.000  N
  N10      1.0000 0.97692  0.73707  0.88877  Biso   1.000  N
  N11      1.0000 0.74915  0.34773  0.20193  Biso   1.000  N
  N12      1.0000 0.25085  0.65227  0.79807  Biso   1.000  N
  H3       1.0000 0.80200  0.38800  0.22540  Biso   1.000  H
  H4       1.0000 0.19800  0.61200  0.77460  Biso   1.000  H
  N13      1.0000 0.05697  0.94385  0.75739  Biso   1.000  N
  N14      1.0000 0.94303  0.05615  0.24261  Biso   1.000  N
  C1       1.0000 0.17898  0.96584  0.45036  Biso   1.000  C
  C2       1.0000 0.82102  0.03416  0.54964  Biso   1.000  C
  C3       1.0000 0.01185  0.01223  0.85227  Biso   1.000  C
  C4       1.0000 0.98815  0.98777  0.14773  Biso   1.000  C
  C5       1.0000 0.66986  0.20258  0.09580  Biso   1.000  C
  C6       1.0000 0.33014  0.79742  0.90420  Biso   1.000  C
  C7       1.0000 0.08326  0.30210  0.17761  Biso   1.000  C
  C8       1.0000 0.91674  0.69790  0.82239  Biso   1.000  C
  C9       1.0000 0.17793  0.09634  0.46723  Biso   1.000  C
  C10      1.0000 0.82207  0.90366  0.53277  Biso   1.000  C
  C11      1.0000 0.63572  0.39330  0.26323  Biso   1.000  C
  C12      1.0000 0.36428  0.60670  0.73677  Biso   1.000  C
  C13      1.0000 0.14730  0.18048  0.58481  Biso   1.000  C
  C14      1.0000 0.85270  0.81952  0.41519  Biso   1.000  C
  C15      1.0000 0.19981  0.14064  0.37740  Biso   1.000  C
  C16      1.0000 0.80019  0.85936  0.62260  Biso   1.000  C
  H5       1.0000 0.17900  0.08240  0.30520  Biso   1.000  H
  H6       1.0000 0.82100  0.91760  0.69480  Biso   1.000  H
  H7       1.0000 0.14220  0.23730  0.40180  Biso   1.000  H
  H8       1.0000 0.85780  0.76270  0.59820  Biso   1.000  H
  C17      1.0000 0.58138  0.30073  0.19656  Biso   1.000  C
  C18      1.0000 0.41862  0.69927  0.80344  Biso   1.000  C
  C19      1.0000 0.33104  0.13112  0.35466  Biso   1.000  C
  C20      1.0000 0.66896  0.86888  0.64534  Biso   1.000  C
  C21      1.0000 0.20960  0.83400  0.33965  Biso   1.000  C
  C22      1.0000 0.79040  0.16600  0.66035  Biso   1.000  C
  H9       1.0000 0.29800  0.77820  0.32530  Biso   1.000  H
  H10      1.0000 0.70200  0.22180  0.67470  Biso   1.000  H
  H11      1.0000 0.18760  0.85780  0.27710  Biso   1.000  H
  H12      1.0000 0.81240  0.14220  0.72290  Biso   1.000  H
  H13      1.0000 0.16280  0.78120  0.34530  Biso   1.000  H
  H14      1.0000 0.83720  0.21880  0.65470  Biso   1.000  H
  C23      1.0000 0.45566  0.20777  0.28082  Biso   1.000  C
  C24      1.0000 0.54434  0.79223  0.71918  Biso   1.000  C
  C25      1.0000 0.45521  0.30280  0.22744  Biso   1.000  C
  C26      1.0000 0.54479  0.69720  0.77256  Biso   1.000  C
  H15      1.0000 0.41700  0.27650  0.15770  Biso   1.000  H
  H16      1.0000 0.58300  0.72350  0.84230  Biso   1.000  H
  H17      1.0000 0.40200  0.39870  0.28110  Biso   1.000  H
  H18      1.0000 0.59800  0.60130  0.71890  Biso   1.000  H
  C27      1.0000 0.56286  0.12240  0.30130  Biso   1.000  C
  C28      1.0000 0.43714  0.87760  0.69870  Biso   1.000  C
  H19      1.0000 0.64150  0.11990  0.28210  Biso   1.000  H
  H20      1.0000 0.35850  0.88010  0.71790  Biso   1.000  H
  C29      1.0000 0.43558  0.04410  0.37770  Biso   1.000  C
  C30      1.0000 0.56442  0.95590  0.62230  Biso   1.000  C
  H21      1.0000 0.42750  0.98870  0.41090  Biso   1.000  H
  H22      1.0000 0.57250  0.01130  0.58910  Biso   1.000  H
  C31      1.0000 0.66130  0.07860  0.99450  Biso   1.000  C
  C32      1.0000 0.33870  0.92140  0.00550  Biso   1.000  C
  H23      1.0000 0.59090  0.10980  0.95850  Biso   1.000  H
  H24      1.0000 0.40910  0.89020  0.04150  Biso   1.000  H
  H25      1.0000 0.65010  0.01490  0.02020  Biso   1.000  H
  H26      1.0000 0.34990  0.98510  0.97980  Biso   1.000  H
  H27      1.0000 0.73730  0.03110  0.93970  Biso   1.000  H
  H28      1.0000 0.26270  0.96890  0.06030  Biso   1.000  H
  C33      1.0000 0.13210  0.33320  0.65740  Biso   1.000  C
  C34      1.0000 0.86790  0.66680  0.34260  Biso   1.000  C
  H29      1.0000 0.04740  0.38800  0.69800  Biso   1.000  H
  H30      1.0000 0.95260  0.61200  0.30200  Biso   1.000  H
  H31      1.0000 0.14940  0.37010  0.60780  Biso   1.000  H
  H32      1.0000 0.85060  0.62990  0.39220  Biso   1.000  H
  H33      1.0000 0.18980  0.33790  0.71230  Biso   1.000  H
  H34      1.0000 0.81020  0.66210  0.28770  Biso   1.000  H
  C35      1.0000 0.58980  0.52040  0.37850  Biso   1.000  C
  C36      1.0000 0.41020  0.47960  0.62150  Biso   1.000  C
  H35      1.0000 0.65860  0.54770  0.40690  Biso   1.000  H
  H36      1.0000 0.34140  0.45230  0.59310  Biso   1.000  H
  H37      1.0000 0.55550  0.49870  0.43200  Biso   1.000  H
  H38      1.0000 0.44450  0.50130  0.56800  Biso   1.000  H
  H39      1.0000 0.52570  0.59640  0.37060  Biso   1.000  H
  H40      1.0000 0.47430  0.40360  0.62940  Biso   1.000  H
  C37      1.0000 0.55100  0.04130  0.35070  Biso   1.000  C
  C38      1.0000 0.44900  0.95870  0.64930  Biso   1.000  C
  H41      1.0000 0.62230  0.98370  0.36600  Biso   1.000  H
  H42      1.0000 0.37770  0.01630  0.63400  Biso   1.000  H
  Cu5      1.0000 0.18077  0.35734  0.29311  Biso   1.000  Cu
  Cu6      1.0000 0.81923  0.64266  0.70689  Biso   1.000  Cu
  N15      1.0000 0.16461  0.53290  0.42002  Biso   1.000  N
  N16      1.0000 0.83539  0.46710  0.57998  Biso   1.000  N
  C39      1.0000 0.15191  0.64370  0.48951  Biso   1.000  C
  C40      1.0000 0.84809  0.35630  0.51049  Biso   1.000  C
  O1       1.0000 0.87220  0.74860  0.11700  Biso   1.000  O
  O2       1.0000 0.12780  0.25140  0.88300  Biso   1.000  O
  O3       1.0000 0.84350  0.50390  0.00650  Biso   1.000  O
  O4       1.0000 0.15650  0.49610  0.99350  Biso   1.000  O
  C41      1.0000 0.72310  0.60680  0.01350  Biso   1.000  C
  C42      1.0000 0.27690  0.39320  0.98650  Biso   1.000  C
  H43      1.0000 0.71870  0.61130  0.94020  Biso   1.000  H
  H44      1.0000 0.28130  0.38870  0.05980  Biso   1.000  H
  H45      1.0000 0.71670  0.69850  0.07280  Biso   1.000  H
  H46      1.0000 0.28330  0.30150  0.92720  Biso   1.000  H
  C43      1.0000 0.60790  0.57690  0.04180  Biso   1.000  C
  C44      1.0000 0.39210  0.42310  0.95820  Biso   1.000  C
  H47      1.0000 0.59890  0.59550  0.12150  Biso   1.000  H
  H48      1.0000 0.40110  0.40450  0.87850  Biso   1.000  H
  H49      1.0000 0.62120  0.48000  0.99310  Biso   1.000  H
  H50      1.0000 0.37880  0.52000  0.00690  Biso   1.000  H
  H51      1.0000 0.53280  0.63680  0.02810  Biso   1.000  H
  H52      1.0000 0.46720  0.36320  0.97190  Biso   1.000  H
