data_image0
_cell_length_a       10.825
_cell_length_b       17.316
_cell_length_c       14.428
_cell_angle_alpha    90
_cell_angle_beta     109.907
_cell_angle_gamma    90

_symmetry_space_group_name_H-M    "P 1"
_symmetry_int_tables_number       1

loop_
  _symmetry_equiv_pos_as_xyz
  'x, y, z'

loop_
  _atom_site_label
  _atom_site_occupancy
  _atom_site_fract_x
  _atom_site_fract_y
  _atom_site_fract_z
  _atom_site_thermal_displace_type
  _atom_site_B_iso_or_equiv
  _atom_site_type_symbol
  Cu1      1.0000 0.59148  0.04495  0.18403  Biso   1.000  Cu
  Cu2      1.0000 0.09148  0.54495  0.18403  Biso   1.000  Cu
  Cu3      1.0000 0.40852  0.04495  0.31597  Biso   1.000  Cu
  Cu4      1.0000 0.90852  0.54495  0.31597  Biso   1.000  Cu
  Cu5      1.0000 0.40852  0.95505  0.81597  Biso   1.000  Cu
  Cu6      1.0000 0.90852  0.45505  0.81597  Biso   1.000  Cu
  Cu7      1.0000 0.59148  0.95505  0.68403  Biso   1.000  Cu
  Cu8      1.0000 0.09148  0.45505  0.68403  Biso   1.000  Cu
  S1       1.0000 0.50000  0.22250  0.25000  Biso   1.000  S
  S2       1.0000 0.00000  0.72250  0.25000  Biso   1.000  S
  S3       1.0000 0.50000  0.77750  0.75000  Biso   1.000  S
  S4       1.0000 0.00000  0.27750  0.75000  Biso   1.000  S
  O1       1.0000 0.57770  0.17360  0.20790  Biso   1.000  O
  O2       1.0000 0.07770  0.67360  0.20790  Biso   1.000  O
  O3       1.0000 0.42230  0.17360  0.29210  Biso   1.000  O
  O4       1.0000 0.92230  0.67360  0.29210  Biso   1.000  O
  O5       1.0000 0.42230  0.82640  0.79210  Biso   1.000  O
  O6       1.0000 0.92230  0.32640  0.79210  Biso   1.000  O
  O7       1.0000 0.57770  0.82640  0.70790  Biso   1.000  O
  O8       1.0000 0.07770  0.32640  0.70790  Biso   1.000  O
  O9       1.0000 0.41140  0.26980  0.17260  Biso   1.000  O
  O10      1.0000 0.91140  0.76980  0.17260  Biso   1.000  O
  O11      1.0000 0.58860  0.26980  0.32740  Biso   1.000  O
  O12      1.0000 0.08860  0.76980  0.32740  Biso   1.000  O
  O13      1.0000 0.58860  0.73020  0.82740  Biso   1.000  O
  O14      1.0000 0.08860  0.23020  0.82740  Biso   1.000  O
  O15      1.0000 0.41140  0.73020  0.67260  Biso   1.000  O
  O16      1.0000 0.91140  0.23020  0.67260  Biso   1.000  O
  N1       1.0000 0.76900  0.02970  0.26720  Biso   1.000  N
  N2       1.0000 0.26900  0.52970  0.26720  Biso   1.000  N
  N3       1.0000 0.23100  0.02970  0.23280  Biso   1.000  N
  N4       1.0000 0.73100  0.52970  0.23280  Biso   1.000  N
  N5       1.0000 0.23100  0.97030  0.73280  Biso   1.000  N
  N6       1.0000 0.73100  0.47030  0.73280  Biso   1.000  N
  N7       1.0000 0.76900  0.97030  0.76720  Biso   1.000  N
  N8       1.0000 0.26900  0.47030  0.76720  Biso   1.000  N
  N9       1.0000 0.42560  0.97430  0.58630  Biso   1.000  N
  N10      1.0000 0.92560  0.47430  0.58630  Biso   1.000  N
  N11      1.0000 0.57440  0.97430  0.91370  Biso   1.000  N
  N12      1.0000 0.07440  0.47430  0.91370  Biso   1.000  N
  N13      1.0000 0.57440  0.02570  0.41370  Biso   1.000  N
  N14      1.0000 0.07440  0.52570  0.41370  Biso   1.000  N
  N15      1.0000 0.42560  0.02570  0.08630  Biso   1.000  N
  N16      1.0000 0.92560  0.52570  0.08630  Biso   1.000  N
  C1       1.0000 0.84780  0.09010  0.30770  Biso   1.000  C
  C2       1.0000 0.34780  0.59010  0.30770  Biso   1.000  C
  C3       1.0000 0.15220  0.09010  0.19230  Biso   1.000  C
  C4       1.0000 0.65220  0.59010  0.19230  Biso   1.000  C
  C5       1.0000 0.15220  0.90990  0.69230  Biso   1.000  C
  C6       1.0000 0.65220  0.40990  0.69230  Biso   1.000  C
  C7       1.0000 0.84780  0.90990  0.80770  Biso   1.000  C
  C8       1.0000 0.34780  0.40990  0.80770  Biso   1.000  C
  C9       1.0000 0.97700  0.08110  0.36570  Biso   1.000  C
  C10      1.0000 0.47700  0.58110  0.36570  Biso   1.000  C
  C11      1.0000 0.02300  0.08110  0.13430  Biso   1.000  C
  C12      1.0000 0.52300  0.58110  0.13430  Biso   1.000  C
  C13      1.0000 0.02300  0.91890  0.63430  Biso   1.000  C
  C14      1.0000 0.52300  0.41890  0.63430  Biso   1.000  C
  C15      1.0000 0.97700  0.91890  0.86570  Biso   1.000  C
  C16      1.0000 0.47700  0.41890  0.86570  Biso   1.000  C
  C17      1.0000 0.03210  0.00860  0.38770  Biso   1.000  C
  C18      1.0000 0.53210  0.50860  0.38770  Biso   1.000  C
  C19      1.0000 0.96790  0.00860  0.11230  Biso   1.000  C
  C20      1.0000 0.46790  0.50860  0.11230  Biso   1.000  C
  C21      1.0000 0.96790  0.99140  0.61230  Biso   1.000  C
  C22      1.0000 0.46790  0.49140  0.61230  Biso   1.000  C
  C23      1.0000 0.03210  0.99140  0.88770  Biso   1.000  C
  C24      1.0000 0.53210  0.49140  0.88770  Biso   1.000  C
  C25      1.0000 0.95180  0.94720  0.34660  Biso   1.000  C
  C26      1.0000 0.45180  0.44720  0.34660  Biso   1.000  C
  C27      1.0000 0.04820  0.94720  0.15340  Biso   1.000  C
  C28      1.0000 0.54820  0.44720  0.15340  Biso   1.000  C
  C29      1.0000 0.04820  0.05280  0.65340  Biso   1.000  C
  C30      1.0000 0.54820  0.55280  0.65340  Biso   1.000  C
  C31      1.0000 0.95180  0.05280  0.84660  Biso   1.000  C
  C32      1.0000 0.45180  0.55280  0.84660  Biso   1.000  C
  C33      1.0000 0.82260  0.95860  0.28840  Biso   1.000  C
  C34      1.0000 0.32260  0.45860  0.28840  Biso   1.000  C
  C35      1.0000 0.17740  0.95860  0.21160  Biso   1.000  C
  C36      1.0000 0.67740  0.45860  0.21160  Biso   1.000  C
  C37      1.0000 0.17740  0.04140  0.71160  Biso   1.000  C
  C38      1.0000 0.67740  0.54140  0.71160  Biso   1.000  C
  C39      1.0000 0.82260  0.04140  0.78840  Biso   1.000  C
  C40      1.0000 0.32260  0.54140  0.78840  Biso   1.000  C
  C41      1.0000 0.37480  0.04520  0.56320  Biso   1.000  C
  C42      1.0000 0.87480  0.54520  0.56320  Biso   1.000  C
  C43      1.0000 0.62520  0.04520  0.93680  Biso   1.000  C
  C44      1.0000 0.12520  0.54520  0.93680  Biso   1.000  C
  C45      1.0000 0.62520  0.95480  0.43680  Biso   1.000  C
  C46      1.0000 0.12520  0.45480  0.43680  Biso   1.000  C
  C47      1.0000 0.37480  0.95480  0.06320  Biso   1.000  C
  C48      1.0000 0.87480  0.45480  0.06320  Biso   1.000  C
  C49      1.0000 0.25030  0.05800  0.49900  Biso   1.000  C
  C50      1.0000 0.75030  0.55800  0.49900  Biso   1.000  C
  C51      1.0000 0.74970  0.05800  0.00100  Biso   1.000  C
  C52      1.0000 0.24970  0.55800  0.00100  Biso   1.000  C
  C53      1.0000 0.74970  0.94200  0.50100  Biso   1.000  C
  C54      1.0000 0.24970  0.44200  0.50100  Biso   1.000  C
  C55      1.0000 0.25030  0.94200  0.99900  Biso   1.000  C
  C56      1.0000 0.75030  0.44200  0.99900  Biso   1.000  C
  C57      1.0000 0.16890  0.99730  0.45270  Biso   1.000  C
  C58      1.0000 0.66890  0.49730  0.45270  Biso   1.000  C
  C59      1.0000 0.83110  0.99730  0.04730  Biso   1.000  C
  C60      1.0000 0.33110  0.49730  0.04730  Biso   1.000  C
  C61      1.0000 0.83110  0.00270  0.54730  Biso   1.000  C
  C62      1.0000 0.33110  0.50270  0.54730  Biso   1.000  C
  C63      1.0000 0.16890  0.00270  0.95270  Biso   1.000  C
  C64      1.0000 0.66890  0.50270  0.95270  Biso   1.000  C
  C65      1.0000 0.22500  0.92550  0.47280  Biso   1.000  C
  C66      1.0000 0.72500  0.42550  0.47280  Biso   1.000  C
  C67      1.0000 0.77500  0.92550  0.02720  Biso   1.000  C
  C68      1.0000 0.27500  0.42550  0.02720  Biso   1.000  C
  C69      1.0000 0.77500  0.07450  0.52720  Biso   1.000  C
  C70      1.0000 0.27500  0.57450  0.52720  Biso   1.000  C
  C71      1.0000 0.22500  0.07450  0.97280  Biso   1.000  C
  C72      1.0000 0.72500  0.57450  0.97280  Biso   1.000  C
  C73      1.0000 0.34920  0.91530  0.53820  Biso   1.000  C
  C74      1.0000 0.84920  0.41530  0.53820  Biso   1.000  C
  C75      1.0000 0.65080  0.91530  0.96180  Biso   1.000  C
  C76      1.0000 0.15080  0.41530  0.96180  Biso   1.000  C
  C77      1.0000 0.65080  0.08470  0.46180  Biso   1.000  C
  C78      1.0000 0.15080  0.58470  0.46180  Biso   1.000  C
  C79      1.0000 0.34920  0.08470  0.03820  Biso   1.000  C
  C80      1.0000 0.84920  0.58470  0.03820  Biso   1.000  C
  H1       1.0000 0.81310  0.13980  0.29580  Biso   1.000  H
  H2       1.0000 0.31310  0.63980  0.29580  Biso   1.000  H
  H3       1.0000 0.18690  0.13980  0.20420  Biso   1.000  H
  H4       1.0000 0.68690  0.63980  0.20420  Biso   1.000  H
  H5       1.0000 0.18690  0.86020  0.70420  Biso   1.000  H
  H6       1.0000 0.68690  0.36020  0.70420  Biso   1.000  H
  H7       1.0000 0.81310  0.86020  0.79580  Biso   1.000  H
  H8       1.0000 0.31310  0.36020  0.79580  Biso   1.000  H
  H9       1.0000 0.02820  0.12450  0.39050  Biso   1.000  H
  H10      1.0000 0.52820  0.62450  0.39050  Biso   1.000  H
  H11      1.0000 0.97180  0.12450  0.10950  Biso   1.000  H
  H12      1.0000 0.47180  0.62450  0.10950  Biso   1.000  H
  H13      1.0000 0.97180  0.87550  0.60950  Biso   1.000  H
  H14      1.0000 0.47180  0.37550  0.60950  Biso   1.000  H
  H15      1.0000 0.02820  0.87550  0.89050  Biso   1.000  H
  H16      1.0000 0.52820  0.37550  0.89050  Biso   1.000  H
  H17      1.0000 0.98500  0.89720  0.35820  Biso   1.000  H
  H18      1.0000 0.48500  0.39720  0.35820  Biso   1.000  H
  H19      1.0000 0.01500  0.89720  0.14180  Biso   1.000  H
  H20      1.0000 0.51500  0.39720  0.14180  Biso   1.000  H
  H21      1.0000 0.01500  0.10280  0.64180  Biso   1.000  H
  H22      1.0000 0.51500  0.60280  0.64180  Biso   1.000  H
  H23      1.0000 0.98500  0.10280  0.85820  Biso   1.000  H
  H24      1.0000 0.48500  0.60280  0.85820  Biso   1.000  H
  H25      1.0000 0.77040  0.91580  0.26280  Biso   1.000  H
  H26      1.0000 0.27040  0.41580  0.26280  Biso   1.000  H
  H27      1.0000 0.22960  0.91580  0.23720  Biso   1.000  H
  H28      1.0000 0.72960  0.41580  0.23720  Biso   1.000  H
  H29      1.0000 0.22960  0.08420  0.73720  Biso   1.000  H
  H30      1.0000 0.72960  0.58420  0.73720  Biso   1.000  H
  H31      1.0000 0.77040  0.08420  0.76280  Biso   1.000  H
  H32      1.0000 0.27040  0.58420  0.76280  Biso   1.000  H
  H33      1.0000 0.42650  0.08750  0.59190  Biso   1.000  H
  H34      1.0000 0.92650  0.58750  0.59190  Biso   1.000  H
  H35      1.0000 0.57350  0.08750  0.90810  Biso   1.000  H
  H36      1.0000 0.07350  0.58750  0.90810  Biso   1.000  H
  H37      1.0000 0.57350  0.91250  0.40810  Biso   1.000  H
  H38      1.0000 0.07350  0.41250  0.40810  Biso   1.000  H
  H39      1.0000 0.42650  0.91250  0.09190  Biso   1.000  H
  H40      1.0000 0.92650  0.41250  0.09190  Biso   1.000  H
  H41      1.0000 0.21960  0.10840  0.48620  Biso   1.000  H
  H42      1.0000 0.71960  0.60840  0.48620  Biso   1.000  H
  H43      1.0000 0.78040  0.10840  0.01380  Biso   1.000  H
  H44      1.0000 0.28040  0.60840  0.01380  Biso   1.000  H
  H45      1.0000 0.78040  0.89160  0.51380  Biso   1.000  H
  H46      1.0000 0.28040  0.39160  0.51380  Biso   1.000  H
  H47      1.0000 0.21960  0.89160  0.98620  Biso   1.000  H
  H48      1.0000 0.71960  0.39160  0.98620  Biso   1.000  H
  H49      1.0000 0.17730  0.88270  0.44120  Biso   1.000  H
  H50      1.0000 0.67730  0.38270  0.44120  Biso   1.000  H
  H51      1.0000 0.82270  0.88270  0.05880  Biso   1.000  H
  H52      1.0000 0.32270  0.38270  0.05880  Biso   1.000  H
  H53      1.0000 0.82270  0.11730  0.55880  Biso   1.000  H
  H54      1.0000 0.32270  0.61730  0.55880  Biso   1.000  H
  H55      1.0000 0.17730  0.11730  0.94120  Biso   1.000  H
  H56      1.0000 0.67730  0.61730  0.94120  Biso   1.000  H
  H57      1.0000 0.38260  0.86540  0.55000  Biso   1.000  H
  H58      1.0000 0.88260  0.36540  0.55000  Biso   1.000  H
  H59      1.0000 0.61740  0.86540  0.95000  Biso   1.000  H
  H60      1.0000 0.11740  0.36540  0.95000  Biso   1.000  H
  H61      1.0000 0.61740  0.13460  0.45000  Biso   1.000  H
  H62      1.0000 0.11740  0.63460  0.45000  Biso   1.000  H
  H63      1.0000 0.38260  0.13460  0.05000  Biso   1.000  H
  H64      1.0000 0.88260  0.63460  0.05000  Biso   1.000  H
  O17      1.0000 0.14200  0.29340  0.15600  Biso   1.000  O
  O18      1.0000 0.64200  0.79340  0.15600  Biso   1.000  O
  O19      1.0000 0.85800  0.29340  0.34400  Biso   1.000  O
  O20      1.0000 0.35800  0.79340  0.34400  Biso   1.000  O
  O21      1.0000 0.85800  0.70660  0.84400  Biso   1.000  O
  O22      1.0000 0.35800  0.20660  0.84400  Biso   1.000  O
  O23      1.0000 0.14200  0.70660  0.65600  Biso   1.000  O
  O24      1.0000 0.64200  0.20660  0.65600  Biso   1.000  O
  O25      1.0000 0.95900  0.24200  0.97200  Biso   1.000  O
  O26      1.0000 0.45900  0.74200  0.97200  Biso   1.000  O
  O27      1.0000 0.04100  0.24200  0.52800  Biso   1.000  O
  O28      1.0000 0.54100  0.74200  0.52800  Biso   1.000  O
  O29      1.0000 0.04100  0.75800  0.02800  Biso   1.000  O
  O30      1.0000 0.54100  0.25800  0.02800  Biso   1.000  O
  O31      1.0000 0.95900  0.75800  0.47200  Biso   1.000  O
  O32      1.0000 0.45900  0.25800  0.47200  Biso   1.000  O
  O33      1.0000 0.14300  0.24630  0.06600  Biso   1.000  O
  O34      1.0000 0.64300  0.74630  0.06600  Biso   1.000  O
  O35      1.0000 0.85700  0.24630  0.43400  Biso   1.000  O
  O36      1.0000 0.35700  0.74630  0.43400  Biso   1.000  O
  O37      1.0000 0.85700  0.75370  0.93400  Biso   1.000  O
  O38      1.0000 0.35700  0.25370  0.93400  Biso   1.000  O
  O39      1.0000 0.14300  0.75370  0.56600  Biso   1.000  O
  O40      1.0000 0.64300  0.25370  0.56600  Biso   1.000  O
  O41      1.0000 0.72800  0.25150  0.89200  Biso   1.000  O
  O42      1.0000 0.22800  0.75150  0.89200  Biso   1.000  O
  O43      1.0000 0.27200  0.25150  0.60800  Biso   1.000  O
  O44      1.0000 0.77200  0.75150  0.60800  Biso   1.000  O
  O45      1.0000 0.27200  0.74850  0.10800  Biso   1.000  O
  O46      1.0000 0.77200  0.24850  0.10800  Biso   1.000  O
  O47      1.0000 0.72800  0.74850  0.39200  Biso   1.000  O
  O48      1.0000 0.22800  0.24850  0.39200  Biso   1.000  O
