data_image0
_cell_length_a       7.438
_cell_length_b       9.356
_cell_length_c       8.293
_cell_angle_alpha    90
_cell_angle_beta     90
_cell_angle_gamma    90

_symmetry_space_group_name_H-M    "P 1"
_symmetry_int_tables_number       1

loop_
  _symmetry_equiv_pos_as_xyz
  'x, y, z'

loop_
  _atom_site_label
  _atom_site_occupancy
  _atom_site_fract_x
  _atom_site_fract_y
  _atom_site_fract_z
  _atom_site_thermal_displace_type
  _atom_site_B_iso_or_equiv
  _atom_site_type_symbol
  Cu1      1.0000 0.90748  0.87458  0.37691  Biso   1.000  Cu
  Cu2      1.0000 0.09252  0.12542  0.37691  Biso   1.000  Cu
  Cu3      1.0000 0.40748  0.62542  0.62309  Biso   1.000  Cu
  Cu4      1.0000 0.59252  0.37458  0.62309  Biso   1.000  Cu
  O1       1.0000 0.74610  0.96770  0.22690  Biso   1.000  O
  O2       1.0000 0.25390  0.03230  0.22690  Biso   1.000  O
  O3       1.0000 0.24610  0.53230  0.77310  Biso   1.000  O
  O4       1.0000 0.75390  0.46770  0.77310  Biso   1.000  O
  O5       1.0000 0.89910  0.17490  0.22920  Biso   1.000  O
  O6       1.0000 0.10090  0.82510  0.22920  Biso   1.000  O
  O7       1.0000 0.39910  0.32510  0.77080  Biso   1.000  O
  O8       1.0000 0.60090  0.67490  0.77080  Biso   1.000  O
  O9       1.0000 0.81090  0.64460  0.36730  Biso   1.000  O
  O10      1.0000 0.18910  0.35540  0.36730  Biso   1.000  O
  O11      1.0000 0.31090  0.85540  0.63270  Biso   1.000  O
  O12      1.0000 0.68910  0.14460  0.63270  Biso   1.000  O
  C1       1.0000 0.66840  0.57990  0.38600  Biso   1.000  C
  C2       1.0000 0.33160  0.42010  0.38600  Biso   1.000  C
  C3       1.0000 0.16840  0.92010  0.61400  Biso   1.000  C
  C4       1.0000 0.83160  0.07990  0.61400  Biso   1.000  C
  C5       1.0000 0.66820  0.42030  0.39420  Biso   1.000  C
  C6       1.0000 0.33180  0.57970  0.39420  Biso   1.000  C
  C7       1.0000 0.16820  0.07970  0.60580  Biso   1.000  C
  C8       1.0000 0.83180  0.92030  0.60580  Biso   1.000  C
  C9       1.0000 0.49370  0.65550  0.39500  Biso   1.000  C
  C10      1.0000 0.50630  0.34450  0.39500  Biso   1.000  C
  C11      1.0000 0.99370  0.84450  0.60500  Biso   1.000  C
  C12      1.0000 0.00630  0.15550  0.60500  Biso   1.000  C
  C13      1.0000 0.77670  0.09290  0.17710  Biso   1.000  C
  C14      1.0000 0.22330  0.90710  0.17710  Biso   1.000  C
  C15      1.0000 0.27670  0.40710  0.82290  Biso   1.000  C
  C16      1.0000 0.72330  0.59290  0.82290  Biso   1.000  C
  C17      1.0000 0.65780  0.14990  0.04530  Biso   1.000  C
  C18      1.0000 0.34220  0.85010  0.04530  Biso   1.000  C
  C19      1.0000 0.15780  0.35010  0.95470  Biso   1.000  C
  C20      1.0000 0.84220  0.64990  0.95470  Biso   1.000  C
  H1       1.0000 0.66890  0.09330  0.95170  Biso   1.000  H
  H2       1.0000 0.33110  0.90670  0.95170  Biso   1.000  H
  H3       1.0000 0.16890  0.40670  0.04830  Biso   1.000  H
  H4       1.0000 0.83110  0.59330  0.04830  Biso   1.000  H
  H5       1.0000 0.69350  0.24650  0.01990  Biso   1.000  H
  H6       1.0000 0.30650  0.75350  0.01990  Biso   1.000  H
  H7       1.0000 0.19350  0.25350  0.98010  Biso   1.000  H
  H8       1.0000 0.80650  0.74650  0.98010  Biso   1.000  H
  H9       1.0000 0.53630  0.15160  0.08030  Biso   1.000  H
  H10      1.0000 0.46370  0.84840  0.08030  Biso   1.000  H
  H11      1.0000 0.03630  0.34840  0.91970  Biso   1.000  H
  H12      1.0000 0.96370  0.65160  0.91970  Biso   1.000  H
