data_image0
_cell_length_a       9.422
_cell_length_b       17.301
_cell_length_c       14.416
_cell_angle_alpha    90
_cell_angle_beta     90
_cell_angle_gamma    90

_symmetry_space_group_name_H-M    "P 1"
_symmetry_int_tables_number       1

loop_
  _symmetry_equiv_pos_as_xyz
  'x, y, z'

loop_
  _atom_site_label
  _atom_site_occupancy
  _atom_site_fract_x
  _atom_site_fract_y
  _atom_site_fract_z
  _atom_site_thermal_displace_type
  _atom_site_B_iso_or_equiv
  _atom_site_type_symbol
  Cu1      1.0000 0.08565  0.54624  0.91556  Biso   1.000  Cu
  Cu2      1.0000 0.58565  0.04624  0.08444  Biso   1.000  Cu
  Cu3      1.0000 0.41435  0.54624  0.41556  Biso   1.000  Cu
  Cu4      1.0000 0.08565  0.95376  0.41556  Biso   1.000  Cu
  Cu5      1.0000 0.91435  0.45376  0.08444  Biso   1.000  Cu
  Cu6      1.0000 0.41435  0.95376  0.91556  Biso   1.000  Cu
  Cu7      1.0000 0.58565  0.45376  0.58444  Biso   1.000  Cu
  Cu8      1.0000 0.91435  0.04624  0.58444  Biso   1.000  Cu
  Cu9      1.0000 0.10096  0.70512  0.91211  Biso   1.000  Cu
  Cu10     1.0000 0.60096  0.20512  0.08789  Biso   1.000  Cu
  Cu11     1.0000 0.39904  0.70512  0.41211  Biso   1.000  Cu
  Cu12     1.0000 0.10096  0.79488  0.41211  Biso   1.000  Cu
  Cu13     1.0000 0.89904  0.29488  0.08789  Biso   1.000  Cu
  Cu14     1.0000 0.39904  0.79488  0.91211  Biso   1.000  Cu
  Cu15     1.0000 0.60096  0.29488  0.58789  Biso   1.000  Cu
  Cu16     1.0000 0.89904  0.20512  0.58789  Biso   1.000  Cu
  O1       1.0000 0.99530  0.69870  0.02720  Biso   1.000  O
  O2       1.0000 0.49530  0.19870  0.97280  Biso   1.000  O
  O3       1.0000 0.50470  0.69870  0.52720  Biso   1.000  O
  O4       1.0000 0.99530  0.80130  0.52720  Biso   1.000  O
  O5       1.0000 0.00470  0.30130  0.97280  Biso   1.000  O
  O6       1.0000 0.50470  0.80130  0.02720  Biso   1.000  O
  O7       1.0000 0.49530  0.30130  0.47280  Biso   1.000  O
  O8       1.0000 0.00470  0.19870  0.47280  Biso   1.000  O
  O9       1.0000 0.96900  0.57030  0.02820  Biso   1.000  O
  O10      1.0000 0.46900  0.07030  0.97180  Biso   1.000  O
  O11      1.0000 0.53100  0.57030  0.52820  Biso   1.000  O
  O12      1.0000 0.96900  0.92970  0.52820  Biso   1.000  O
  O13      1.0000 0.03100  0.42970  0.97180  Biso   1.000  O
  O14      1.0000 0.53100  0.92970  0.02820  Biso   1.000  O
  O15      1.0000 0.46900  0.42970  0.47180  Biso   1.000  O
  O16      1.0000 0.03100  0.07030  0.47180  Biso   1.000  O
  O17      1.0000 0.30460  0.67870  0.93700  Biso   1.000  O
  O18      1.0000 0.80460  0.17870  0.06300  Biso   1.000  O
  O19      1.0000 0.19540  0.67870  0.43700  Biso   1.000  O
  O20      1.0000 0.30460  0.82130  0.43700  Biso   1.000  O
  O21      1.0000 0.69540  0.32130  0.06300  Biso   1.000  O
  O22      1.0000 0.19540  0.82130  0.93700  Biso   1.000  O
  O23      1.0000 0.80460  0.32130  0.56300  Biso   1.000  O
  O24      1.0000 0.69540  0.17870  0.56300  Biso   1.000  O
  O25      1.0000 0.27810  0.55250  0.96230  Biso   1.000  O
  O26      1.0000 0.77810  0.05250  0.03770  Biso   1.000  O
  O27      1.0000 0.22190  0.55250  0.46230  Biso   1.000  O
  O28      1.0000 0.27810  0.94750  0.46230  Biso   1.000  O
  O29      1.0000 0.72190  0.44750  0.03770  Biso   1.000  O
  O30      1.0000 0.22190  0.94750  0.96230  Biso   1.000  O
  O31      1.0000 0.77810  0.44750  0.53770  Biso   1.000  O
  O32      1.0000 0.72190  0.05250  0.53770  Biso   1.000  O
  O33      1.0000 0.74430  0.62820  0.84880  Biso   1.000  O
  O34      1.0000 0.24430  0.12820  0.15120  Biso   1.000  O
  O35      1.0000 0.75570  0.62820  0.34880  Biso   1.000  O
  O36      1.0000 0.74430  0.87180  0.34880  Biso   1.000  O
  O37      1.0000 0.25570  0.37180  0.15120  Biso   1.000  O
  O38      1.0000 0.75570  0.87180  0.84880  Biso   1.000  O
  O39      1.0000 0.24430  0.37180  0.65120  Biso   1.000  O
  O40      1.0000 0.25570  0.12820  0.65120  Biso   1.000  O
  O41      1.0000 0.26970  0.62470  0.70740  Biso   1.000  O
  O42      1.0000 0.76970  0.12470  0.29260  Biso   1.000  O
  O43      1.0000 0.23030  0.62470  0.20740  Biso   1.000  O
  O44      1.0000 0.26970  0.87530  0.20740  Biso   1.000  O
  O45      1.0000 0.73030  0.37530  0.29260  Biso   1.000  O
  O46      1.0000 0.23030  0.87530  0.70740  Biso   1.000  O
  O47      1.0000 0.76970  0.37530  0.79260  Biso   1.000  O
  O48      1.0000 0.73030  0.12470  0.79260  Biso   1.000  O
  C1       1.0000 0.86960  0.62730  0.82730  Biso   1.000  C
  C2       1.0000 0.36960  0.12730  0.17270  Biso   1.000  C
  C3       1.0000 0.63040  0.62730  0.32730  Biso   1.000  C
  C4       1.0000 0.86960  0.87270  0.32730  Biso   1.000  C
  C5       1.0000 0.13040  0.37270  0.17270  Biso   1.000  C
  C6       1.0000 0.63040  0.87270  0.82730  Biso   1.000  C
  C7       1.0000 0.36960  0.37270  0.67270  Biso   1.000  C
  C8       1.0000 0.13040  0.12730  0.67270  Biso   1.000  C
  C9       1.0000 0.94850  0.70030  0.81160  Biso   1.000  C
  C10      1.0000 0.44850  0.20030  0.18840  Biso   1.000  C
  C11      1.0000 0.55150  0.70030  0.31160  Biso   1.000  C
  C12      1.0000 0.94850  0.79970  0.31160  Biso   1.000  C
  C13      1.0000 0.05150  0.29970  0.18840  Biso   1.000  C
  C14      1.0000 0.55150  0.79970  0.81160  Biso   1.000  C
  C15      1.0000 0.44850  0.29970  0.68840  Biso   1.000  C
  C16      1.0000 0.05150  0.20030  0.68840  Biso   1.000  C
  C17      1.0000 0.08460  0.70030  0.77140  Biso   1.000  C
  C18      1.0000 0.58460  0.20030  0.22860  Biso   1.000  C
  C19      1.0000 0.41540  0.70030  0.27140  Biso   1.000  C
  C20      1.0000 0.08460  0.79970  0.27140  Biso   1.000  C
  C21      1.0000 0.91540  0.29970  0.22860  Biso   1.000  C
  C22      1.0000 0.41540  0.79970  0.77140  Biso   1.000  C
  C23      1.0000 0.58460  0.29970  0.72860  Biso   1.000  C
  C24      1.0000 0.91540  0.20030  0.72860  Biso   1.000  C
  C25      1.0000 0.15580  0.62550  0.74720  Biso   1.000  C
  C26      1.0000 0.65580  0.12550  0.25280  Biso   1.000  C
  C27      1.0000 0.34420  0.62550  0.24720  Biso   1.000  C
  C28      1.0000 0.15580  0.87450  0.24720  Biso   1.000  C
  C29      1.0000 0.84420  0.37450  0.25280  Biso   1.000  C
  C30      1.0000 0.34420  0.87450  0.74720  Biso   1.000  C
  C31      1.0000 0.65580  0.37450  0.75280  Biso   1.000  C
  C32      1.0000 0.84420  0.12550  0.75280  Biso   1.000  C
  C33      1.0000 0.08280  0.55280  0.77410  Biso   1.000  C
  C34      1.0000 0.58280  0.05280  0.22590  Biso   1.000  C
  C35      1.0000 0.41720  0.55280  0.27410  Biso   1.000  C
  C36      1.0000 0.08280  0.94720  0.27410  Biso   1.000  C
  C37      1.0000 0.91720  0.44720  0.22590  Biso   1.000  C
  C38      1.0000 0.41720  0.94720  0.77410  Biso   1.000  C
  C39      1.0000 0.58280  0.44720  0.72590  Biso   1.000  C
  C40      1.0000 0.91720  0.05280  0.72590  Biso   1.000  C
  C41      1.0000 0.94460  0.55330  0.81030  Biso   1.000  C
  C42      1.0000 0.44460  0.05330  0.18970  Biso   1.000  C
  C43      1.0000 0.55540  0.55330  0.31030  Biso   1.000  C
  C44      1.0000 0.94460  0.94670  0.31030  Biso   1.000  C
  C45      1.0000 0.05540  0.44670  0.18970  Biso   1.000  C
  C46      1.0000 0.55540  0.94670  0.81030  Biso   1.000  C
  C47      1.0000 0.44460  0.44670  0.68970  Biso   1.000  C
  C48      1.0000 0.05540  0.05330  0.68970  Biso   1.000  C
  C49      1.0000 0.94590  0.63730  0.06010  Biso   1.000  C
  C50      1.0000 0.44590  0.13730  0.93990  Biso   1.000  C
  C51      1.0000 0.55410  0.63730  0.56010  Biso   1.000  C
  C52      1.0000 0.94590  0.86270  0.56010  Biso   1.000  C
  C53      1.0000 0.05410  0.36270  0.93990  Biso   1.000  C
  C54      1.0000 0.55410  0.86270  0.06010  Biso   1.000  C
  C55      1.0000 0.44590  0.36270  0.43990  Biso   1.000  C
  C56      1.0000 0.05410  0.13730  0.43990  Biso   1.000  C
  C57      1.0000 0.85380  0.64350  0.14490  Biso   1.000  C
  C58      1.0000 0.35380  0.14350  0.85510  Biso   1.000  C
  C59      1.0000 0.64620  0.64350  0.64490  Biso   1.000  C
  C60      1.0000 0.85380  0.85650  0.64490  Biso   1.000  C
  C61      1.0000 0.14620  0.35650  0.85510  Biso   1.000  C
  C62      1.0000 0.64620  0.85650  0.14490  Biso   1.000  C
  C63      1.0000 0.35380  0.35650  0.35510  Biso   1.000  C
  C64      1.0000 0.14620  0.14350  0.35510  Biso   1.000  C
  C65      1.0000 0.34990  0.61370  0.96720  Biso   1.000  C
  C66      1.0000 0.84990  0.11370  0.03280  Biso   1.000  C
  C67      1.0000 0.15010  0.61370  0.46720  Biso   1.000  C
  C68      1.0000 0.34990  0.88630  0.46720  Biso   1.000  C
  C69      1.0000 0.65010  0.38630  0.03280  Biso   1.000  C
  C70      1.0000 0.15010  0.88630  0.96720  Biso   1.000  C
  C71      1.0000 0.84990  0.38630  0.53280  Biso   1.000  C
  C72      1.0000 0.65010  0.11370  0.53280  Biso   1.000  C
  C73      1.0000 0.49370  0.61020  0.00940  Biso   1.000  C
  C74      1.0000 0.99370  0.11020  0.99060  Biso   1.000  C
  C75      1.0000 0.00630  0.61020  0.50940  Biso   1.000  C
  C76      1.0000 0.49370  0.88980  0.50940  Biso   1.000  C
  C77      1.0000 0.50630  0.38980  0.99060  Biso   1.000  C
  C78      1.0000 0.00630  0.88980  0.00940  Biso   1.000  C
  C79      1.0000 0.99370  0.38980  0.49060  Biso   1.000  C
  C80      1.0000 0.50630  0.11020  0.49060  Biso   1.000  C
  H1       1.0000 0.76090  0.62190  0.13200  Biso   1.000  H
  H2       1.0000 0.26090  0.12190  0.86800  Biso   1.000  H
  H3       1.0000 0.73910  0.62190  0.63200  Biso   1.000  H
  H4       1.0000 0.76090  0.87810  0.63200  Biso   1.000  H
  H5       1.0000 0.23910  0.37810  0.86800  Biso   1.000  H
  H6       1.0000 0.73910  0.87810  0.13200  Biso   1.000  H
  H7       1.0000 0.26090  0.37810  0.36800  Biso   1.000  H
  H8       1.0000 0.23910  0.12190  0.36800  Biso   1.000  H
  H9       1.0000 0.84210  0.69570  0.16260  Biso   1.000  H
  H10      1.0000 0.34210  0.19570  0.83740  Biso   1.000  H
  H11      1.0000 0.65790  0.69570  0.66260  Biso   1.000  H
  H12      1.0000 0.84210  0.80430  0.66260  Biso   1.000  H
  H13      1.0000 0.15790  0.30430  0.83740  Biso   1.000  H
  H14      1.0000 0.65790  0.80430  0.16260  Biso   1.000  H
  H15      1.0000 0.34210  0.30430  0.33740  Biso   1.000  H
  H16      1.0000 0.15790  0.19570  0.33740  Biso   1.000  H
  H17      1.0000 0.89380  0.61500  0.19510  Biso   1.000  H
  H18      1.0000 0.39380  0.11500  0.80490  Biso   1.000  H
  H19      1.0000 0.60620  0.61500  0.69510  Biso   1.000  H
  H20      1.0000 0.89380  0.88500  0.69510  Biso   1.000  H
  H21      1.0000 0.10620  0.38500  0.80490  Biso   1.000  H
  H22      1.0000 0.60620  0.88500  0.19510  Biso   1.000  H
  H23      1.0000 0.39380  0.38500  0.30490  Biso   1.000  H
  H24      1.0000 0.10620  0.11500  0.30490  Biso   1.000  H
  H25      1.0000 0.48850  0.59170  0.07120  Biso   1.000  H
  H26      1.0000 0.98850  0.09170  0.92880  Biso   1.000  H
  H27      1.0000 0.01150  0.59170  0.57120  Biso   1.000  H
  H28      1.0000 0.48850  0.90830  0.57120  Biso   1.000  H
  H29      1.0000 0.51150  0.40830  0.92880  Biso   1.000  H
  H30      1.0000 0.01150  0.90830  0.07120  Biso   1.000  H
  H31      1.0000 0.98850  0.40830  0.42880  Biso   1.000  H
  H32      1.0000 0.51150  0.09170  0.42880  Biso   1.000  H
  H33      1.0000 0.53620  0.66020  0.00920  Biso   1.000  H
  H34      1.0000 0.03620  0.16020  0.99080  Biso   1.000  H
  H35      1.0000 0.96380  0.66020  0.50920  Biso   1.000  H
  H36      1.0000 0.53620  0.83980  0.50920  Biso   1.000  H
  H37      1.0000 0.46380  0.33980  0.99080  Biso   1.000  H
  H38      1.0000 0.96380  0.83980  0.00920  Biso   1.000  H
  H39      1.0000 0.03620  0.33980  0.49080  Biso   1.000  H
  H40      1.0000 0.46380  0.16020  0.49080  Biso   1.000  H
  H41      1.0000 0.55260  0.57600  0.97390  Biso   1.000  H
  H42      1.0000 0.05260  0.07600  0.02610  Biso   1.000  H
  H43      1.0000 0.94740  0.57600  0.47390  Biso   1.000  H
  H44      1.0000 0.55260  0.92400  0.47390  Biso   1.000  H
  H45      1.0000 0.44740  0.42400  0.02610  Biso   1.000  H
  H46      1.0000 0.94740  0.92400  0.97390  Biso   1.000  H
  H47      1.0000 0.05260  0.42400  0.52610  Biso   1.000  H
  H48      1.0000 0.44740  0.07600  0.52610  Biso   1.000  H
