data_image0
_cell_length_a       12.0004
_cell_length_b       15.5301
_cell_length_c       19.356
_cell_angle_alpha    90
_cell_angle_beta     90
_cell_angle_gamma    90

_symmetry_space_group_name_H-M    "P 1"
_symmetry_int_tables_number       1

loop_
  _symmetry_equiv_pos_as_xyz
  'x, y, z'

loop_
  _atom_site_label
  _atom_site_occupancy
  _atom_site_fract_x
  _atom_site_fract_y
  _atom_site_fract_z
  _atom_site_thermal_displace_type
  _atom_site_B_iso_or_equiv
  _atom_site_type_symbol
  Br1      1.0000 0.52037  0.10854  0.27237  Biso   1.000  Br
  Br2      1.0000 0.97963  0.89146  0.77237  Biso   1.000  Br
  Br3      1.0000 0.02037  0.39146  0.72763  Biso   1.000  Br
  Br4      1.0000 0.47963  0.60854  0.22763  Biso   1.000  Br
  Cu1      1.0000 0.29659  0.35224  0.29570  Biso   1.000  Cu
  Cu2      1.0000 0.20341  0.64776  0.79570  Biso   1.000  Cu
  Cu3      1.0000 0.79659  0.14776  0.70430  Biso   1.000  Cu
  Cu4      1.0000 0.70341  0.85224  0.20430  Biso   1.000  Cu
  O1       1.0000 0.98370  0.34940  0.19966  Biso   1.000  O
  O2       1.0000 0.51630  0.65060  0.69966  Biso   1.000  O
  O3       1.0000 0.48370  0.15060  0.80034  Biso   1.000  O
  O4       1.0000 0.01630  0.84940  0.30034  Biso   1.000  O
  O5       1.0000 0.13240  0.37230  0.48949  Biso   1.000  O
  O6       1.0000 0.36760  0.62770  0.98949  Biso   1.000  O
  O7       1.0000 0.63240  0.12770  0.51051  Biso   1.000  O
  O8       1.0000 0.86760  0.87230  0.01051  Biso   1.000  O
  C1       1.0000 0.20540  0.24110  0.29590  Biso   1.000  C
  C2       1.0000 0.29460  0.75890  0.79590  Biso   1.000  C
  C3       1.0000 0.70540  0.25890  0.70410  Biso   1.000  C
  C4       1.0000 0.79460  0.74110  0.20410  Biso   1.000  C
  C5       1.0000 0.19860  0.20650  0.23010  Biso   1.000  C
  C6       1.0000 0.30140  0.79350  0.73010  Biso   1.000  C
  C7       1.0000 0.69860  0.29350  0.76990  Biso   1.000  C
  C8       1.0000 0.80140  0.70650  0.26990  Biso   1.000  C
  C9       1.0000 0.25820  0.25510  0.17370  Biso   1.000  C
  C10      1.0000 0.24180  0.74490  0.67370  Biso   1.000  C
  C11      1.0000 0.75820  0.24490  0.82630  Biso   1.000  C
  C12      1.0000 0.74180  0.75510  0.32630  Biso   1.000  C
  C13      1.0000 0.31640  0.32740  0.19440  Biso   1.000  C
  C14      1.0000 0.18360  0.67260  0.69440  Biso   1.000  C
  C15      1.0000 0.81640  0.17260  0.80560  Biso   1.000  C
  C16      1.0000 0.68360  0.82740  0.30560  Biso   1.000  C
  C17      1.0000 0.21970  0.46890  0.31500  Biso   1.000  C
  C18      1.0000 0.28030  0.53110  0.81500  Biso   1.000  C
  C19      1.0000 0.71970  0.03110  0.68500  Biso   1.000  C
  C20      1.0000 0.78030  0.96890  0.18500  Biso   1.000  C
  C21      1.0000 0.27590  0.51230  0.36650  Biso   1.000  C
  C22      1.0000 0.22410  0.48770  0.86650  Biso   1.000  C
  C23      1.0000 0.77590  0.98770  0.63350  Biso   1.000  C
  C24      1.0000 0.72410  0.01230  0.13350  Biso   1.000  C
  C25      1.0000 0.36990  0.46640  0.40020  Biso   1.000  C
  C26      1.0000 0.13010  0.53360  0.90020  Biso   1.000  C
  C27      1.0000 0.86990  0.03360  0.59980  Biso   1.000  C
  C28      1.0000 0.63010  0.96640  0.09980  Biso   1.000  C
  C29      1.0000 0.39970  0.38820  0.37240  Biso   1.000  C
  C30      1.0000 0.10030  0.61180  0.87240  Biso   1.000  C
  C31      1.0000 0.89970  0.11180  0.62760  Biso   1.000  C
  C32      1.0000 0.60030  0.88820  0.12760  Biso   1.000  C
  C33      1.0000 0.15380  0.19340  0.35650  Biso   1.000  C
  C34      1.0000 0.34620  0.80660  0.85650  Biso   1.000  C
  C35      1.0000 0.65380  0.30660  0.64350  Biso   1.000  C
  C36      1.0000 0.84620  0.69340  0.14350  Biso   1.000  C
  H1       1.0000 0.11260  0.23500  0.38570  Biso   1.000  H
  H2       1.0000 0.38740  0.76500  0.88570  Biso   1.000  H
  H3       1.0000 0.61260  0.26500  0.61430  Biso   1.000  H
  H4       1.0000 0.88740  0.73500  0.11430  Biso   1.000  H
  H5       1.0000 0.09950  0.15080  0.33870  Biso   1.000  H
  H6       1.0000 0.40050  0.84920  0.83870  Biso   1.000  H
  H7       1.0000 0.59950  0.34920  0.66130  Biso   1.000  H
  H8       1.0000 0.90050  0.65080  0.16130  Biso   1.000  H
  C37      1.0000 0.23940  0.14720  0.40070  Biso   1.000  C
  C38      1.0000 0.26060  0.85280  0.90070  Biso   1.000  C
  C39      1.0000 0.73940  0.35280  0.59930  Biso   1.000  C
  C40      1.0000 0.76060  0.64720  0.09930  Biso   1.000  C
  H9       1.0000 0.28020  0.10560  0.37230  Biso   1.000  H
  H10      1.0000 0.21980  0.89440  0.87230  Biso   1.000  H
  H11      1.0000 0.78020  0.39440  0.62770  Biso   1.000  H
  H12      1.0000 0.71980  0.60560  0.12770  Biso   1.000  H
  H13      1.0000 0.20150  0.11690  0.43840  Biso   1.000  H
  H14      1.0000 0.29850  0.88310  0.93840  Biso   1.000  H
  H15      1.0000 0.70150  0.38310  0.56160  Biso   1.000  H
  H16      1.0000 0.79850  0.61690  0.06160  Biso   1.000  H
  H17      1.0000 0.29170  0.18920  0.42000  Biso   1.000  H
  H18      1.0000 0.20830  0.81080  0.92000  Biso   1.000  H
  H19      1.0000 0.79170  0.31080  0.58000  Biso   1.000  H
  H20      1.0000 0.70830  0.68920  0.08000  Biso   1.000  H
  C41      1.0000 0.13920  0.12360  0.21170  Biso   1.000  C
  C42      1.0000 0.36080  0.87640  0.71170  Biso   1.000  C
  C43      1.0000 0.63920  0.37640  0.78830  Biso   1.000  C
  C44      1.0000 0.86080  0.62360  0.28830  Biso   1.000  C
  H21      1.0000 0.10440  0.13020  0.16560  Biso   1.000  H
  H22      1.0000 0.39560  0.86980  0.66560  Biso   1.000  H
  H23      1.0000 0.60440  0.36980  0.83440  Biso   1.000  H
  H24      1.0000 0.89560  0.63020  0.33440  Biso   1.000  H
  H25      1.0000 0.07870  0.11350  0.24550  Biso   1.000  H
  H26      1.0000 0.42130  0.88650  0.74550  Biso   1.000  H
  H27      1.0000 0.57870  0.38650  0.75450  Biso   1.000  H
  H28      1.0000 0.92130  0.61350  0.25450  Biso   1.000  H
  C45      1.0000 0.21540  0.04480  0.21050  Biso   1.000  C
  C46      1.0000 0.28460  0.95520  0.71050  Biso   1.000  C
  C47      1.0000 0.71540  0.45520  0.78950  Biso   1.000  C
  C48      1.0000 0.78460  0.54480  0.28950  Biso   1.000  C
  H29      1.0000 0.27310  0.05260  0.17520  Biso   1.000  H
  H30      1.0000 0.22690  0.94740  0.67520  Biso   1.000  H
  H31      1.0000 0.77310  0.44740  0.82480  Biso   1.000  H
  H32      1.0000 0.72690  0.55260  0.32480  Biso   1.000  H
  H33      1.0000 0.17140  0.99330  0.19980  Biso   1.000  H
  H34      1.0000 0.32860  0.00670  0.69980  Biso   1.000  H
  H35      1.0000 0.67140  0.50670  0.80020  Biso   1.000  H
  H36      1.0000 0.82860  0.49330  0.30020  Biso   1.000  H
  H37      1.0000 0.25070  0.03780  0.25580  Biso   1.000  H
  H38      1.0000 0.24930  0.96220  0.75580  Biso   1.000  H
  H39      1.0000 0.75070  0.46220  0.74420  Biso   1.000  H
  H40      1.0000 0.74930  0.53780  0.24420  Biso   1.000  H
  C49      1.0000 0.24950  0.22470  0.10000  Biso   1.000  C
  C50      1.0000 0.25050  0.77530  0.60000  Biso   1.000  C
  C51      1.0000 0.74950  0.27530  0.90000  Biso   1.000  C
  C52      1.0000 0.75050  0.72470  0.40000  Biso   1.000  C
  H41      1.0000 0.24660  0.16100  0.09970  Biso   1.000  H
  H42      1.0000 0.25340  0.83900  0.59970  Biso   1.000  H
  H43      1.0000 0.74660  0.33900  0.90030  Biso   1.000  H
  H44      1.0000 0.75340  0.66100  0.40030  Biso   1.000  H
  H45      1.0000 0.31760  0.24230  0.07490  Biso   1.000  H
  H46      1.0000 0.18240  0.75770  0.57490  Biso   1.000  H
  H47      1.0000 0.81760  0.25770  0.92510  Biso   1.000  H
  H48      1.0000 0.68240  0.74230  0.42510  Biso   1.000  H
  C53      1.0000 0.14800  0.25930  0.06150  Biso   1.000  C
  C54      1.0000 0.35200  0.74070  0.56150  Biso   1.000  C
  C55      1.0000 0.64800  0.24070  0.93850  Biso   1.000  C
  C56      1.0000 0.85200  0.75930  0.43850  Biso   1.000  C
  H49      1.0000 0.14300  0.23190  0.01600  Biso   1.000  H
  H50      1.0000 0.35700  0.76810  0.51600  Biso   1.000  H
  H51      1.0000 0.64300  0.26810  0.98400  Biso   1.000  H
  H52      1.0000 0.85700  0.73190  0.48400  Biso   1.000  H
  H53      1.0000 0.15530  0.32180  0.05570  Biso   1.000  H
  H54      1.0000 0.34470  0.67820  0.55570  Biso   1.000  H
  H55      1.0000 0.65530  0.17820  0.94430  Biso   1.000  H
  H56      1.0000 0.84470  0.82180  0.44430  Biso   1.000  H
  H57      1.0000 0.08040  0.24660  0.08810  Biso   1.000  H
  H58      1.0000 0.41960  0.75340  0.58810  Biso   1.000  H
  H59      1.0000 0.58040  0.25340  0.91190  Biso   1.000  H
  H60      1.0000 0.91960  0.74660  0.41190  Biso   1.000  H
  C57      1.0000 0.37920  0.37890  0.13970  Biso   1.000  C
  C58      1.0000 0.12080  0.62110  0.63970  Biso   1.000  C
  C59      1.0000 0.87920  0.12110  0.86030  Biso   1.000  C
  C60      1.0000 0.62080  0.87890  0.36030  Biso   1.000  C
  H61      1.0000 0.34410  0.36890  0.09410  Biso   1.000  H
  H62      1.0000 0.15590  0.63110  0.59410  Biso   1.000  H
  H63      1.0000 0.84410  0.13110  0.90590  Biso   1.000  H
  H64      1.0000 0.65590  0.86890  0.40590  Biso   1.000  H
  H65      1.0000 0.37280  0.44100  0.15050  Biso   1.000  H
  H66      1.0000 0.12720  0.55900  0.65050  Biso   1.000  H
  H67      1.0000 0.87280  0.05900  0.84950  Biso   1.000  H
  H68      1.0000 0.62720  0.94100  0.34950  Biso   1.000  H
  C61      1.0000 0.50110  0.35490  0.13560  Biso   1.000  C
  C62      1.0000 0.99890  0.64510  0.63560  Biso   1.000  C
  C63      1.0000 0.00110  0.14510  0.86440  Biso   1.000  C
  C64      1.0000 0.49890  0.85490  0.36440  Biso   1.000  C
  H69      1.0000 0.53810  0.39100  0.10110  Biso   1.000  H
  H70      1.0000 0.96190  0.60900  0.60110  Biso   1.000  H
  H71      1.0000 0.03810  0.10900  0.89890  Biso   1.000  H
  H72      1.0000 0.46190  0.89100  0.39890  Biso   1.000  H
  H73      1.0000 0.50810  0.29420  0.12240  Biso   1.000  H
  H74      1.0000 0.99190  0.70580  0.62240  Biso   1.000  H
  H75      1.0000 0.00810  0.20580  0.87760  Biso   1.000  H
  H76      1.0000 0.49190  0.79420  0.37760  Biso   1.000  H
  H77      1.0000 0.53610  0.36380  0.18080  Biso   1.000  H
  H78      1.0000 0.96390  0.63620  0.68080  Biso   1.000  H
  H79      1.0000 0.03610  0.13620  0.81920  Biso   1.000  H
  H80      1.0000 0.46390  0.86380  0.31920  Biso   1.000  H
  C65      1.0000 0.12580  0.51420  0.27780  Biso   1.000  C
  C66      1.0000 0.37420  0.48580  0.77780  Biso   1.000  C
  C67      1.0000 0.62580  0.98580  0.72220  Biso   1.000  C
  C68      1.0000 0.87420  0.01420  0.22220  Biso   1.000  C
  H81      1.0000 0.10390  0.56590  0.30450  Biso   1.000  H
  H82      1.0000 0.39610  0.43410  0.80450  Biso   1.000  H
  H83      1.0000 0.60390  0.93410  0.69550  Biso   1.000  H
  H84      1.0000 0.89610  0.06590  0.19550  Biso   1.000  H
  H85      1.0000 0.06050  0.47540  0.27560  Biso   1.000  H
  H86      1.0000 0.43950  0.52460  0.77560  Biso   1.000  H
  H87      1.0000 0.56050  0.02460  0.72440  Biso   1.000  H
  H88      1.0000 0.93950  0.97540  0.22440  Biso   1.000  H
  C69      1.0000 0.15770  0.54160  0.20430  Biso   1.000  C
  C70      1.0000 0.34230  0.45840  0.70430  Biso   1.000  C
  C71      1.0000 0.65770  0.95840  0.79570  Biso   1.000  C
  C72      1.0000 0.84230  0.04160  0.29570  Biso   1.000  C
  H89      1.0000 0.18000  0.49070  0.17770  Biso   1.000  H
  H90      1.0000 0.32000  0.50930  0.67770  Biso   1.000  H
  H91      1.0000 0.68000  0.00930  0.82230  Biso   1.000  H
  H92      1.0000 0.82000  0.99070  0.32230  Biso   1.000  H
  H93      1.0000 0.21980  0.58240  0.20630  Biso   1.000  H
  H94      1.0000 0.28020  0.41760  0.70630  Biso   1.000  H
  H95      1.0000 0.71980  0.91760  0.79370  Biso   1.000  H
  H96      1.0000 0.78020  0.08240  0.29370  Biso   1.000  H
  H97      1.0000 0.09350  0.56900  0.18200  Biso   1.000  H
  H98      1.0000 0.40650  0.43100  0.68200  Biso   1.000  H
  H99      1.0000 0.59350  0.93100  0.81800  Biso   1.000  H
  H100     1.0000 0.90650  0.06900  0.31800  Biso   1.000  H
  C73      1.0000 0.24880  0.60380  0.38760  Biso   1.000  C
  C74      1.0000 0.25120  0.39620  0.88760  Biso   1.000  C
  C75      1.0000 0.74880  0.89620  0.61240  Biso   1.000  C
  C76      1.0000 0.75120  0.10380  0.11240  Biso   1.000  C
  H101     1.0000 0.22670  0.63670  0.34600  Biso   1.000  H
  H102     1.0000 0.27330  0.36330  0.84600  Biso   1.000  H
  H103     1.0000 0.72670  0.86330  0.65400  Biso   1.000  H
  H104     1.0000 0.77330  0.13670  0.15400  Biso   1.000  H
  H105     1.0000 0.31680  0.63090  0.40670  Biso   1.000  H
  H106     1.0000 0.18320  0.36910  0.90670  Biso   1.000  H
  H107     1.0000 0.81680  0.86910  0.59330  Biso   1.000  H
  H108     1.0000 0.68320  0.13090  0.09330  Biso   1.000  H
  C77      1.0000 0.15640  0.61010  0.44080  Biso   1.000  C
  C78      1.0000 0.34360  0.38990  0.94080  Biso   1.000  C
  C79      1.0000 0.65640  0.88990  0.55920  Biso   1.000  C
  C80      1.0000 0.84360  0.11010  0.05920  Biso   1.000  C
  H109     1.0000 0.08610  0.59090  0.42020  Biso   1.000  H
  H110     1.0000 0.41390  0.40910  0.92020  Biso   1.000  H
  H111     1.0000 0.58610  0.90910  0.57980  Biso   1.000  H
  H112     1.0000 0.91390  0.09090  0.07980  Biso   1.000  H
  H113     1.0000 0.14900  0.67000  0.45610  Biso   1.000  H
  H114     1.0000 0.35100  0.33000  0.95610  Biso   1.000  H
  H115     1.0000 0.64900  0.83000  0.54390  Biso   1.000  H
  H116     1.0000 0.85100  0.17000  0.04390  Biso   1.000  H
  H117     1.0000 0.17450  0.57360  0.48050  Biso   1.000  H
  H118     1.0000 0.32550  0.42640  0.98050  Biso   1.000  H
  H119     1.0000 0.67450  0.92640  0.51950  Biso   1.000  H
  H120     1.0000 0.82550  0.07360  0.01950  Biso   1.000  H
  C81      1.0000 0.42880  0.50900  0.46110  Biso   1.000  C
  C82      1.0000 0.07120  0.49100  0.96110  Biso   1.000  C
  C83      1.0000 0.92880  0.99100  0.53890  Biso   1.000  C
  C84      1.0000 0.57120  0.00900  0.03890  Biso   1.000  C
  H121     1.0000 0.45230  0.46380  0.49400  Biso   1.000  H
  H122     1.0000 0.04770  0.53620  0.99400  Biso   1.000  H
  H123     1.0000 0.95230  0.03620  0.50600  Biso   1.000  H
  H124     1.0000 0.54770  0.96380  0.00600  Biso   1.000  H
  H125     1.0000 0.37520  0.54700  0.48520  Biso   1.000  H
  H126     1.0000 0.12480  0.45300  0.98520  Biso   1.000  H
  H127     1.0000 0.87520  0.95300  0.51480  Biso   1.000  H
  H128     1.0000 0.62480  0.04700  0.01480  Biso   1.000  H
  C85      1.0000 0.53150  0.56240  0.44050  Biso   1.000  C
  C86      1.0000 0.96850  0.43760  0.94050  Biso   1.000  C
  C87      1.0000 0.03150  0.93760  0.55950  Biso   1.000  C
  C88      1.0000 0.46850  0.06240  0.05950  Biso   1.000  C
  H129     1.0000 0.51130  0.60240  0.40340  Biso   1.000  H
  H130     1.0000 0.98870  0.39760  0.90340  Biso   1.000  H
  H131     1.0000 0.01130  0.89760  0.59660  Biso   1.000  H
  H132     1.0000 0.48870  0.10240  0.09660  Biso   1.000  H
  H133     1.0000 0.59060  0.52380  0.42420  Biso   1.000  H
  H134     1.0000 0.90940  0.47620  0.92420  Biso   1.000  H
  H135     1.0000 0.09060  0.97620  0.57580  Biso   1.000  H
  H136     1.0000 0.40940  0.02380  0.07580  Biso   1.000  H
  H137     1.0000 0.55810  0.59490  0.48060  Biso   1.000  H
  H138     1.0000 0.94190  0.40510  0.98060  Biso   1.000  H
  H139     1.0000 0.05810  0.90510  0.51940  Biso   1.000  H
  H140     1.0000 0.44190  0.09490  0.01940  Biso   1.000  H
  C89      1.0000 0.49920  0.33880  0.39960  Biso   1.000  C
  C90      1.0000 0.00080  0.66120  0.89960  Biso   1.000  C
  C91      1.0000 0.99920  0.16120  0.60040  Biso   1.000  C
  C92      1.0000 0.50080  0.83880  0.10040  Biso   1.000  C
  H141     1.0000 0.47790  0.27790  0.40670  Biso   1.000  H
  H142     1.0000 0.02210  0.72210  0.90670  Biso   1.000  H
  H143     1.0000 0.97790  0.22210  0.59330  Biso   1.000  H
  H144     1.0000 0.52210  0.77790  0.09330  Biso   1.000  H
  H145     1.0000 0.52150  0.36290  0.44490  Biso   1.000  H
  H146     1.0000 0.97850  0.63710  0.94490  Biso   1.000  H
  H147     1.0000 0.02150  0.13710  0.55510  Biso   1.000  H
  H148     1.0000 0.47850  0.86290  0.05510  Biso   1.000  H
  C93      1.0000 0.59740  0.34310  0.35040  Biso   1.000  C
  C94      1.0000 0.90260  0.65690  0.85040  Biso   1.000  C
  C95      1.0000 0.09740  0.15690  0.64960  Biso   1.000  C
  C96      1.0000 0.40260  0.84310  0.14960  Biso   1.000  C
  H149     1.0000 0.57840  0.31350  0.30730  Biso   1.000  H
  H150     1.0000 0.92160  0.68650  0.80730  Biso   1.000  H
  H151     1.0000 0.07840  0.18650  0.69270  Biso   1.000  H
  H152     1.0000 0.42160  0.81350  0.19270  Biso   1.000  H
  H153     1.0000 0.66210  0.31510  0.37160  Biso   1.000  H
  H154     1.0000 0.83790  0.68490  0.87160  Biso   1.000  H
  H155     1.0000 0.16210  0.18490  0.62840  Biso   1.000  H
  H156     1.0000 0.33790  0.81510  0.12840  Biso   1.000  H
  H157     1.0000 0.61520  0.40340  0.34060  Biso   1.000  H
  H158     1.0000 0.88480  0.59660  0.84060  Biso   1.000  H
  H159     1.0000 0.11520  0.09660  0.65940  Biso   1.000  H
  H160     1.0000 0.38480  0.90340  0.15940  Biso   1.000  H
  C97      1.0000 0.96190  0.40230  0.43090  Biso   1.000  C
  C98      1.0000 0.53810  0.59770  0.93090  Biso   1.000  C
  C99      1.0000 0.46190  0.09770  0.56910  Biso   1.000  C
  C100     1.0000 0.03810  0.90230  0.06910  Biso   1.000  C
  H161     1.0000 0.00140  0.43870  0.39760  Biso   1.000  H
  H162     1.0000 0.49860  0.56130  0.89760  Biso   1.000  H
  H163     1.0000 0.50140  0.06130  0.60240  Biso   1.000  H
  H164     1.0000 0.99860  0.93870  0.10240  Biso   1.000  H
  H165     1.0000 0.88610  0.42420  0.43740  Biso   1.000  H
  H166     1.0000 0.61390  0.57580  0.93740  Biso   1.000  H
  H167     1.0000 0.38610  0.07580  0.56260  Biso   1.000  H
  H168     1.0000 0.11390  0.92420  0.06260  Biso   1.000  H
  H169     1.0000 0.95870  0.34310  0.41340  Biso   1.000  H
  H170     1.0000 0.54130  0.65690  0.91340  Biso   1.000  H
  H171     1.0000 0.45870  0.15690  0.58660  Biso   1.000  H
  H172     1.0000 0.04130  0.84310  0.08660  Biso   1.000  H
  C101     1.0000 0.02230  0.40350  0.49840  Biso   1.000  C
  C102     1.0000 0.47770  0.59650  0.99840  Biso   1.000  C
  C103     1.0000 0.52230  0.09650  0.50160  Biso   1.000  C
  C104     1.0000 0.97770  0.90350  0.00160  Biso   1.000  C
  H173     1.0000 0.02460  0.46310  0.51660  Biso   1.000  H
  H174     1.0000 0.47540  0.53690  0.01660  Biso   1.000  H
  H175     1.0000 0.52460  0.03690  0.48340  Biso   1.000  H
  H176     1.0000 0.97540  0.96310  0.98340  Biso   1.000  H
  H177     1.0000 0.98240  0.36710  0.53230  Biso   1.000  H
  H178     1.0000 0.51760  0.63290  0.03230  Biso   1.000  H
  H179     1.0000 0.48240  0.13290  0.46770  Biso   1.000  H
  H180     1.0000 0.01760  0.86710  0.96770  Biso   1.000  H
  C105     1.0000 0.19460  0.37080  0.55390  Biso   1.000  C
  C106     1.0000 0.30540  0.62920  0.05390  Biso   1.000  C
  C107     1.0000 0.69460  0.12920  0.44610  Biso   1.000  C
  C108     1.0000 0.80540  0.87080  0.94610  Biso   1.000  C
  H181     1.0000 0.14560  0.35020  0.59160  Biso   1.000  H
  H182     1.0000 0.35440  0.64980  0.09160  Biso   1.000  H
  H183     1.0000 0.64560  0.14980  0.40840  Biso   1.000  H
  H184     1.0000 0.85440  0.85020  0.90840  Biso   1.000  H
  H185     1.0000 0.21930  0.42990  0.56550  Biso   1.000  H
  H186     1.0000 0.28070  0.57010  0.06550  Biso   1.000  H
  H187     1.0000 0.71930  0.07010  0.43450  Biso   1.000  H
  H188     1.0000 0.78070  0.92990  0.93450  Biso   1.000  H
  C109     1.0000 0.29120  0.31470  0.54840  Biso   1.000  C
  C110     1.0000 0.20880  0.68530  0.04840  Biso   1.000  C
  C111     1.0000 0.79120  0.18530  0.45160  Biso   1.000  C
  C112     1.0000 0.70880  0.81470  0.95160  Biso   1.000  C
  H189     1.0000 0.34000  0.33540  0.51130  Biso   1.000  H
  H190     1.0000 0.16000  0.66460  0.01130  Biso   1.000  H
  H191     1.0000 0.84000  0.16460  0.48870  Biso   1.000  H
  H192     1.0000 0.66000  0.83540  0.98870  Biso   1.000  H
  H193     1.0000 0.26670  0.25590  0.53780  Biso   1.000  H
  H194     1.0000 0.23330  0.74410  0.03780  Biso   1.000  H
  H195     1.0000 0.76670  0.24410  0.46220  Biso   1.000  H
  H196     1.0000 0.73330  0.75590  0.96220  Biso   1.000  H
  H197     1.0000 0.33220  0.31490  0.59220  Biso   1.000  H
  H198     1.0000 0.16780  0.68510  0.09220  Biso   1.000  H
  H199     1.0000 0.83220  0.18510  0.40780  Biso   1.000  H
  H200     1.0000 0.66780  0.81490  0.90780  Biso   1.000  H
  C113     1.0000 0.90360  0.28820  0.22480  Biso   1.000  C
  C114     1.0000 0.59640  0.71180  0.72480  Biso   1.000  C
  C115     1.0000 0.40360  0.21180  0.77520  Biso   1.000  C
  C116     1.0000 0.09640  0.78820  0.27520  Biso   1.000  C
  H201     1.0000 0.90680  0.28450  0.27590  Biso   1.000  H
  H202     1.0000 0.59320  0.71550  0.77590  Biso   1.000  H
  H203     1.0000 0.40680  0.21550  0.72410  Biso   1.000  H
  H204     1.0000 0.09320  0.78450  0.22410  Biso   1.000  H
  H205     1.0000 0.91840  0.23040  0.20530  Biso   1.000  H
  H206     1.0000 0.58160  0.76960  0.70530  Biso   1.000  H
  H207     1.0000 0.41840  0.26960  0.79470  Biso   1.000  H
  H208     1.0000 0.08160  0.73040  0.29470  Biso   1.000  H
  C117     1.0000 0.79240  0.32050  0.20190  Biso   1.000  C
  C118     1.0000 0.70760  0.67950  0.70190  Biso   1.000  C
  C119     1.0000 0.29240  0.17950  0.79810  Biso   1.000  C
  C120     1.0000 0.20760  0.82050  0.29810  Biso   1.000  C
  H209     1.0000 0.73930  0.27260  0.19480  Biso   1.000  H
  H210     1.0000 0.76070  0.72740  0.69480  Biso   1.000  H
  H211     1.0000 0.23930  0.22740  0.80520  Biso   1.000  H
  H212     1.0000 0.26070  0.77260  0.30520  Biso   1.000  H
  H213     1.0000 0.76070  0.36170  0.23560  Biso   1.000  H
  H214     1.0000 0.73930  0.63830  0.73560  Biso   1.000  H
  H215     1.0000 0.26070  0.13830  0.76440  Biso   1.000  H
  H216     1.0000 0.23930  0.86170  0.26440  Biso   1.000  H
  C121     1.0000 0.82030  0.36400  0.13540  Biso   1.000  C
  C122     1.0000 0.67970  0.63600  0.63540  Biso   1.000  C
  C123     1.0000 0.32030  0.13600  0.86460  Biso   1.000  C
  C124     1.0000 0.17970  0.86400  0.36460  Biso   1.000  C
  H217     1.0000 0.76390  0.40800  0.12350  Biso   1.000  H
  H218     1.0000 0.73610  0.59200  0.62350  Biso   1.000  H
  H219     1.0000 0.26390  0.09200  0.87650  Biso   1.000  H
  H220     1.0000 0.23610  0.90800  0.37650  Biso   1.000  H
  H221     1.0000 0.82530  0.32180  0.09710  Biso   1.000  H
  H222     1.0000 0.67470  0.67820  0.59710  Biso   1.000  H
  H223     1.0000 0.32530  0.17820  0.90290  Biso   1.000  H
  H224     1.0000 0.17470  0.82180  0.40290  Biso   1.000  H
  C125     1.0000 0.93230  0.40490  0.14950  Biso   1.000  C
  C126     1.0000 0.56770  0.59510  0.64950  Biso   1.000  C
  C127     1.0000 0.43230  0.09510  0.85050  Biso   1.000  C
  C128     1.0000 0.06770  0.90490  0.35050  Biso   1.000  C
  H225     1.0000 0.97750  0.40770  0.10680  Biso   1.000  H
  H226     1.0000 0.52250  0.59230  0.60680  Biso   1.000  H
  H227     1.0000 0.47750  0.09230  0.89320  Biso   1.000  H
  H228     1.0000 0.02250  0.90770  0.39320  Biso   1.000  H
  H229     1.0000 0.92310  0.46380  0.16810  Biso   1.000  H
  H230     1.0000 0.57690  0.53620  0.66810  Biso   1.000  H
  H231     1.0000 0.42310  0.03620  0.83190  Biso   1.000  H
  H232     1.0000 0.07690  0.96380  0.33190  Biso   1.000  H
  Li1      1.0000 0.13550  0.34480  0.22920  Biso   1.000  Li
  Li2      1.0000 0.36450  0.65520  0.72920  Biso   1.000  Li
  Li3      1.0000 0.63550  0.15520  0.77080  Biso   1.000  Li
  Li4      1.0000 0.86450  0.84480  0.27080  Biso   1.000  Li
  Li5      1.0000 0.38330  0.22140  0.25930  Biso   1.000  Li
  Li6      1.0000 0.11670  0.77860  0.75930  Biso   1.000  Li
  Li7      1.0000 0.88330  0.27860  0.74070  Biso   1.000  Li
  Li8      1.0000 0.61670  0.72140  0.24070  Biso   1.000  Li
  Li9      1.0000 0.21700  0.38040  0.40500  Biso   1.000  Li
  Li10     1.0000 0.28300  0.61960  0.90500  Biso   1.000  Li
  Li11     1.0000 0.71700  0.11960  0.59500  Biso   1.000  Li
  Li12     1.0000 0.78300  0.88040  0.09500  Biso   1.000  Li
  Li13     1.0000 0.40280  0.48180  0.28220  Biso   1.000  Li
  Li14     1.0000 0.09720  0.51820  0.78220  Biso   1.000  Li
  Li15     1.0000 0.90280  0.01820  0.71780  Biso   1.000  Li
  Li16     1.0000 0.59720  0.98180  0.21780  Biso   1.000  Li
