data_image0
_cell_length_a       8.7843
_cell_length_b       9.0024
_cell_length_c       10.0774
_cell_angle_alpha    97.545
_cell_angle_beta     99.046
_cell_angle_gamma    95.542

_symmetry_space_group_name_H-M    "P 1"
_symmetry_int_tables_number       1

loop_
  _symmetry_equiv_pos_as_xyz
  'x, y, z'

loop_
  _atom_site_label
  _atom_site_occupancy
  _atom_site_fract_x
  _atom_site_fract_y
  _atom_site_fract_z
  _atom_site_thermal_displace_type
  _atom_site_B_iso_or_equiv
  _atom_site_type_symbol
  Cu1      1.0000 0.38837  0.58741  0.51112  Biso   1.000  Cu
  Cu2      1.0000 0.61163  0.41259  0.48888  Biso   1.000  Cu
  I1       1.0000 0.33220  0.32986  0.34692  Biso   1.000  I
  I2       1.0000 0.66780  0.67014  0.65308  Biso   1.000  I
  S1       1.0000 0.20966  0.57680  0.65915  Biso   1.000  S
  S2       1.0000 0.79034  0.42320  0.34085  Biso   1.000  S
  N1       1.0000 0.30573  0.78933  0.46713  Biso   1.000  N
  N2       1.0000 0.69427  0.21067  0.53287  Biso   1.000  N
  C1       1.0000 0.02706  0.47265  0.56664  Biso   1.000  C
  C2       1.0000 0.97294  0.52735  0.43336  Biso   1.000  C
  H1       1.0000 0.04020  0.36430  0.54840  Biso   1.000  H
  H2       1.0000 0.95980  0.63570  0.45160  Biso   1.000  H
  H3       1.0000 0.94610  0.48270  0.62430  Biso   1.000  H
  H4       1.0000 0.05390  0.51730  0.37570  Biso   1.000  H
  C3       1.0000 0.17330  0.76779  0.66209  Biso   1.000  C
  C4       1.0000 0.82670  0.23221  0.33791  Biso   1.000  C
  C5       1.0000 0.09543  0.83078  0.76195  Biso   1.000  C
  C6       1.0000 0.90457  0.16922  0.23805  Biso   1.000  C
  H5       1.0000 0.05490  0.76910  0.82090  Biso   1.000  H
  H6       1.0000 0.94510  0.23090  0.17910  Biso   1.000  H
  C7       1.0000 0.07673  0.98316  0.77572  Biso   1.000  C
  C8       1.0000 0.92327  0.01684  0.22428  Biso   1.000  C
  H7       1.0000 0.02180  0.02550  0.84260  Biso   1.000  H
  H8       1.0000 0.97820  0.97450  0.15740  Biso   1.000  H
  C9       1.0000 0.13892  0.07308  0.69112  Biso   1.000  C
  C10      1.0000 0.86108  0.92692  0.30888  Biso   1.000  C
  H9       1.0000 0.12910  0.17800  0.70220  Biso   1.000  H
  H10      1.0000 0.87090  0.82200  0.29780  Biso   1.000  H
  C11      1.0000 0.21525  0.01162  0.59057  Biso   1.000  C
  C12      1.0000 0.78475  0.98838  0.40943  Biso   1.000  C
  H11      1.0000 0.25790  0.07490  0.53390  Biso   1.000  H
  H12      1.0000 0.74210  0.92510  0.46610  Biso   1.000  H
  C13      1.0000 0.23010  0.85700  0.57175  Biso   1.000  C
  C14      1.0000 0.76990  0.14300  0.42825  Biso   1.000  C
  C15      1.0000 0.30193  0.85308  0.35922  Biso   1.000  C
  C16      1.0000 0.69807  0.14692  0.64078  Biso   1.000  C
  H13      1.0000 0.24400  0.93660  0.35400  Biso   1.000  H
  H14      1.0000 0.75600  0.06340  0.64600  Biso   1.000  H
  C17      1.0000 0.37885  0.80790  0.24467  Biso   1.000  C
  C18      1.0000 0.62115  0.19210  0.75533  Biso   1.000  C
  C19      1.0000 0.34354  0.87732  0.12888  Biso   1.000  C
  C20      1.0000 0.65646  0.12268  0.87112  Biso   1.000  C
  H15      1.0000 0.27430  0.95210  0.12850  Biso   1.000  H
  H16      1.0000 0.72570  0.04790  0.87150  Biso   1.000  H
  C21      1.0000 0.40937  0.83729  0.01460  Biso   1.000  C
  C22      1.0000 0.59063  0.16271  0.98540  Biso   1.000  C
  H17      1.0000 0.38390  0.88370  0.93590  Biso   1.000  H
  H18      1.0000 0.61610  0.11630  0.06410  Biso   1.000  H
  C23      1.0000 0.51220  0.72970  0.01517  Biso   1.000  C
  C24      1.0000 0.48780  0.27030  0.98483  Biso   1.000  C
  H19      1.0000 0.55630  0.70170  0.93670  Biso   1.000  H
  H20      1.0000 0.44370  0.29830  0.06330  Biso   1.000  H
  C25      1.0000 0.55072  0.66276  0.13099  Biso   1.000  C
  C26      1.0000 0.44928  0.33724  0.86901  Biso   1.000  C
  H21      1.0000 0.62230  0.59010  0.13180  Biso   1.000  H
  H22      1.0000 0.37770  0.40990  0.86820  Biso   1.000  H
  C27      1.0000 0.48491  0.70180  0.24509  Biso   1.000  C
  C28      1.0000 0.51509  0.29820  0.75491  Biso   1.000  C
  H23      1.0000 0.51210  0.65620  0.32400  Biso   1.000  H
  H24      1.0000 0.48790  0.34380  0.67600  Biso   1.000  H
  C29      1.0000 0.88730  0.47670  0.96790  Biso   1.000  C
  C30      1.0000 0.11270  0.52330  0.03210  Biso   1.000  C
  H25      1.0000 0.82910  0.50120  0.88280  Biso   1.000  H
  H26      1.0000 0.17090  0.49880  0.11720  Biso   1.000  H
  H27      1.0000 0.81230  0.42390  0.01490  Biso   1.000  H
  H28      1.0000 0.18770  0.57610  0.98510  Biso   1.000  H
  Cl1      1.0000 0.97463  0.64344  0.07140  Biso   1.000  Cl
  Cl2      1.0000 0.02537  0.35656  0.92860  Biso   1.000  Cl
