data_image0
_cell_length_a       13.166
_cell_length_b       6.847
_cell_length_c       19.7
_cell_angle_alpha    90
_cell_angle_beta     90
_cell_angle_gamma    90

_symmetry_space_group_name_H-M    "P 1"
_symmetry_int_tables_number       1

loop_
  _symmetry_equiv_pos_as_xyz
  'x, y, z'

loop_
  _atom_site_label
  _atom_site_occupancy
  _atom_site_fract_x
  _atom_site_fract_y
  _atom_site_fract_z
  _atom_site_thermal_displace_type
  _atom_site_B_iso_or_equiv
  _atom_site_type_symbol
  C1       1.0000 0.36620  0.68540  0.19850  Biso   1.000  C
  C2       1.0000 0.13380  0.81460  0.69850  Biso   1.000  C
  C3       1.0000 0.63380  0.68540  0.30150  Biso   1.000  C
  C4       1.0000 0.86620  0.81460  0.80150  Biso   1.000  C
  C5       1.0000 0.63380  0.31460  0.80150  Biso   1.000  C
  C6       1.0000 0.86620  0.18540  0.30150  Biso   1.000  C
  C7       1.0000 0.36620  0.31460  0.69850  Biso   1.000  C
  C8       1.0000 0.13380  0.18540  0.19850  Biso   1.000  C
  H1       1.0000 0.43140  0.70650  0.21500  Biso   1.000  H
  H2       1.0000 0.06860  0.79350  0.71500  Biso   1.000  H
  H3       1.0000 0.56860  0.70650  0.28500  Biso   1.000  H
  H4       1.0000 0.93140  0.79350  0.78500  Biso   1.000  H
  H5       1.0000 0.56860  0.29350  0.78500  Biso   1.000  H
  H6       1.0000 0.93140  0.20650  0.28500  Biso   1.000  H
  H7       1.0000 0.43140  0.29350  0.71500  Biso   1.000  H
  H8       1.0000 0.06860  0.20650  0.21500  Biso   1.000  H
  C9       1.0000 0.28400  0.72400  0.24090  Biso   1.000  C
  C10      1.0000 0.21600  0.77600  0.74090  Biso   1.000  C
  C11      1.0000 0.71600  0.72400  0.25910  Biso   1.000  C
  C12      1.0000 0.78400  0.77600  0.75910  Biso   1.000  C
  C13      1.0000 0.71600  0.27600  0.75910  Biso   1.000  C
  C14      1.0000 0.78400  0.22400  0.25910  Biso   1.000  C
  C15      1.0000 0.28400  0.27600  0.74090  Biso   1.000  C
  C16      1.0000 0.21600  0.22400  0.24090  Biso   1.000  C
  C17      1.0000 0.18630  0.70340  0.21490  Biso   1.000  C
  C18      1.0000 0.31370  0.79660  0.71490  Biso   1.000  C
  C19      1.0000 0.81370  0.70340  0.28510  Biso   1.000  C
  C20      1.0000 0.68630  0.79660  0.78510  Biso   1.000  C
  C21      1.0000 0.81370  0.29660  0.78510  Biso   1.000  C
  C22      1.0000 0.68630  0.20340  0.28510  Biso   1.000  C
  C23      1.0000 0.18630  0.29660  0.71490  Biso   1.000  C
  C24      1.0000 0.31370  0.20340  0.21490  Biso   1.000  C
  H9       1.0000 0.12990  0.73200  0.24160  Biso   1.000  H
  H10      1.0000 0.37010  0.76800  0.74160  Biso   1.000  H
  H11      1.0000 0.87010  0.73200  0.25840  Biso   1.000  H
  H12      1.0000 0.62990  0.76800  0.75840  Biso   1.000  H
  H13      1.0000 0.87010  0.26800  0.75840  Biso   1.000  H
  H14      1.0000 0.62990  0.23200  0.25840  Biso   1.000  H
  H15      1.0000 0.12990  0.26800  0.74160  Biso   1.000  H
  H16      1.0000 0.37010  0.23200  0.24160  Biso   1.000  H
  C25      1.0000 0.17460  0.63980  0.14890  Biso   1.000  C
  C26      1.0000 0.32540  0.86020  0.64890  Biso   1.000  C
  C27      1.0000 0.82540  0.63980  0.35110  Biso   1.000  C
  C28      1.0000 0.67460  0.86020  0.85110  Biso   1.000  C
  C29      1.0000 0.82540  0.36020  0.85110  Biso   1.000  C
  C30      1.0000 0.67460  0.13980  0.35110  Biso   1.000  C
  C31      1.0000 0.17460  0.36020  0.64890  Biso   1.000  C
  C32      1.0000 0.32540  0.13980  0.14890  Biso   1.000  C
  C33      1.0000 0.26110  0.59730  0.11090  Biso   1.000  C
  C34      1.0000 0.23890  0.90270  0.61090  Biso   1.000  C
  C35      1.0000 0.73890  0.59730  0.38910  Biso   1.000  C
  C36      1.0000 0.76110  0.90270  0.88910  Biso   1.000  C
  C37      1.0000 0.73890  0.40270  0.88910  Biso   1.000  C
  C38      1.0000 0.76110  0.09730  0.38910  Biso   1.000  C
  C39      1.0000 0.26110  0.40270  0.61090  Biso   1.000  C
  C40      1.0000 0.23890  0.09730  0.11090  Biso   1.000  C
  H17      1.0000 0.25280  0.55150  0.06680  Biso   1.000  H
  H18      1.0000 0.24720  0.94850  0.56680  Biso   1.000  H
  H19      1.0000 0.74720  0.55150  0.43320  Biso   1.000  H
  H20      1.0000 0.75280  0.94850  0.93320  Biso   1.000  H
  H21      1.0000 0.74720  0.44850  0.93320  Biso   1.000  H
  H22      1.0000 0.75280  0.05150  0.43320  Biso   1.000  H
  H23      1.0000 0.25280  0.44850  0.56680  Biso   1.000  H
  H24      1.0000 0.24720  0.05150  0.06680  Biso   1.000  H
  C41      1.0000 0.07180  0.61810  0.11700  Biso   1.000  C
  C42      1.0000 0.42820  0.88190  0.61700  Biso   1.000  C
  C43      1.0000 0.92820  0.61810  0.38300  Biso   1.000  C
  C44      1.0000 0.57180  0.88190  0.88300  Biso   1.000  C
  C45      1.0000 0.92820  0.38190  0.88300  Biso   1.000  C
  C46      1.0000 0.57180  0.11810  0.38300  Biso   1.000  C
  C47      1.0000 0.07180  0.38190  0.61700  Biso   1.000  C
  C48      1.0000 0.42820  0.11810  0.11700  Biso   1.000  C
  C49      1.0000 0.30100  0.80410  0.31070  Biso   1.000  C
  C50      1.0000 0.19900  0.69590  0.81070  Biso   1.000  C
  C51      1.0000 0.69900  0.80410  0.18930  Biso   1.000  C
  C52      1.0000 0.80100  0.69590  0.68930  Biso   1.000  C
  C53      1.0000 0.69900  0.19590  0.68930  Biso   1.000  C
  C54      1.0000 0.80100  0.30410  0.18930  Biso   1.000  C
  C55      1.0000 0.30100  0.19590  0.81070  Biso   1.000  C
  C56      1.0000 0.19900  0.30410  0.31070  Biso   1.000  C
  Cl1      1.0000 0.61923  0.60660  0.02797  Biso   1.000  Cl
  Cl2      1.0000 0.88077  0.89340  0.52797  Biso   1.000  Cl
  Cl3      1.0000 0.38077  0.60660  0.47203  Biso   1.000  Cl
  Cl4      1.0000 0.11923  0.89340  0.97203  Biso   1.000  Cl
  Cl5      1.0000 0.38077  0.39340  0.97203  Biso   1.000  Cl
  Cl6      1.0000 0.11923  0.10660  0.47203  Biso   1.000  Cl
  Cl7      1.0000 0.61923  0.39340  0.52797  Biso   1.000  Cl
  Cl8      1.0000 0.88077  0.10660  0.02797  Biso   1.000  Cl
  Cu1      1.0000 0.47361  0.57058  0.07862  Biso   1.000  Cu
  Cu2      1.0000 0.02639  0.92942  0.57862  Biso   1.000  Cu
  Cu3      1.0000 0.52639  0.57058  0.42138  Biso   1.000  Cu
  Cu4      1.0000 0.97361  0.92942  0.92138  Biso   1.000  Cu
  Cu5      1.0000 0.52639  0.42942  0.92138  Biso   1.000  Cu
  Cu6      1.0000 0.97361  0.07058  0.42138  Biso   1.000  Cu
  Cu7      1.0000 0.47361  0.42942  0.57862  Biso   1.000  Cu
  Cu8      1.0000 0.02639  0.07058  0.07862  Biso   1.000  Cu
  N1       1.0000 0.35510  0.61910  0.13470  Biso   1.000  N
  N2       1.0000 0.14490  0.88090  0.63470  Biso   1.000  N
  N3       1.0000 0.64490  0.61910  0.36530  Biso   1.000  N
  N4       1.0000 0.85510  0.88090  0.86530  Biso   1.000  N
  N5       1.0000 0.64490  0.38090  0.86530  Biso   1.000  N
  N6       1.0000 0.85510  0.11910  0.36530  Biso   1.000  N
  N7       1.0000 0.35510  0.38090  0.63470  Biso   1.000  N
  N8       1.0000 0.14490  0.11910  0.13470  Biso   1.000  N
  O1       1.0000 0.00050  0.72420  0.13968  Biso   1.000  O
  O2       1.0000 0.49950  0.77580  0.63968  Biso   1.000  O
  O3       1.0000 0.99950  0.72420  0.36032  Biso   1.000  O
  O4       1.0000 0.50050  0.77580  0.86032  Biso   1.000  O
  O5       1.0000 0.99950  0.27580  0.86032  Biso   1.000  O
  O6       1.0000 0.50050  0.22420  0.36032  Biso   1.000  O
  O7       1.0000 0.00050  0.27580  0.63968  Biso   1.000  O
  O8       1.0000 0.49950  0.22420  0.13968  Biso   1.000  O
  O9       1.0000 0.05910  0.49620  0.06988  Biso   1.000  O
  O10      1.0000 0.44090  0.00380  0.56988  Biso   1.000  O
  O11      1.0000 0.94090  0.49620  0.43012  Biso   1.000  O
  O12      1.0000 0.55910  0.00380  0.93012  Biso   1.000  O
  O13      1.0000 0.94090  0.50380  0.93012  Biso   1.000  O
  O14      1.0000 0.55910  0.99620  0.43012  Biso   1.000  O
  O15      1.0000 0.05910  0.50380  0.56988  Biso   1.000  O
  O16      1.0000 0.44090  0.99620  0.06988  Biso   1.000  O
  O17      1.0000 0.22820  0.81190  0.35160  Biso   1.000  O
  O18      1.0000 0.27180  0.68810  0.85160  Biso   1.000  O
  O19      1.0000 0.77180  0.81190  0.14840  Biso   1.000  O
  O20      1.0000 0.72820  0.68810  0.64840  Biso   1.000  O
  O21      1.0000 0.77180  0.18810  0.64840  Biso   1.000  O
  O22      1.0000 0.72820  0.31190  0.14840  Biso   1.000  O
  O23      1.0000 0.22820  0.18810  0.85160  Biso   1.000  O
  O24      1.0000 0.27180  0.31190  0.35160  Biso   1.000  O
  O25      1.0000 0.38850  0.87280  0.32351  Biso   1.000  O
  O26      1.0000 0.11150  0.62720  0.82351  Biso   1.000  O
  O27      1.0000 0.61150  0.87280  0.17649  Biso   1.000  O
  O28      1.0000 0.88850  0.62720  0.67649  Biso   1.000  O
  O29      1.0000 0.61150  0.12720  0.67649  Biso   1.000  O
  O30      1.0000 0.88850  0.37280  0.17649  Biso   1.000  O
  O31      1.0000 0.38850  0.12720  0.82351  Biso   1.000  O
  O32      1.0000 0.11150  0.37280  0.32351  Biso   1.000  O
  Pb1      1.0000 0.36815  0.05509  0.42453  Biso   1.000  Pb
  Pb2      1.0000 0.13185  0.44491  0.92453  Biso   1.000  Pb
  Pb3      1.0000 0.63185  0.05509  0.07547  Biso   1.000  Pb
  Pb4      1.0000 0.86815  0.44491  0.57547  Biso   1.000  Pb
  Pb5      1.0000 0.63185  0.94491  0.57547  Biso   1.000  Pb
  Pb6      1.0000 0.86815  0.55509  0.07547  Biso   1.000  Pb
  Pb7      1.0000 0.36815  0.94491  0.92453  Biso   1.000  Pb
  Pb8      1.0000 0.13185  0.55509  0.42453  Biso   1.000  Pb
