data_image0
_cell_length_a       7.778
_cell_length_b       7.996
_cell_length_c       8.223
_cell_angle_alpha    117.415
_cell_angle_beta     91.385
_cell_angle_gamma    109.241

_symmetry_space_group_name_H-M    "P 1"
_symmetry_int_tables_number       1

loop_
  _symmetry_equiv_pos_as_xyz
  'x, y, z'

loop_
  _atom_site_label
  _atom_site_occupancy
  _atom_site_fract_x
  _atom_site_fract_y
  _atom_site_fract_z
  _atom_site_thermal_displace_type
  _atom_site_B_iso_or_equiv
  _atom_site_type_symbol
  I1       1.0000 0.14484  0.54813  0.74759  Biso   1.000  I
  I2       1.0000 0.85516  0.45187  0.25241  Biso   1.000  I
  Cu1      1.0000 0.84965  0.59392  0.61873  Biso   1.000  Cu
  Cu2      1.0000 0.15035  0.40608  0.38127  Biso   1.000  Cu
  N1       1.0000 0.90060  0.89580  0.75080  Biso   1.000  N
  N2       1.0000 0.09940  0.10420  0.24920  Biso   1.000  N
  N3       1.0000 0.38090  0.61170  0.36920  Biso   1.000  N
  N4       1.0000 0.61910  0.38830  0.63080  Biso   1.000  N
  C1       1.0000 0.83940  0.98910  0.68730  Biso   1.000  C
  C2       1.0000 0.16060  0.01090  0.31270  Biso   1.000  C
  H1       1.0000 0.89550  0.13050  0.74500  Biso   1.000  H
  H2       1.0000 0.10450  0.86950  0.25500  Biso   1.000  H
  C3       1.0000 0.68330  0.87900  0.52580  Biso   1.000  C
  C4       1.0000 0.31670  0.12100  0.47420  Biso   1.000  C
  C5       1.0000 0.04030  0.02250  0.92650  Biso   1.000  C
  C6       1.0000 0.95970  0.97750  0.07350  Biso   1.000  C
  H3       1.0000 0.07370  0.16570  0.96620  Biso   1.000  H
  H4       1.0000 0.92630  0.83430  0.03380  Biso   1.000  H
  H5       1.0000 0.15170  0.99260  0.90870  Biso   1.000  H
  H6       1.0000 0.84830  0.00740  0.09130  Biso   1.000  H
  C7       1.0000 0.68400  0.93420  0.38660  Biso   1.000  C
  C8       1.0000 0.31600  0.06580  0.61340  Biso   1.000  C
  H7       1.0000 0.78090  0.04630  0.39620  Biso   1.000  H
  H8       1.0000 0.21910  0.95370  0.60380  Biso   1.000  H
  C9       1.0000 0.53440  0.81490  0.23350  Biso   1.000  C
  C10      1.0000 0.46560  0.18510  0.76650  Biso   1.000  C
  H9       1.0000 0.53310  0.83940  0.13340  Biso   1.000  H
  H10      1.0000 0.46690  0.16060  0.86660  Biso   1.000  H
  C11      1.0000 0.52960  0.71960  0.51060  Biso   1.000  C
  C12      1.0000 0.47040  0.28040  0.48940  Biso   1.000  C
  H11      1.0000 0.52970  0.68530  0.60440  Biso   1.000  H
  H12      1.0000 0.47030  0.31470  0.39560  Biso   1.000  H
  C13      1.0000 0.38640  0.65790  0.23340  Biso   1.000  C
  C14      1.0000 0.61360  0.34210  0.76660  Biso   1.000  C
  H13      1.0000 0.28570  0.58120  0.13200  Biso   1.000  H
  H14      1.0000 0.71430  0.41880  0.86800  Biso   1.000  H
