data_image0
_cell_length_a       18.8666
_cell_length_b       8.9097
_cell_length_c       10.8706
_cell_angle_alpha    90
_cell_angle_beta     109.05
_cell_angle_gamma    90

_symmetry_space_group_name_H-M    "P 1"
_symmetry_int_tables_number       1

loop_
  _symmetry_equiv_pos_as_xyz
  'x, y, z'

loop_
  _atom_site_label
  _atom_site_occupancy
  _atom_site_fract_x
  _atom_site_fract_y
  _atom_site_fract_z
  _atom_site_thermal_displace_type
  _atom_site_B_iso_or_equiv
  _atom_site_type_symbol
  I1       1.0000 0.41758  0.15858  0.04199  Biso   1.000  I
  I2       1.0000 0.58242  0.15858  0.45801  Biso   1.000  I
  I3       1.0000 0.91758  0.65858  0.04199  Biso   1.000  I
  I4       1.0000 0.08242  0.65858  0.45801  Biso   1.000  I
  I5       1.0000 0.58242  0.84142  0.95801  Biso   1.000  I
  I6       1.0000 0.41758  0.84142  0.54199  Biso   1.000  I
  I7       1.0000 0.08242  0.34142  0.95801  Biso   1.000  I
  I8       1.0000 0.91758  0.34142  0.54199  Biso   1.000  I
  Cu1      1.0000 0.46879  0.88747  0.03588  Biso   1.000  Cu
  Cu2      1.0000 0.53121  0.88747  0.46412  Biso   1.000  Cu
  Cu3      1.0000 0.96879  0.38747  0.03588  Biso   1.000  Cu
  Cu4      1.0000 0.03121  0.38747  0.46412  Biso   1.000  Cu
  Cu5      1.0000 0.53121  0.11253  0.96412  Biso   1.000  Cu
  Cu6      1.0000 0.46879  0.11253  0.53588  Biso   1.000  Cu
  Cu7      1.0000 0.03121  0.61253  0.96412  Biso   1.000  Cu
  Cu8      1.0000 0.96879  0.61253  0.53588  Biso   1.000  Cu
  N1       1.0000 0.47226  0.74220  0.18957  Biso   1.000  N
  N2       1.0000 0.52774  0.74220  0.31043  Biso   1.000  N
  N3       1.0000 0.97226  0.24220  0.18957  Biso   1.000  N
  N4       1.0000 0.02774  0.24220  0.31043  Biso   1.000  N
  N5       1.0000 0.52774  0.25780  0.81043  Biso   1.000  N
  N6       1.0000 0.47226  0.25780  0.68957  Biso   1.000  N
  N7       1.0000 0.02774  0.75780  0.81043  Biso   1.000  N
  N8       1.0000 0.97226  0.75780  0.68957  Biso   1.000  N
  C1       1.0000 0.36032  0.65570  0.03870  Biso   1.000  C
  C2       1.0000 0.63968  0.65570  0.46130  Biso   1.000  C
  C3       1.0000 0.86032  0.15570  0.03870  Biso   1.000  C
  C4       1.0000 0.13968  0.15570  0.46130  Biso   1.000  C
  C5       1.0000 0.63968  0.34430  0.96130  Biso   1.000  C
  C6       1.0000 0.36032  0.34430  0.53870  Biso   1.000  C
  C7       1.0000 0.13968  0.84430  0.96130  Biso   1.000  C
  C8       1.0000 0.86032  0.84430  0.53870  Biso   1.000  C
  C9       1.0000 0.41781  0.64760  0.16950  Biso   1.000  C
  C10      1.0000 0.58219  0.64760  0.33050  Biso   1.000  C
  C11      1.0000 0.91781  0.14760  0.16950  Biso   1.000  C
  C12      1.0000 0.08219  0.14760  0.33050  Biso   1.000  C
  C13      1.0000 0.58219  0.35240  0.83050  Biso   1.000  C
  C14      1.0000 0.41781  0.35240  0.66950  Biso   1.000  C
  C15      1.0000 0.08219  0.85240  0.83050  Biso   1.000  C
  C16      1.0000 0.91781  0.85240  0.66950  Biso   1.000  C
  N9       1.0000 0.37479  0.75410  0.95567  Biso   1.000  N
  N10      1.0000 0.62521  0.75410  0.54433  Biso   1.000  N
  N11      1.0000 0.87479  0.25410  0.95567  Biso   1.000  N
  N12      1.0000 0.12521  0.25410  0.54433  Biso   1.000  N
  N13      1.0000 0.62521  0.24590  0.04433  Biso   1.000  N
  N14      1.0000 0.37479  0.24590  0.45567  Biso   1.000  N
  N15      1.0000 0.12521  0.74590  0.04433  Biso   1.000  N
  N16      1.0000 0.87479  0.74590  0.45567  Biso   1.000  N
  C17      1.0000 0.29467  0.57050  0.00280  Biso   1.000  C
  C18      1.0000 0.70533  0.57050  0.49720  Biso   1.000  C
  C19      1.0000 0.79467  0.07050  0.00280  Biso   1.000  C
  C20      1.0000 0.20533  0.07050  0.49720  Biso   1.000  C
  C21      1.0000 0.70533  0.42950  0.99720  Biso   1.000  C
  C22      1.0000 0.29467  0.42950  0.50280  Biso   1.000  C
  C23      1.0000 0.20533  0.92950  0.99720  Biso   1.000  C
  C24      1.0000 0.79467  0.92950  0.50280  Biso   1.000  C
  H1       1.0000 0.28620  0.50130  0.06060  Biso   1.000  H
  H2       1.0000 0.71380  0.50130  0.43940  Biso   1.000  H
  H3       1.0000 0.78620  0.00130  0.06060  Biso   1.000  H
  H4       1.0000 0.21380  0.00130  0.43940  Biso   1.000  H
  H5       1.0000 0.71380  0.49870  0.93940  Biso   1.000  H
  H6       1.0000 0.28620  0.49870  0.56060  Biso   1.000  H
  H7       1.0000 0.21380  0.99870  0.93940  Biso   1.000  H
  H8       1.0000 0.78620  0.99870  0.56060  Biso   1.000  H
  C25      1.0000 0.25715  0.69080  0.79540  Biso   1.000  C
  C26      1.0000 0.74285  0.69080  0.70460  Biso   1.000  C
  C27      1.0000 0.75715  0.19080  0.79540  Biso   1.000  C
  C28      1.0000 0.24285  0.19080  0.70460  Biso   1.000  C
  C29      1.0000 0.74285  0.30920  0.20460  Biso   1.000  C
  C30      1.0000 0.25715  0.30920  0.29540  Biso   1.000  C
  C31      1.0000 0.24285  0.80920  0.20460  Biso   1.000  C
  C32      1.0000 0.75715  0.80920  0.29540  Biso   1.000  C
  H9       1.0000 0.22280  0.70600  0.71280  Biso   1.000  H
  H10      1.0000 0.77720  0.70600  0.78720  Biso   1.000  H
  H11      1.0000 0.72280  0.20600  0.71280  Biso   1.000  H
  H12      1.0000 0.27720  0.20600  0.78720  Biso   1.000  H
  H13      1.0000 0.77720  0.29400  0.28720  Biso   1.000  H
  H14      1.0000 0.22280  0.29400  0.21280  Biso   1.000  H
  H15      1.0000 0.27720  0.79400  0.28720  Biso   1.000  H
  H16      1.0000 0.72280  0.79400  0.21280  Biso   1.000  H
  C33      1.0000 0.32495  0.76920  0.83690  Biso   1.000  C
  C34      1.0000 0.67505  0.76920  0.66310  Biso   1.000  C
  C35      1.0000 0.82495  0.26920  0.83690  Biso   1.000  C
  C36      1.0000 0.17505  0.26920  0.66310  Biso   1.000  C
  C37      1.0000 0.67505  0.23080  0.16310  Biso   1.000  C
  C38      1.0000 0.32495  0.23080  0.33690  Biso   1.000  C
  C39      1.0000 0.17505  0.73080  0.16310  Biso   1.000  C
  C40      1.0000 0.82495  0.73080  0.33690  Biso   1.000  C
  H17      1.0000 0.33580  0.83490  0.77900  Biso   1.000  H
  H18      1.0000 0.66420  0.83490  0.72100  Biso   1.000  H
  H19      1.0000 0.83580  0.33490  0.77900  Biso   1.000  H
  H20      1.0000 0.16420  0.33490  0.72100  Biso   1.000  H
  H21      1.0000 0.66420  0.16510  0.22100  Biso   1.000  H
  H22      1.0000 0.33580  0.16510  0.27900  Biso   1.000  H
  H23      1.0000 0.16420  0.66510  0.22100  Biso   1.000  H
  H24      1.0000 0.83580  0.66510  0.27900  Biso   1.000  H
  C41      1.0000 0.24251  0.58980  0.88110  Biso   1.000  C
  C42      1.0000 0.75749  0.58980  0.61890  Biso   1.000  C
  C43      1.0000 0.74251  0.08980  0.88110  Biso   1.000  C
  C44      1.0000 0.25749  0.08980  0.61890  Biso   1.000  C
  C45      1.0000 0.75749  0.41020  0.11890  Biso   1.000  C
  C46      1.0000 0.24251  0.41020  0.38110  Biso   1.000  C
  C47      1.0000 0.25749  0.91020  0.11890  Biso   1.000  C
  C48      1.0000 0.74251  0.91020  0.38110  Biso   1.000  C
  H25      1.0000 0.19790  0.53560  0.85660  Biso   1.000  H
  H26      1.0000 0.80210  0.53560  0.64340  Biso   1.000  H
  H27      1.0000 0.69790  0.03560  0.85660  Biso   1.000  H
  H28      1.0000 0.30210  0.03560  0.64340  Biso   1.000  H
  H29      1.0000 0.80210  0.46440  0.14340  Biso   1.000  H
  H30      1.0000 0.19790  0.46440  0.35660  Biso   1.000  H
  H31      1.0000 0.30210  0.96440  0.14340  Biso   1.000  H
  H32      1.0000 0.69790  0.96440  0.35660  Biso   1.000  H
  C49      1.0000 0.41082  0.53380  0.26600  Biso   1.000  C
  C50      1.0000 0.58918  0.53380  0.23400  Biso   1.000  C
  C51      1.0000 0.91082  0.03380  0.26600  Biso   1.000  C
  C52      1.0000 0.08918  0.03380  0.23400  Biso   1.000  C
  C53      1.0000 0.58918  0.46620  0.73400  Biso   1.000  C
  C54      1.0000 0.41082  0.46620  0.76600  Biso   1.000  C
  C55      1.0000 0.08918  0.96620  0.73400  Biso   1.000  C
  C56      1.0000 0.91082  0.96620  0.76600  Biso   1.000  C
  H33      1.0000 0.44710  0.55460  0.34950  Biso   1.000  H
  H34      1.0000 0.55290  0.55460  0.15050  Biso   1.000  H
  H35      1.0000 0.94710  0.05460  0.34950  Biso   1.000  H
  H36      1.0000 0.05290  0.05460  0.15050  Biso   1.000  H
  H37      1.0000 0.55290  0.44540  0.65050  Biso   1.000  H
  H38      1.0000 0.44710  0.44540  0.84950  Biso   1.000  H
  H39      1.0000 0.05290  0.94540  0.65050  Biso   1.000  H
  H40      1.0000 0.94710  0.94540  0.84950  Biso   1.000  H
  H41      1.0000 0.41950  0.43530  0.23800  Biso   1.000  H
  H42      1.0000 0.58050  0.43530  0.26200  Biso   1.000  H
  H43      1.0000 0.91950  0.93530  0.23800  Biso   1.000  H
  H44      1.0000 0.08050  0.93530  0.26200  Biso   1.000  H
  H45      1.0000 0.58050  0.56470  0.76200  Biso   1.000  H
  H46      1.0000 0.41950  0.56470  0.73800  Biso   1.000  H
  H47      1.0000 0.08050  0.06470  0.76200  Biso   1.000  H
  H48      1.0000 0.91950  0.06470  0.73800  Biso   1.000  H
  H49      1.0000 0.36130  0.53830  0.27250  Biso   1.000  H
  H50      1.0000 0.63870  0.53830  0.22750  Biso   1.000  H
  H51      1.0000 0.86130  0.03830  0.27250  Biso   1.000  H
  H52      1.0000 0.13870  0.03830  0.22750  Biso   1.000  H
  H53      1.0000 0.63870  0.46170  0.72750  Biso   1.000  H
  H54      1.0000 0.36130  0.46170  0.77250  Biso   1.000  H
  H55      1.0000 0.13870  0.96170  0.72750  Biso   1.000  H
  H56      1.0000 0.86130  0.96170  0.77250  Biso   1.000  H
