data_image0
_cell_length_a       9.789
_cell_length_b       13.647
_cell_length_c       13.969
_cell_angle_alpha    90
_cell_angle_beta     106.053
_cell_angle_gamma    90

_symmetry_space_group_name_H-M    "P 1"
_symmetry_int_tables_number       1

loop_
  _symmetry_equiv_pos_as_xyz
  'x, y, z'

loop_
  _atom_site_label
  _atom_site_occupancy
  _atom_site_fract_x
  _atom_site_fract_y
  _atom_site_fract_z
  _atom_site_thermal_displace_type
  _atom_site_B_iso_or_equiv
  _atom_site_type_symbol
  I1       1.0000 0.23537  0.89130  0.27040  Biso   1.000  I
  I2       1.0000 0.76463  0.89130  0.22960  Biso   1.000  I
  I3       1.0000 0.73537  0.39130  0.27040  Biso   1.000  I
  I4       1.0000 0.26463  0.39130  0.22960  Biso   1.000  I
  I5       1.0000 0.76463  0.10870  0.72960  Biso   1.000  I
  I6       1.0000 0.23537  0.10870  0.77040  Biso   1.000  I
  I7       1.0000 0.26463  0.60870  0.72960  Biso   1.000  I
  I8       1.0000 0.73537  0.60870  0.77040  Biso   1.000  I
  Cu1      1.0000 0.00000  0.79637  0.25000  Biso   1.000  Cu
  Cu2      1.0000 0.50000  0.29637  0.25000  Biso   1.000  Cu
  Cu3      1.0000 0.00000  0.20363  0.75000  Biso   1.000  Cu
  Cu4      1.0000 0.50000  0.70363  0.75000  Biso   1.000  Cu
  Cu5      1.0000 0.00000  0.99328  0.25000  Biso   1.000  Cu
  Cu6      1.0000 0.50000  0.49328  0.25000  Biso   1.000  Cu
  Cu7      1.0000 0.00000  0.00672  0.75000  Biso   1.000  Cu
  Cu8      1.0000 0.50000  0.50672  0.75000  Biso   1.000  Cu
  N1       1.0000 0.98560  0.09460  0.13580  Biso   1.000  N
  N2       1.0000 0.01440  0.09460  0.36420  Biso   1.000  N
  N3       1.0000 0.48560  0.59460  0.13580  Biso   1.000  N
  N4       1.0000 0.51440  0.59460  0.36420  Biso   1.000  N
  N5       1.0000 0.01440  0.90540  0.86420  Biso   1.000  N
  N6       1.0000 0.98560  0.90540  0.63580  Biso   1.000  N
  N7       1.0000 0.51440  0.40540  0.86420  Biso   1.000  N
  N8       1.0000 0.48560  0.40540  0.63580  Biso   1.000  N
  C1       1.0000 0.91190  0.17740  0.13290  Biso   1.000  C
  C2       1.0000 0.08810  0.17740  0.36710  Biso   1.000  C
  C3       1.0000 0.41190  0.67740  0.13290  Biso   1.000  C
  C4       1.0000 0.58810  0.67740  0.36710  Biso   1.000  C
  C5       1.0000 0.08810  0.82260  0.86710  Biso   1.000  C
  C6       1.0000 0.91190  0.82260  0.63290  Biso   1.000  C
  C7       1.0000 0.58810  0.32260  0.86710  Biso   1.000  C
  C8       1.0000 0.41190  0.32260  0.63290  Biso   1.000  C
  H1       1.0000 0.85290  0.18250  0.17460  Biso   1.000  H
  H2       1.0000 0.14710  0.18250  0.32540  Biso   1.000  H
  H3       1.0000 0.35290  0.68250  0.17460  Biso   1.000  H
  H4       1.0000 0.64710  0.68250  0.32540  Biso   1.000  H
  H5       1.0000 0.14710  0.81750  0.82540  Biso   1.000  H
  H6       1.0000 0.85290  0.81750  0.67460  Biso   1.000  H
  H7       1.0000 0.64710  0.31750  0.82540  Biso   1.000  H
  H8       1.0000 0.35290  0.31750  0.67460  Biso   1.000  H
  C9       1.0000 0.91750  0.25510  0.07240  Biso   1.000  C
  C10      1.0000 0.08250  0.25510  0.42760  Biso   1.000  C
  C11      1.0000 0.41750  0.75510  0.07240  Biso   1.000  C
  C12      1.0000 0.58250  0.75510  0.42760  Biso   1.000  C
  C13      1.0000 0.08250  0.74490  0.92760  Biso   1.000  C
  C14      1.0000 0.91750  0.74490  0.57240  Biso   1.000  C
  C15      1.0000 0.58250  0.24490  0.92760  Biso   1.000  C
  C16      1.0000 0.41750  0.24490  0.57240  Biso   1.000  C
  H9       1.0000 0.86820  0.31250  0.07650  Biso   1.000  H
  H10      1.0000 0.13180  0.31250  0.42350  Biso   1.000  H
  H11      1.0000 0.36820  0.81250  0.07650  Biso   1.000  H
  H12      1.0000 0.63180  0.81250  0.42350  Biso   1.000  H
  H13      1.0000 0.13180  0.68750  0.92350  Biso   1.000  H
  H14      1.0000 0.86820  0.68750  0.57650  Biso   1.000  H
  H15      1.0000 0.63180  0.18750  0.92350  Biso   1.000  H
  H16      1.0000 0.36820  0.18750  0.57650  Biso   1.000  H
  C17      1.0000 0.99770  0.24730  0.00490  Biso   1.000  C
  C18      1.0000 0.00230  0.24730  0.49510  Biso   1.000  C
  C19      1.0000 0.49770  0.74730  0.00490  Biso   1.000  C
  C20      1.0000 0.50230  0.74730  0.49510  Biso   1.000  C
  C21      1.0000 0.00230  0.75270  0.99510  Biso   1.000  C
  C22      1.0000 0.99770  0.75270  0.50490  Biso   1.000  C
  C23      1.0000 0.50230  0.25270  0.99510  Biso   1.000  C
  C24      1.0000 0.49770  0.25270  0.50490  Biso   1.000  C
  C25      1.0000 0.07190  0.16160  0.00520  Biso   1.000  C
  C26      1.0000 0.92810  0.16160  0.49480  Biso   1.000  C
  C27      1.0000 0.57190  0.66160  0.00520  Biso   1.000  C
  C28      1.0000 0.42810  0.66160  0.49480  Biso   1.000  C
  C29      1.0000 0.92810  0.83840  0.99480  Biso   1.000  C
  C30      1.0000 0.07190  0.83840  0.50520  Biso   1.000  C
  C31      1.0000 0.42810  0.33840  0.99480  Biso   1.000  C
  C32      1.0000 0.57190  0.33840  0.50520  Biso   1.000  C
  H17      1.0000 0.12630  0.15310  0.96070  Biso   1.000  H
  H18      1.0000 0.87370  0.15310  0.53930  Biso   1.000  H
  H19      1.0000 0.62630  0.65310  0.96070  Biso   1.000  H
  H20      1.0000 0.37370  0.65310  0.53930  Biso   1.000  H
  H21      1.0000 0.87370  0.84690  0.03930  Biso   1.000  H
  H22      1.0000 0.12630  0.84690  0.46070  Biso   1.000  H
  H23      1.0000 0.37370  0.34690  0.03930  Biso   1.000  H
  H24      1.0000 0.62630  0.34690  0.46070  Biso   1.000  H
  C33      1.0000 0.06550  0.08770  0.07240  Biso   1.000  C
  C34      1.0000 0.93450  0.08770  0.42760  Biso   1.000  C
  C35      1.0000 0.56550  0.58770  0.07240  Biso   1.000  C
  C36      1.0000 0.43450  0.58770  0.42760  Biso   1.000  C
  C37      1.0000 0.93450  0.91230  0.92760  Biso   1.000  C
  C38      1.0000 0.06550  0.91230  0.57240  Biso   1.000  C
  C39      1.0000 0.43450  0.41230  0.92760  Biso   1.000  C
  C40      1.0000 0.56550  0.41230  0.57240  Biso   1.000  C
  H25      1.0000 0.11900  0.03120  0.07320  Biso   1.000  H
  H26      1.0000 0.88100  0.03120  0.42680  Biso   1.000  H
  H27      1.0000 0.61900  0.53120  0.07320  Biso   1.000  H
  H28      1.0000 0.38100  0.53120  0.42680  Biso   1.000  H
  H29      1.0000 0.88100  0.96880  0.92680  Biso   1.000  H
  H30      1.0000 0.11900  0.96880  0.57320  Biso   1.000  H
  H31      1.0000 0.38100  0.46880  0.92680  Biso   1.000  H
  H32      1.0000 0.61900  0.46880  0.57320  Biso   1.000  H
  C41      1.0000 0.00860  0.32990  0.94010  Biso   1.000  C
  C42      1.0000 0.99140  0.32990  0.55990  Biso   1.000  C
  C43      1.0000 0.50860  0.82990  0.94010  Biso   1.000  C
  C44      1.0000 0.49140  0.82990  0.55990  Biso   1.000  C
  C45      1.0000 0.99140  0.67010  0.05990  Biso   1.000  C
  C46      1.0000 0.00860  0.67010  0.44010  Biso   1.000  C
  C47      1.0000 0.49140  0.17010  0.05990  Biso   1.000  C
  C48      1.0000 0.50860  0.17010  0.44010  Biso   1.000  C
  H33      1.0000 0.00100  0.39310  0.96320  Biso   1.000  H
  H34      1.0000 0.99900  0.39310  0.53680  Biso   1.000  H
  H35      1.0000 0.50100  0.89310  0.96320  Biso   1.000  H
  H36      1.0000 0.49900  0.89310  0.53680  Biso   1.000  H
  H37      1.0000 0.99900  0.60690  0.03680  Biso   1.000  H
  H38      1.0000 0.00100  0.60690  0.46320  Biso   1.000  H
  H39      1.0000 0.49900  0.10690  0.03680  Biso   1.000  H
  H40      1.0000 0.50100  0.10690  0.46320  Biso   1.000  H
  N9       1.0000 0.02760  0.31990  0.85490  Biso   1.000  N
  N10      1.0000 0.97240  0.31990  0.64510  Biso   1.000  N
  N11      1.0000 0.52760  0.81990  0.85490  Biso   1.000  N
  N12      1.0000 0.47240  0.81990  0.64510  Biso   1.000  N
  N13      1.0000 0.97240  0.68010  0.14510  Biso   1.000  N
  N14      1.0000 0.02760  0.68010  0.35490  Biso   1.000  N
  N15      1.0000 0.47240  0.18010  0.14510  Biso   1.000  N
  N16      1.0000 0.52760  0.18010  0.35490  Biso   1.000  N
  C49      1.0000 0.04850  0.40850  0.80170  Biso   1.000  C
  C50      1.0000 0.95150  0.40850  0.69830  Biso   1.000  C
  C51      1.0000 0.54850  0.90850  0.80170  Biso   1.000  C
  C52      1.0000 0.45150  0.90850  0.69830  Biso   1.000  C
  C53      1.0000 0.95150  0.59150  0.19830  Biso   1.000  C
  C54      1.0000 0.04850  0.59150  0.30170  Biso   1.000  C
  C55      1.0000 0.45150  0.09150  0.19830  Biso   1.000  C
  C56      1.0000 0.54850  0.09150  0.30170  Biso   1.000  C
  H41      1.0000 0.14640  0.41170  0.79920  Biso   1.000  H
  H42      1.0000 0.85360  0.41170  0.70080  Biso   1.000  H
  H43      1.0000 0.64640  0.91170  0.79920  Biso   1.000  H
  H44      1.0000 0.35360  0.91170  0.70080  Biso   1.000  H
  H45      1.0000 0.85360  0.58830  0.20080  Biso   1.000  H
  H46      1.0000 0.14640  0.58830  0.29920  Biso   1.000  H
  H47      1.0000 0.35360  0.08830  0.20080  Biso   1.000  H
  H48      1.0000 0.64640  0.08830  0.29920  Biso   1.000  H
  H49      1.0000 0.02980  0.46590  0.83730  Biso   1.000  H
  H50      1.0000 0.97020  0.46590  0.66270  Biso   1.000  H
  H51      1.0000 0.52980  0.96590  0.83730  Biso   1.000  H
  H52      1.0000 0.47020  0.96590  0.66270  Biso   1.000  H
  H53      1.0000 0.97020  0.53410  0.16270  Biso   1.000  H
  H54      1.0000 0.02980  0.53410  0.33730  Biso   1.000  H
  H55      1.0000 0.47020  0.03410  0.16270  Biso   1.000  H
  H56      1.0000 0.52980  0.03410  0.33730  Biso   1.000  H
