data_image0
_cell_length_a       8.643
_cell_length_b       10.663
_cell_length_c       15.891
_cell_angle_alpha    91.695
_cell_angle_beta     97.146
_cell_angle_gamma    104.419

_symmetry_space_group_name_H-M    "P 1"
_symmetry_int_tables_number       1

loop_
  _symmetry_equiv_pos_as_xyz
  'x, y, z'

loop_
  _atom_site_label
  _atom_site_occupancy
  _atom_site_fract_x
  _atom_site_fract_y
  _atom_site_fract_z
  _atom_site_thermal_displace_type
  _atom_site_B_iso_or_equiv
  _atom_site_type_symbol
  Cu1      1.0000 0.92426  0.99937  0.06486  Biso   1.000  Cu
  Cu2      1.0000 0.07574  0.00063  0.93514  Biso   1.000  Cu
  I1       1.0000 0.23989  0.02825  0.08813  Biso   1.000  I
  I2       1.0000 0.76011  0.97175  0.91187  Biso   1.000  I
  N1       1.0000 0.81610  0.85110  0.13600  Biso   1.000  N
  N2       1.0000 0.18390  0.14890  0.86400  Biso   1.000  N
  C1       1.0000 0.89070  0.76500  0.17070  Biso   1.000  C
  C2       1.0000 0.10930  0.23500  0.82930  Biso   1.000  C
  H1       1.0000 0.99130  0.76410  0.15590  Biso   1.000  H
  H2       1.0000 0.00870  0.23590  0.84410  Biso   1.000  H
  C3       1.0000 0.82600  0.67800  0.22700  Biso   1.000  C
  C4       1.0000 0.17400  0.32200  0.77300  Biso   1.000  C
  H3       1.0000 0.87980  0.61740  0.24760  Biso   1.000  H
  H4       1.0000 0.12020  0.38260  0.75240  Biso   1.000  H
  C5       1.0000 0.67960  0.68150  0.25269  Biso   1.000  C
  C6       1.0000 0.32040  0.31850  0.74731  Biso   1.000  C
  H5       1.0000 0.63560  0.62560  0.29230  Biso   1.000  H
  H6       1.0000 0.36440  0.37440  0.70770  Biso   1.000  H
  C7       1.0000 0.59970  0.76990  0.21841  Biso   1.000  C
  C8       1.0000 0.40030  0.23010  0.78159  Biso   1.000  C
  C9       1.0000 0.67200  0.84970  0.15923  Biso   1.000  C
  C10      1.0000 0.32800  0.15030  0.84077  Biso   1.000  C
  H7       1.0000 0.61650  0.90620  0.13400  Biso   1.000  H
  H8       1.0000 0.38350  0.09380  0.86600  Biso   1.000  H
  C11      1.0000 0.45140  0.79110  0.24410  Biso   1.000  C
  C12      1.0000 0.54860  0.20890  0.75590  Biso   1.000  C
  H9       1.0000 0.40080  0.84620  0.21350  Biso   1.000  H
  H10      1.0000 0.59920  0.15380  0.78650  Biso   1.000  H
  N3       1.0000 0.38790  0.73750  0.30665  Biso   1.000  N
  N4       1.0000 0.61210  0.26250  0.69335  Biso   1.000  N
  N5       1.0000 0.25320  0.78610  0.31973  Biso   1.000  N
  N6       1.0000 0.74680  0.21390  0.68027  Biso   1.000  N
  C13      1.0000 0.18430  0.74310  0.38317  Biso   1.000  C
  C14      1.0000 0.81570  0.25690  0.61683  Biso   1.000  C
  C15      1.0000 0.04950  0.79540  0.40415  Biso   1.000  C
  C16      1.0000 0.95050  0.20460  0.59585  Biso   1.000  C
  C17      1.0000 0.94030  0.72960  0.45547  Biso   1.000  C
  C18      1.0000 0.05970  0.27040  0.54453  Biso   1.000  C
  H11      1.0000 0.95520  0.65450  0.47980  Biso   1.000  H
  H12      1.0000 0.04480  0.34550  0.52020  Biso   1.000  H
  C19      1.0000 0.80990  0.77630  0.47020  Biso   1.000  C
  C20      1.0000 0.19010  0.22370  0.52980  Biso   1.000  C
  H13      1.0000 0.73620  0.73130  0.50360  Biso   1.000  H
  H14      1.0000 0.26380  0.26870  0.49640  Biso   1.000  H
  C21      1.0000 0.78820  0.88790  0.43620  Biso   1.000  C
  C22      1.0000 0.21180  0.11210  0.56380  Biso   1.000  C
  H15      1.0000 0.70000  0.91840  0.44640  Biso   1.000  H
  H16      1.0000 0.30000  0.08160  0.55360  Biso   1.000  H
  C23      1.0000 0.89640  0.95500  0.38690  Biso   1.000  C
  C24      1.0000 0.10360  0.04500  0.61310  Biso   1.000  C
  H17      1.0000 0.88200  0.03150  0.36450  Biso   1.000  H
  H18      1.0000 0.11800  0.96850  0.63550  Biso   1.000  H
  C25      1.0000 0.02660  0.90950  0.37040  Biso   1.000  C
  C26      1.0000 0.97340  0.09050  0.62960  Biso   1.000  C
  H19      1.0000 0.09910  0.95510  0.33660  Biso   1.000  H
  H20      1.0000 0.90090  0.04490  0.66340  Biso   1.000  H
  C27      1.0000 0.23740  0.64580  0.43929  Biso   1.000  C
  C28      1.0000 0.76260  0.35420  0.56071  Biso   1.000  C
  C29      1.0000 0.35290  0.69370  0.51683  Biso   1.000  C
  C30      1.0000 0.64710  0.30630  0.48317  Biso   1.000  C
  C31      1.0000 0.40280  0.82450  0.54090  Biso   1.000  C
  C32      1.0000 0.59720  0.17550  0.45910  Biso   1.000  C
  H21      1.0000 0.36670  0.88320  0.50640  Biso   1.000  H
  H22      1.0000 0.63330  0.11680  0.49360  Biso   1.000  H
  C33      1.0000 0.50590  0.86990  0.61550  Biso   1.000  C
  C34      1.0000 0.49410  0.13010  0.38450  Biso   1.000  C
  H23      1.0000 0.53720  0.95820  0.63130  Biso   1.000  H
  H24      1.0000 0.46280  0.04180  0.36870  Biso   1.000  H
  C35      1.0000 0.56120  0.78380  0.66570  Biso   1.000  C
  C36      1.0000 0.43880  0.21620  0.33430  Biso   1.000  C
  H25      1.0000 0.62990  0.81380  0.71600  Biso   1.000  H
  H26      1.0000 0.37010  0.18620  0.28400  Biso   1.000  H
  C37      1.0000 0.51620  0.65380  0.64250  Biso   1.000  C
  C38      1.0000 0.48380  0.34620  0.35750  Biso   1.000  C
  H27      1.0000 0.55600  0.59610  0.67630  Biso   1.000  H
  H28      1.0000 0.44400  0.40390  0.32370  Biso   1.000  H
  C39      1.0000 0.41170  0.60840  0.56887  Biso   1.000  C
  C40      1.0000 0.58830  0.39160  0.43113  Biso   1.000  C
  H29      1.0000 0.38020  0.51980  0.55390  Biso   1.000  H
  H30      1.0000 0.61980  0.48020  0.44610  Biso   1.000  H
  N7       1.0000 0.18340  0.52200  0.42436  Biso   1.000  N
  N8       1.0000 0.81660  0.47800  0.57564  Biso   1.000  N
  N9       1.0000 0.06430  0.48410  0.35303  Biso   1.000  N
  N10      1.0000 0.93570  0.51590  0.64697  Biso   1.000  N
  C41      1.0000 0.06170  0.37430  0.32053  Biso   1.000  C
  C42      1.0000 0.93830  0.62570  0.67947  Biso   1.000  C
  H31      1.0000 0.13860  0.33250  0.34280  Biso   1.000  H
  H32      1.0000 0.86140  0.66750  0.65720  Biso   1.000  H
  C43      1.0000 0.94180  0.31030  0.24887  Biso   1.000  C
  C44      1.0000 0.05820  0.68970  0.75113  Biso   1.000  C
  C45      1.0000 0.79270  0.33660  0.23160  Biso   1.000  C
  C46      1.0000 0.20730  0.66340  0.76840  Biso   1.000  C
  H33      1.0000 0.76350  0.39560  0.26680  Biso   1.000  H
  H34      1.0000 0.23650  0.60440  0.73320  Biso   1.000  H
  C47      1.0000 0.68840  0.27490  0.16230  Biso   1.000  C
  C48      1.0000 0.31160  0.72510  0.83770  Biso   1.000  C
  H35      1.0000 0.58820  0.29220  0.14940  Biso   1.000  H
  H36      1.0000 0.41180  0.70780  0.85060  Biso   1.000  H
  C49      1.0000 0.73400  0.18700  0.11190  Biso   1.000  C
  C50      1.0000 0.26600  0.81300  0.88810  Biso   1.000  C
  H37      1.0000 0.66350  0.14720  0.06410  Biso   1.000  H
  H38      1.0000 0.33650  0.85280  0.93590  Biso   1.000  H
  N11      1.0000 0.87460  0.15620  0.12839  Biso   1.000  N
  N12      1.0000 0.12540  0.84380  0.87161  Biso   1.000  N
  C51      1.0000 0.97460  0.21700  0.19690  Biso   1.000  C
  C52      1.0000 0.02540  0.78300  0.80310  Biso   1.000  C
  H39      1.0000 0.07190  0.19490  0.21020  Biso   1.000  H
  H40      1.0000 0.92810  0.80510  0.78980  Biso   1.000  H
