data_image0
_cell_length_a       10.0295
_cell_length_b       10.798
_cell_length_c       16.3919
_cell_angle_alpha    98.307
_cell_angle_beta     98.761
_cell_angle_gamma    116.814

_symmetry_space_group_name_H-M    "P 1"
_symmetry_int_tables_number       1

loop_
  _symmetry_equiv_pos_as_xyz
  'x, y, z'

loop_
  _atom_site_label
  _atom_site_occupancy
  _atom_site_fract_x
  _atom_site_fract_y
  _atom_site_fract_z
  _atom_site_thermal_displace_type
  _atom_site_B_iso_or_equiv
  _atom_site_type_symbol
  I1       1.0000 0.22817  0.64947  0.09882  Biso   1.000  I
  I2       1.0000 0.77183  0.35053  0.90118  Biso   1.000  I
  I3       1.0000 0.94216  0.79120  0.94905  Biso   1.000  I
  I4       1.0000 0.05784  0.20880  0.05095  Biso   1.000  I
  Cu1      1.0000 0.95030  0.59170  0.02498  Biso   1.000  Cu
  Cu2      1.0000 0.04970  0.40830  0.97502  Biso   1.000  Cu
  Cu3      1.0000 0.81380  0.94429  0.01657  Biso   1.000  Cu
  Cu4      1.0000 0.18620  0.05571  0.98343  Biso   1.000  Cu
  N1       1.0000 0.82570  0.55950  0.11560  Biso   1.000  N
  N2       1.0000 0.17430  0.44050  0.88440  Biso   1.000  N
  N3       1.0000 0.20050  0.09590  0.86690  Biso   1.000  N
  N4       1.0000 0.79950  0.90410  0.13310  Biso   1.000  N
  N5       1.0000 0.37390  0.09180  0.06890  Biso   1.000  N
  N6       1.0000 0.62610  0.90820  0.93110  Biso   1.000  N
  C1       1.0000 0.88040  0.55300  0.19390  Biso   1.000  C
  C2       1.0000 0.11960  0.44700  0.80610  Biso   1.000  C
  H1       1.0000 0.98290  0.57430  0.20940  Biso   1.000  H
  H2       1.0000 0.01710  0.42570  0.79060  Biso   1.000  H
  C3       1.0000 0.79300  0.51640  0.25270  Biso   1.000  C
  C4       1.0000 0.20700  0.48360  0.74730  Biso   1.000  C
  H3       1.0000 0.83680  0.51480  0.30650  Biso   1.000  H
  H4       1.0000 0.16320  0.48520  0.69350  Biso   1.000  H
  C5       1.0000 0.63970  0.48210  0.23050  Biso   1.000  C
  C6       1.0000 0.36030  0.51790  0.76950  Biso   1.000  C
  C7       1.0000 0.58180  0.48970  0.14970  Biso   1.000  C
  C8       1.0000 0.41820  0.51030  0.85030  Biso   1.000  C
  H5       1.0000 0.47940  0.46780  0.13240  Biso   1.000  H
  H6       1.0000 0.52060  0.53220  0.86760  Biso   1.000  H
  C9       1.0000 0.67790  0.52980  0.09560  Biso   1.000  C
  C10      1.0000 0.32210  0.47020  0.90440  Biso   1.000  C
  H7       1.0000 0.63820  0.53670  0.04240  Biso   1.000  H
  H8       1.0000 0.36180  0.46330  0.95760  Biso   1.000  H
  C11      1.0000 0.53870  0.43680  0.28580  Biso   1.000  C
  C12      1.0000 0.46130  0.56320  0.71420  Biso   1.000  C
  C13      1.0000 0.44380  0.39430  0.32560  Biso   1.000  C
  C14      1.0000 0.55620  0.60570  0.67440  Biso   1.000  C
  C15      1.0000 0.31580  0.33750  0.36280  Biso   1.000  C
  C16      1.0000 0.68420  0.66250  0.63720  Biso   1.000  C
  C17      1.0000 0.32850  0.30570  0.44210  Biso   1.000  C
  C18      1.0000 0.67150  0.69430  0.55790  Biso   1.000  C
  H9       1.0000 0.42310  0.32210  0.47310  Biso   1.000  H
  H10      1.0000 0.57690  0.67790  0.52690  Biso   1.000  H
  C19      1.0000 0.19890  0.24920  0.47480  Biso   1.000  C
  C20      1.0000 0.80110  0.75080  0.52520  Biso   1.000  C
  C21      1.0000 0.20670  0.21370  0.55610  Biso   1.000  C
  C22      1.0000 0.79330  0.78630  0.44390  Biso   1.000  C
  C23      1.0000 0.20480  0.18250  0.62290  Biso   1.000  C
  C24      1.0000 0.79520  0.81750  0.37710  Biso   1.000  C
  C25      1.0000 0.20280  0.15000  0.70470  Biso   1.000  C
  C26      1.0000 0.79720  0.85000  0.29530  Biso   1.000  C
  C27      1.0000 0.33440  0.16950  0.75900  Biso   1.000  C
  C28      1.0000 0.66560  0.83050  0.24100  Biso   1.000  C
  H11      1.0000 0.42670  0.20180  0.74240  Biso   1.000  H
  H12      1.0000 0.57330  0.79820  0.25760  Biso   1.000  H
  C29      1.0000 0.32730  0.14040  0.83820  Biso   1.000  C
  C30      1.0000 0.67270  0.85960  0.16180  Biso   1.000  C
  H13      1.0000 0.41650  0.15280  0.87350  Biso   1.000  H
  H14      1.0000 0.58350  0.84720  0.12650  Biso   1.000  H
  C31      1.0000 0.07350  0.07690  0.81360  Biso   1.000  C
  C32      1.0000 0.92650  0.92310  0.18640  Biso   1.000  C
  H15      1.0000 0.98300  0.04550  0.83190  Biso   1.000  H
  H16      1.0000 0.01700  0.95450  0.16810  Biso   1.000  H
  C33      1.0000 0.06970  0.10120  0.73370  Biso   1.000  C
  C34      1.0000 0.93030  0.89880  0.26630  Biso   1.000  C
  H17      1.0000 0.97800  0.08500  0.69900  Biso   1.000  H
  H18      1.0000 0.02200  0.91500  0.30100  Biso   1.000  H
  C35      1.0000 0.05700  0.22400  0.42790  Biso   1.000  C
  C36      1.0000 0.94300  0.77600  0.57210  Biso   1.000  C
  H19      1.0000 0.97100  0.18750  0.45020  Biso   1.000  H
  H20      1.0000 0.02900  0.81250  0.54980  Biso   1.000  H
  C37      1.0000 0.04340  0.25280  0.34820  Biso   1.000  C
  C38      1.0000 0.95660  0.74720  0.65180  Biso   1.000  C
  C39      1.0000 0.17310  0.30910  0.31570  Biso   1.000  C
  C40      1.0000 0.82690  0.69090  0.68430  Biso   1.000  C
  H21      1.0000 0.16430  0.32780  0.26210  Biso   1.000  H
  H22      1.0000 0.83570  0.67220  0.73790  Biso   1.000  H
  C41      1.0000 0.89660  0.22170  0.29700  Biso   1.000  C
  C42      1.0000 0.10340  0.77830  0.70300  Biso   1.000  C
  C43      1.0000 0.77810  0.19230  0.25040  Biso   1.000  C
  C44      1.0000 0.22190  0.80770  0.74960  Biso   1.000  C
  C45      1.0000 0.64010  0.15660  0.18960  Biso   1.000  C
  C46      1.0000 0.35990  0.84340  0.81040  Biso   1.000  C
  C47      1.0000 0.64690  0.18270  0.11050  Biso   1.000  C
  C48      1.0000 0.35310  0.81730  0.88950  Biso   1.000  C
  H23      1.0000 0.74050  0.22150  0.09530  Biso   1.000  H
  H24      1.0000 0.25950  0.77850  0.90470  Biso   1.000  H
  C49      1.0000 0.51370  0.15080  0.05430  Biso   1.000  C
  C50      1.0000 0.48630  0.84920  0.94570  Biso   1.000  C
  H25      1.0000 0.52150  0.17200  0.00160  Biso   1.000  H
  H26      1.0000 0.47850  0.82800  0.99840  Biso   1.000  H
  C51      1.0000 0.36830  0.06380  0.14490  Biso   1.000  C
  C52      1.0000 0.63170  0.93620  0.85510  Biso   1.000  C
  H27      1.0000 0.27250  0.02030  0.15730  Biso   1.000  H
  H28      1.0000 0.72750  0.97970  0.84270  Biso   1.000  H
  C53      1.0000 0.49770  0.09600  0.20710  Biso   1.000  C
  C54      1.0000 0.50230  0.90400  0.79290  Biso   1.000  C
  H29      1.0000 0.48800  0.07680  0.26000  Biso   1.000  H
  H30      1.0000 0.51200  0.92320  0.74000  Biso   1.000  H
  C55      1.0000 0.26270  0.68630  0.36930  Biso   1.000  C
  C56      1.0000 0.73730  0.31370  0.63070  Biso   1.000  C
  H31      1.0000 0.24900  0.61730  0.32300  Biso   1.000  H
  H32      1.0000 0.75100  0.38270  0.67700  Biso   1.000  H
  C57      1.0000 0.27050  0.65980  0.44890  Biso   1.000  C
  C58      1.0000 0.72950  0.34020  0.55110  Biso   1.000  C
  H33      1.0000 0.26040  0.57230  0.45590  Biso   1.000  H
  H34      1.0000 0.73960  0.42770  0.54410  Biso   1.000  H
  C59      1.0000 0.29250  0.75890  0.51640  Biso   1.000  C
  C60      1.0000 0.70750  0.24110  0.48360  Biso   1.000  C
  H35      1.0000 0.29850  0.74040  0.57010  Biso   1.000  H
  H36      1.0000 0.70150  0.25960  0.42990  Biso   1.000  H
  C61      1.0000 0.27500  0.81410  0.35790  Biso   1.000  C
  C62      1.0000 0.72500  0.18590  0.64210  Biso   1.000  C
  H37      1.0000 0.26820  0.83130  0.30390  Biso   1.000  H
  H38      1.0000 0.73180  0.16870  0.69610  Biso   1.000  H
  C63      1.0000 0.30610  0.88620  0.50650  Biso   1.000  C
  C64      1.0000 0.69390  0.11380  0.49350  Biso   1.000  C
  H39      1.0000 0.32140  0.95420  0.55390  Biso   1.000  H
  H40      1.0000 0.67860  0.04580  0.44610  Biso   1.000  H
  C65      1.0000 0.29770  0.91750  0.42760  Biso   1.000  C
  C66      1.0000 0.70230  0.08250  0.57240  Biso   1.000  C
  H41      1.0000 0.30690  0.00510  0.42140  Biso   1.000  H
  H42      1.0000 0.69310  0.99490  0.57860  Biso   1.000  H
