data_image0
_cell_length_a       18.599
_cell_length_b       24.88
_cell_length_c       14.068
_cell_angle_alpha    90
_cell_angle_beta     112.22
_cell_angle_gamma    90

_symmetry_space_group_name_H-M    "P 1"
_symmetry_int_tables_number       1

loop_
  _symmetry_equiv_pos_as_xyz
  'x, y, z'

loop_
  _atom_site_label
  _atom_site_occupancy
  _atom_site_fract_x
  _atom_site_fract_y
  _atom_site_fract_z
  _atom_site_thermal_displace_type
  _atom_site_B_iso_or_equiv
  _atom_site_type_symbol
  N1       1.0000 0.86570  0.98970  0.77990  Biso   1.000  N
  N2       1.0000 0.13430  0.48970  0.72010  Biso   1.000  N
  N3       1.0000 0.13430  0.01030  0.22010  Biso   1.000  N
  N4       1.0000 0.86570  0.51030  0.27990  Biso   1.000  N
  I1       1.0000 0.08425  0.66050  0.06366  Biso   1.000  I
  I2       1.0000 0.91575  0.16050  0.43634  Biso   1.000  I
  I3       1.0000 0.91575  0.33950  0.93634  Biso   1.000  I
  I4       1.0000 0.08425  0.83950  0.56366  Biso   1.000  I
  I5       1.0000 0.33224  0.62021  0.17511  Biso   1.000  I
  I6       1.0000 0.66776  0.12021  0.32489  Biso   1.000  I
  I7       1.0000 0.66776  0.37979  0.82489  Biso   1.000  I
  I8       1.0000 0.33224  0.87979  0.67511  Biso   1.000  I
  I9       1.0000 0.01629  0.90975  0.01169  Biso   1.000  I
  I10      1.0000 0.98371  0.40975  0.48831  Biso   1.000  I
  I11      1.0000 0.98371  0.09025  0.98831  Biso   1.000  I
  I12      1.0000 0.01629  0.59025  0.51169  Biso   1.000  I
  Cu1      1.0000 0.19581  0.60815  0.02156  Biso   1.000  Cu
  Cu2      1.0000 0.80419  0.10815  0.47844  Biso   1.000  Cu
  Cu3      1.0000 0.80419  0.39185  0.97844  Biso   1.000  Cu
  Cu4      1.0000 0.19581  0.89185  0.52156  Biso   1.000  Cu
  Cu5      1.0000 0.20446  0.62011  0.21624  Biso   1.000  Cu
  Cu6      1.0000 0.79554  0.12011  0.28376  Biso   1.000  Cu
  Cu7      1.0000 0.79554  0.37989  0.78376  Biso   1.000  Cu
  Cu8      1.0000 0.20446  0.87989  0.71624  Biso   1.000  Cu
  Cu9      1.0000 0.92731  0.99395  0.95078  Biso   1.000  Cu
  Cu10     1.0000 0.07269  0.49395  0.54922  Biso   1.000  Cu
  Cu11     1.0000 0.07269  0.00605  0.04922  Biso   1.000  Cu
  Cu12     1.0000 0.92731  0.50605  0.45078  Biso   1.000  Cu
  N5       1.0000 0.82560  0.47270  0.98990  Biso   1.000  N
  N6       1.0000 0.17440  0.97270  0.51010  Biso   1.000  N
  N7       1.0000 0.17440  0.52730  0.01010  Biso   1.000  N
  N8       1.0000 0.82560  0.02730  0.48990  Biso   1.000  N
  N9       1.0000 0.19970  0.64991  0.89960  Biso   1.000  N
  N10      1.0000 0.80030  0.14991  0.60040  Biso   1.000  N
  N11      1.0000 0.80030  0.35009  0.10040  Biso   1.000  N
  N12      1.0000 0.19970  0.85009  0.39960  Biso   1.000  N
  N13      1.0000 0.82090  0.98530  0.96430  Biso   1.000  N
  N14      1.0000 0.17910  0.48530  0.53570  Biso   1.000  N
  N15      1.0000 0.17910  0.01470  0.03570  Biso   1.000  N
  N16      1.0000 0.82090  0.51470  0.46430  Biso   1.000  N
  N17      1.0000 0.23330  0.66220  0.35260  Biso   1.000  N
  N18      1.0000 0.76670  0.16220  0.14740  Biso   1.000  N
  N19      1.0000 0.76670  0.33780  0.64740  Biso   1.000  N
  N20      1.0000 0.23330  0.83780  0.85260  Biso   1.000  N
  N21      1.0000 0.83880  0.45171  0.75230  Biso   1.000  N
  N22      1.0000 0.16120  0.95171  0.74770  Biso   1.000  N
  N23      1.0000 0.16120  0.54829  0.24770  Biso   1.000  N
  N24      1.0000 0.83880  0.04829  0.25230  Biso   1.000  N
  C1       1.0000 0.89950  0.48910  0.02050  Biso   1.000  C
  C2       1.0000 0.10050  0.98910  0.47950  Biso   1.000  C
  C3       1.0000 0.10050  0.51090  0.97950  Biso   1.000  C
  C4       1.0000 0.89950  0.01090  0.52050  Biso   1.000  C
  H1       1.0000 0.93950  0.46300  0.04580  Biso   1.000  H
  H2       1.0000 0.06050  0.96300  0.45420  Biso   1.000  H
  H3       1.0000 0.06050  0.53700  0.95420  Biso   1.000  H
  H4       1.0000 0.93950  0.03700  0.54580  Biso   1.000  H
  C5       1.0000 0.92070  0.54250  0.01710  Biso   1.000  C
  C6       1.0000 0.07930  0.04250  0.48290  Biso   1.000  C
  C7       1.0000 0.07930  0.45750  0.98290  Biso   1.000  C
  C8       1.0000 0.92070  0.95750  0.51710  Biso   1.000  C
  H5       1.0000 0.97370  0.55240  0.03770  Biso   1.000  H
  H6       1.0000 0.02630  0.05240  0.46230  Biso   1.000  H
  H7       1.0000 0.02630  0.44760  0.96230  Biso   1.000  H
  H8       1.0000 0.97370  0.94760  0.53770  Biso   1.000  H
  C9       1.0000 0.86210  0.58100  0.98270  Biso   1.000  C
  C10      1.0000 0.13790  0.08100  0.51730  Biso   1.000  C
  C11      1.0000 0.13790  0.41900  0.01730  Biso   1.000  C
  C12      1.0000 0.86210  0.91900  0.48270  Biso   1.000  C
  H9       1.0000 0.87450  0.61770  0.97850  Biso   1.000  H
  H10      1.0000 0.12550  0.11770  0.52150  Biso   1.000  H
  H11      1.0000 0.12550  0.38230  0.02150  Biso   1.000  H
  H12      1.0000 0.87450  0.88230  0.47850  Biso   1.000  H
  C13      1.0000 0.78570  0.56500  0.95480  Biso   1.000  C
  C14      1.0000 0.21430  0.06500  0.54520  Biso   1.000  C
  C15      1.0000 0.21430  0.43500  0.04520  Biso   1.000  C
  C16      1.0000 0.78570  0.93500  0.45480  Biso   1.000  C
  C17      1.0000 0.77000  0.51060  0.95750  Biso   1.000  C
  C18      1.0000 0.23000  0.01060  0.54250  Biso   1.000  C
  C19      1.0000 0.23000  0.48940  0.04250  Biso   1.000  C
  C20      1.0000 0.77000  0.98940  0.45750  Biso   1.000  C
  H13      1.0000 0.71730  0.49950  0.93520  Biso   1.000  H
  H14      1.0000 0.28270  0.99950  0.56480  Biso   1.000  H
  H15      1.0000 0.28270  0.50050  0.06480  Biso   1.000  H
  H16      1.0000 0.71730  0.00050  0.43520  Biso   1.000  H
  C21      1.0000 0.72530  0.60470  0.92690  Biso   1.000  C
  C22      1.0000 0.27470  0.10470  0.57310  Biso   1.000  C
  C23      1.0000 0.27470  0.39530  0.07310  Biso   1.000  C
  C24      1.0000 0.72530  0.89530  0.42690  Biso   1.000  C
  C25      1.0000 0.68030  0.64090  0.91010  Biso   1.000  C
  C26      1.0000 0.31970  0.14090  0.58990  Biso   1.000  C
  C27      1.0000 0.31970  0.35910  0.08990  Biso   1.000  C
  C28      1.0000 0.68030  0.85910  0.41010  Biso   1.000  C
  C29      1.0000 0.62810  0.68640  0.89440  Biso   1.000  C
  C30      1.0000 0.37190  0.18640  0.60560  Biso   1.000  C
  C31      1.0000 0.37190  0.31360  0.10560  Biso   1.000  C
  C32      1.0000 0.62810  0.81360  0.39440  Biso   1.000  C
  C33      1.0000 0.54790  0.67860  0.86810  Biso   1.000  C
  C34      1.0000 0.45210  0.17860  0.63190  Biso   1.000  C
  C35      1.0000 0.45210  0.32140  0.13190  Biso   1.000  C
  C36      1.0000 0.54790  0.82140  0.36810  Biso   1.000  C
  H17      1.0000 0.52690  0.64340  0.85970  Biso   1.000  H
  H18      1.0000 0.47310  0.14340  0.64030  Biso   1.000  H
  H19      1.0000 0.47310  0.35660  0.14030  Biso   1.000  H
  H20      1.0000 0.52690  0.85660  0.35970  Biso   1.000  H
  C37      1.0000 0.49990  0.72330  0.85460  Biso   1.000  C
  C38      1.0000 0.50010  0.22330  0.64540  Biso   1.000  C
  C39      1.0000 0.50010  0.27670  0.14540  Biso   1.000  C
  C40      1.0000 0.49990  0.77670  0.35460  Biso   1.000  C
  C41      1.0000 0.53030  0.77500  0.86440  Biso   1.000  C
  C42      1.0000 0.46970  0.27500  0.63560  Biso   1.000  C
  C43      1.0000 0.46970  0.22500  0.13560  Biso   1.000  C
  C44      1.0000 0.53030  0.72500  0.36440  Biso   1.000  C
  H21      1.0000 0.49670  0.80520  0.85290  Biso   1.000  H
  H22      1.0000 0.50330  0.30520  0.64710  Biso   1.000  H
  H23      1.0000 0.50330  0.19480  0.14710  Biso   1.000  H
  H24      1.0000 0.49670  0.69480  0.35290  Biso   1.000  H
  C45      1.0000 0.61010  0.78260  0.89130  Biso   1.000  C
  C46      1.0000 0.38990  0.28260  0.60870  Biso   1.000  C
  C47      1.0000 0.38990  0.21740  0.10870  Biso   1.000  C
  C48      1.0000 0.61010  0.71740  0.39130  Biso   1.000  C
  C49      1.0000 0.65840  0.73860  0.90510  Biso   1.000  C
  C50      1.0000 0.34160  0.23860  0.59490  Biso   1.000  C
  C51      1.0000 0.34160  0.26140  0.09490  Biso   1.000  C
  C52      1.0000 0.65840  0.76140  0.40510  Biso   1.000  C
  H25      1.0000 0.71240  0.74370  0.92200  Biso   1.000  H
  H26      1.0000 0.28760  0.24370  0.57800  Biso   1.000  H
  H27      1.0000 0.28760  0.25630  0.07800  Biso   1.000  H
  H28      1.0000 0.71240  0.75630  0.42200  Biso   1.000  H
  C53      1.0000 0.64270  0.83600  0.90550  Biso   1.000  C
  C54      1.0000 0.35730  0.33600  0.59450  Biso   1.000  C
  C55      1.0000 0.35730  0.16400  0.09450  Biso   1.000  C
  C56      1.0000 0.64270  0.66400  0.40550  Biso   1.000  C
  C57      1.0000 0.67360  0.87980  0.92180  Biso   1.000  C
  C58      1.0000 0.32640  0.37980  0.57820  Biso   1.000  C
  C59      1.0000 0.32640  0.12020  0.07820  Biso   1.000  C
  C60      1.0000 0.67360  0.62020  0.42180  Biso   1.000  C
  C61      1.0000 0.70820  0.93160  0.94110  Biso   1.000  C
  C62      1.0000 0.29180  0.43160  0.55890  Biso   1.000  C
  C63      1.0000 0.29180  0.06840  0.05890  Biso   1.000  C
  C64      1.0000 0.70820  0.56840  0.44110  Biso   1.000  C
  C65      1.0000 0.66940  0.97660  0.95330  Biso   1.000  C
  C66      1.0000 0.33060  0.47660  0.54670  Biso   1.000  C
  C67      1.0000 0.33060  0.02340  0.04670  Biso   1.000  C
  C68      1.0000 0.66940  0.52340  0.45330  Biso   1.000  C
  H29      1.0000 0.61710  0.97390  0.94800  Biso   1.000  H
  H30      1.0000 0.38290  0.47390  0.55200  Biso   1.000  H
  H31      1.0000 0.38290  0.02610  0.05200  Biso   1.000  H
  H32      1.0000 0.61710  0.52610  0.44800  Biso   1.000  H
  C69      1.0000 0.70680  0.02510  0.97300  Biso   1.000  C
  C70      1.0000 0.29320  0.52510  0.52700  Biso   1.000  C
  C71      1.0000 0.29320  0.97490  0.02700  Biso   1.000  C
  C72      1.0000 0.70680  0.47490  0.47300  Biso   1.000  C
  H33      1.0000 0.68100  0.05620  0.98350  Biso   1.000  H
  H34      1.0000 0.31900  0.55620  0.51650  Biso   1.000  H
  H35      1.0000 0.31900  0.94380  0.01650  Biso   1.000  H
  H36      1.0000 0.68100  0.44380  0.48350  Biso   1.000  H
  C73      1.0000 0.78200  0.02880  0.97750  Biso   1.000  C
  C74      1.0000 0.21800  0.52880  0.52250  Biso   1.000  C
  C75      1.0000 0.21800  0.97120  0.02250  Biso   1.000  C
  C76      1.0000 0.78200  0.47120  0.47750  Biso   1.000  C
  H37      1.0000 0.80720  0.06280  0.99020  Biso   1.000  H
  H38      1.0000 0.19280  0.56280  0.50980  Biso   1.000  H
  H39      1.0000 0.19280  0.93720  0.00980  Biso   1.000  H
  H40      1.0000 0.80720  0.43720  0.49020  Biso   1.000  H
  C77      1.0000 0.78460  0.93810  0.94840  Biso   1.000  C
  C78      1.0000 0.21540  0.43810  0.55160  Biso   1.000  C
  C79      1.0000 0.21540  0.06190  0.05160  Biso   1.000  C
  C80      1.0000 0.78460  0.56190  0.44840  Biso   1.000  C
  H41      1.0000 0.81220  0.90720  0.94170  Biso   1.000  H
  H42      1.0000 0.18780  0.40720  0.55830  Biso   1.000  H
  H43      1.0000 0.18780  0.09280  0.05830  Biso   1.000  H
  H44      1.0000 0.81220  0.59280  0.44170  Biso   1.000  H
  C81      1.0000 0.41930  0.71500  0.83460  Biso   1.000  C
  C82      1.0000 0.58070  0.21500  0.66540  Biso   1.000  C
  C83      1.0000 0.58070  0.28500  0.16540  Biso   1.000  C
  C84      1.0000 0.41930  0.78500  0.33460  Biso   1.000  C
  C85      1.0000 0.35350  0.70690  0.82250  Biso   1.000  C
  C86      1.0000 0.64650  0.20690  0.67750  Biso   1.000  C
  C87      1.0000 0.64650  0.29310  0.17750  Biso   1.000  C
  C88      1.0000 0.35350  0.79310  0.32250  Biso   1.000  C
  C89      1.0000 0.27590  0.69530  0.81750  Biso   1.000  C
  C90      1.0000 0.72410  0.19530  0.68250  Biso   1.000  C
  C91      1.0000 0.72410  0.30470  0.18250  Biso   1.000  C
  C92      1.0000 0.27590  0.80470  0.31750  Biso   1.000  C
  C93      1.0000 0.20860  0.71520  0.74300  Biso   1.000  C
  C94      1.0000 0.79140  0.21520  0.75700  Biso   1.000  C
  C95      1.0000 0.79140  0.28480  0.25700  Biso   1.000  C
  C96      1.0000 0.20860  0.78480  0.24300  Biso   1.000  C
  H45      1.0000 0.21090  0.73810  0.69030  Biso   1.000  H
  H46      1.0000 0.78910  0.23810  0.80970  Biso   1.000  H
  H47      1.0000 0.78910  0.26190  0.30970  Biso   1.000  H
  H48      1.0000 0.21090  0.76190  0.19030  Biso   1.000  H
  C97      1.0000 0.13720  0.70080  0.74680  Biso   1.000  C
  C98      1.0000 0.86280  0.20080  0.75320  Biso   1.000  C
  C99      1.0000 0.86280  0.29920  0.25320  Biso   1.000  C
  C100     1.0000 0.13720  0.79920  0.24680  Biso   1.000  C
  H49      1.0000 0.09000  0.71320  0.69580  Biso   1.000  H
  H50      1.0000 0.91000  0.21320  0.80420  Biso   1.000  H
  H51      1.0000 0.91000  0.28680  0.30420  Biso   1.000  H
  H52      1.0000 0.09000  0.78680  0.19580  Biso   1.000  H
  C101     1.0000 0.13610  0.66890  0.82450  Biso   1.000  C
  C102     1.0000 0.86390  0.16890  0.67550  Biso   1.000  C
  C103     1.0000 0.86390  0.33110  0.17550  Biso   1.000  C
  C104     1.0000 0.13610  0.83110  0.32450  Biso   1.000  C
  H53      1.0000 0.08700  0.65940  0.82580  Biso   1.000  H
  H54      1.0000 0.91300  0.15940  0.67420  Biso   1.000  H
  H55      1.0000 0.91300  0.34060  0.17420  Biso   1.000  H
  H56      1.0000 0.08700  0.84060  0.32580  Biso   1.000  H
  C105     1.0000 0.26870  0.66320  0.89490  Biso   1.000  C
  C106     1.0000 0.73130  0.16320  0.60510  Biso   1.000  C
  C107     1.0000 0.73130  0.33680  0.10510  Biso   1.000  C
  C108     1.0000 0.26870  0.83680  0.39490  Biso   1.000  C
  H57      1.0000 0.31480  0.65000  0.94690  Biso   1.000  H
  H58      1.0000 0.68520  0.15000  0.55310  Biso   1.000  H
  H59      1.0000 0.68520  0.35000  0.05310  Biso   1.000  H
  H60      1.0000 0.31480  0.85000  0.44690  Biso   1.000  H
  C109     1.0000 0.18090  0.68380  0.38370  Biso   1.000  C
  C110     1.0000 0.81910  0.18380  0.11630  Biso   1.000  C
  C111     1.0000 0.81910  0.31620  0.61630  Biso   1.000  C
  C112     1.0000 0.18090  0.81620  0.88370  Biso   1.000  C
  H61      1.0000 0.12740  0.67880  0.34290  Biso   1.000  H
  H62      1.0000 0.87260  0.17880  0.15710  Biso   1.000  H
  H63      1.0000 0.87260  0.32120  0.65710  Biso   1.000  H
  H64      1.0000 0.12740  0.82120  0.84290  Biso   1.000  H
  C113     1.0000 0.20100  0.71330  0.47280  Biso   1.000  C
  C114     1.0000 0.79900  0.21330  0.02720  Biso   1.000  C
  C115     1.0000 0.79900  0.28670  0.52720  Biso   1.000  C
  C116     1.0000 0.20100  0.78670  0.97280  Biso   1.000  C
  H65      1.0000 0.16160  0.72800  0.49260  Biso   1.000  H
  H66      1.0000 0.83840  0.22800  0.00740  Biso   1.000  H
  H67      1.0000 0.83840  0.27200  0.50740  Biso   1.000  H
  H68      1.0000 0.16160  0.77200  0.99260  Biso   1.000  H
  C117     1.0000 0.27930  0.72170  0.53420  Biso   1.000  C
  C118     1.0000 0.72070  0.22170  0.96580  Biso   1.000  C
  C119     1.0000 0.72070  0.27830  0.46580  Biso   1.000  C
  C120     1.0000 0.27930  0.77830  0.03420  Biso   1.000  C
  H69      1.0000 0.29420  0.74240  0.59540  Biso   1.000  H
  H70      1.0000 0.70580  0.24240  0.90460  Biso   1.000  H
  H71      1.0000 0.70580  0.25760  0.40460  Biso   1.000  H
  H72      1.0000 0.29420  0.75760  0.09540  Biso   1.000  H
  C121     1.0000 0.33400  0.69880  0.50230  Biso   1.000  C
  C122     1.0000 0.66600  0.19880  0.99770  Biso   1.000  C
  C123     1.0000 0.66600  0.30120  0.49770  Biso   1.000  C
  C124     1.0000 0.33400  0.80120  0.00230  Biso   1.000  C
  C125     1.0000 0.30900  0.66960  0.41160  Biso   1.000  C
  C126     1.0000 0.69100  0.16960  0.08840  Biso   1.000  C
  C127     1.0000 0.69100  0.33040  0.58840  Biso   1.000  C
  C128     1.0000 0.30900  0.83040  0.91160  Biso   1.000  C
  H73      1.0000 0.34700  0.65420  0.38980  Biso   1.000  H
  H74      1.0000 0.65300  0.15420  0.11020  Biso   1.000  H
  H75      1.0000 0.65300  0.34580  0.61020  Biso   1.000  H
  H76      1.0000 0.34700  0.84580  0.88980  Biso   1.000  H
  C129     1.0000 0.41670  0.70550  0.55580  Biso   1.000  C
  C130     1.0000 0.58330  0.20550  0.94420  Biso   1.000  C
  C131     1.0000 0.58330  0.29450  0.44420  Biso   1.000  C
  C132     1.0000 0.41670  0.79450  0.05580  Biso   1.000  C
  C133     1.0000 0.48550  0.71050  0.58970  Biso   1.000  C
  C134     1.0000 0.51450  0.21050  0.91030  Biso   1.000  C
  C135     1.0000 0.51450  0.28950  0.41030  Biso   1.000  C
  C136     1.0000 0.48550  0.78950  0.08970  Biso   1.000  C
  C137     1.0000 0.56880  0.71780  0.62670  Biso   1.000  C
  C138     1.0000 0.43120  0.21780  0.87330  Biso   1.000  C
  C139     1.0000 0.43120  0.28220  0.37330  Biso   1.000  C
  C140     1.0000 0.56880  0.78220  0.12670  Biso   1.000  C
  C141     1.0000 0.61760  0.67320  0.64610  Biso   1.000  C
  C142     1.0000 0.38240  0.17320  0.85390  Biso   1.000  C
  C143     1.0000 0.38240  0.32680  0.35390  Biso   1.000  C
  C144     1.0000 0.61760  0.82680  0.14610  Biso   1.000  C
  H77      1.0000 0.59690  0.63790  0.63910  Biso   1.000  H
  H78      1.0000 0.40310  0.13790  0.86090  Biso   1.000  H
  H79      1.0000 0.40310  0.36210  0.36090  Biso   1.000  H
  H80      1.0000 0.59690  0.86210  0.13910  Biso   1.000  H
  C145     1.0000 0.69790  0.68130  0.67630  Biso   1.000  C
  C146     1.0000 0.30210  0.18130  0.82370  Biso   1.000  C
  C147     1.0000 0.30210  0.31870  0.32370  Biso   1.000  C
  C148     1.0000 0.69790  0.81870  0.17630  Biso   1.000  C
  C149     1.0000 0.72830  0.73310  0.68820  Biso   1.000  C
  C150     1.0000 0.27170  0.23310  0.81180  Biso   1.000  C
  C151     1.0000 0.27170  0.26690  0.31180  Biso   1.000  C
  C152     1.0000 0.72830  0.76690  0.18820  Biso   1.000  C
  H81      1.0000 0.78280  0.73820  0.70980  Biso   1.000  H
  H82      1.0000 0.21720  0.23820  0.79020  Biso   1.000  H
  H83      1.0000 0.21720  0.26180  0.29020  Biso   1.000  H
  H84      1.0000 0.78280  0.76180  0.20980  Biso   1.000  H
  C153     1.0000 0.67970  0.77710  0.66870  Biso   1.000  C
  C154     1.0000 0.32030  0.27710  0.83130  Biso   1.000  C
  C155     1.0000 0.32030  0.22290  0.33130  Biso   1.000  C
  C156     1.0000 0.67970  0.72290  0.16870  Biso   1.000  C
  C157     1.0000 0.59890  0.76940  0.63730  Biso   1.000  C
  C158     1.0000 0.40110  0.26940  0.86270  Biso   1.000  C
  C159     1.0000 0.40110  0.23060  0.36270  Biso   1.000  C
  C160     1.0000 0.59890  0.73060  0.13730  Biso   1.000  C
  H85      1.0000 0.56510  0.79950  0.62350  Biso   1.000  H
  H86      1.0000 0.43490  0.29950  0.87650  Biso   1.000  H
  H87      1.0000 0.43490  0.20050  0.37650  Biso   1.000  H
  H88      1.0000 0.56510  0.70050  0.12350  Biso   1.000  H
  C161     1.0000 0.70890  0.83040  0.67670  Biso   1.000  C
  C162     1.0000 0.29110  0.33040  0.82330  Biso   1.000  C
  C163     1.0000 0.29110  0.16960  0.32330  Biso   1.000  C
  C164     1.0000 0.70890  0.66960  0.17670  Biso   1.000  C
  C165     1.0000 0.73180  0.87580  0.68200  Biso   1.000  C
  C166     1.0000 0.26820  0.37580  0.81800  Biso   1.000  C
  C167     1.0000 0.26820  0.12420  0.31800  Biso   1.000  C
  C168     1.0000 0.73180  0.62420  0.18200  Biso   1.000  C
  C169     1.0000 0.75950  0.92940  0.69480  Biso   1.000  C
  C170     1.0000 0.24050  0.42940  0.80520  Biso   1.000  C
  C171     1.0000 0.24050  0.07060  0.30520  Biso   1.000  C
  C172     1.0000 0.75950  0.57060  0.19480  Biso   1.000  C
  C173     1.0000 0.83710  0.94040  0.75520  Biso   1.000  C
  C174     1.0000 0.16290  0.44040  0.74480  Biso   1.000  C
  C175     1.0000 0.16290  0.05960  0.24480  Biso   1.000  C
  C176     1.0000 0.83710  0.55960  0.25520  Biso   1.000  C
  H89      1.0000 0.87150  0.91090  0.78010  Biso   1.000  H
  H90      1.0000 0.12850  0.41090  0.71990  Biso   1.000  H
  H91      1.0000 0.12850  0.08910  0.21990  Biso   1.000  H
  H92      1.0000 0.87150  0.58910  0.28010  Biso   1.000  H
  C177     1.0000 0.81800  0.03150  0.74150  Biso   1.000  C
  C178     1.0000 0.18200  0.53150  0.75850  Biso   1.000  C
  C179     1.0000 0.18200  0.96850  0.25850  Biso   1.000  C
  C180     1.0000 0.81800  0.46850  0.24150  Biso   1.000  C
  H93      1.0000 0.83780  0.06700  0.75760  Biso   1.000  H
  H94      1.0000 0.16220  0.56700  0.74240  Biso   1.000  H
  H95      1.0000 0.16220  0.93300  0.24240  Biso   1.000  H
  H96      1.0000 0.83780  0.43300  0.25760  Biso   1.000  H
  C181     1.0000 0.74000  0.02430  0.67840  Biso   1.000  C
  C182     1.0000 0.26000  0.52430  0.82160  Biso   1.000  C
  C183     1.0000 0.26000  0.97570  0.32160  Biso   1.000  C
  C184     1.0000 0.74000  0.47570  0.17840  Biso   1.000  C
  H97      1.0000 0.70780  0.05450  0.65060  Biso   1.000  H
  H98      1.0000 0.29220  0.55450  0.84940  Biso   1.000  H
  H99      1.0000 0.29220  0.94550  0.34940  Biso   1.000  H
  H100     1.0000 0.70780  0.44550  0.15060  Biso   1.000  H
  C185     1.0000 0.71010  0.97350  0.65680  Biso   1.000  C
  C186     1.0000 0.28990  0.47350  0.84320  Biso   1.000  C
  C187     1.0000 0.28990  0.02650  0.34320  Biso   1.000  C
  C188     1.0000 0.71010  0.52650  0.15680  Biso   1.000  C
  H101     1.0000 0.65660  0.96820  0.61650  Biso   1.000  H
  H102     1.0000 0.34340  0.46820  0.88350  Biso   1.000  H
  H103     1.0000 0.34340  0.03180  0.38350  Biso   1.000  H
  H104     1.0000 0.65660  0.53180  0.11650  Biso   1.000  H
  C189     1.0000 0.74710  0.63490  0.69360  Biso   1.000  C
  C190     1.0000 0.25290  0.13490  0.80640  Biso   1.000  C
  C191     1.0000 0.25290  0.36510  0.30640  Biso   1.000  C
  C192     1.0000 0.74710  0.86510  0.19360  Biso   1.000  C
  C193     1.0000 0.78570  0.59490  0.70720  Biso   1.000  C
  C194     1.0000 0.21430  0.09490  0.79280  Biso   1.000  C
  C195     1.0000 0.21430  0.40510  0.29280  Biso   1.000  C
  C196     1.0000 0.78570  0.90510  0.20720  Biso   1.000  C
  C197     1.0000 0.83030  0.54650  0.71880  Biso   1.000  C
  C198     1.0000 0.16970  0.04650  0.78120  Biso   1.000  C
  C199     1.0000 0.16970  0.45350  0.28120  Biso   1.000  C
  C200     1.0000 0.83030  0.95350  0.21880  Biso   1.000  C
  C201     1.0000 0.80070  0.49830  0.73780  Biso   1.000  C
  C202     1.0000 0.19930  0.99830  0.76220  Biso   1.000  C
  C203     1.0000 0.19930  0.50170  0.26220  Biso   1.000  C
  C204     1.0000 0.80070  0.00170  0.23780  Biso   1.000  C
  H105     1.0000 0.75050  0.49850  0.74060  Biso   1.000  H
  H106     1.0000 0.24950  0.99850  0.75940  Biso   1.000  H
  H107     1.0000 0.24950  0.50150  0.25940  Biso   1.000  H
  H108     1.0000 0.75050  0.00150  0.24060  Biso   1.000  H
  C205     1.0000 0.90840  0.45160  0.74530  Biso   1.000  C
  C206     1.0000 0.09160  0.95160  0.75470  Biso   1.000  C
  C207     1.0000 0.09160  0.54840  0.25470  Biso   1.000  C
  C208     1.0000 0.90840  0.04840  0.24530  Biso   1.000  C
  H109     1.0000 0.93580  0.41850  0.75450  Biso   1.000  H
  H110     1.0000 0.06420  0.91850  0.74550  Biso   1.000  H
  H111     1.0000 0.06420  0.58150  0.24550  Biso   1.000  H
  H112     1.0000 0.93580  0.08150  0.25450  Biso   1.000  H
  C209     1.0000 0.94250  0.49740  0.72540  Biso   1.000  C
  C210     1.0000 0.05750  0.99740  0.77460  Biso   1.000  C
  C211     1.0000 0.05750  0.50260  0.27460  Biso   1.000  C
  C212     1.0000 0.94250  0.00260  0.22540  Biso   1.000  C
  H113     1.0000 0.99160  0.49570  0.71930  Biso   1.000  H
  H114     1.0000 0.00840  0.99570  0.78070  Biso   1.000  H
  H115     1.0000 0.00840  0.50430  0.28070  Biso   1.000  H
  H116     1.0000 0.99160  0.00430  0.21930  Biso   1.000  H
  C213     1.0000 0.90300  0.54610  0.71450  Biso   1.000  C
  C214     1.0000 0.09700  0.04610  0.78550  Biso   1.000  C
  C215     1.0000 0.09700  0.45390  0.28550  Biso   1.000  C
  C216     1.0000 0.90300  0.95390  0.21450  Biso   1.000  C
  H117     1.0000 0.92610  0.57850  0.70430  Biso   1.000  H
  H118     1.0000 0.07390  0.07850  0.79570  Biso   1.000  H
  H119     1.0000 0.07390  0.42150  0.29570  Biso   1.000  H
  H120     1.0000 0.92610  0.92150  0.20430  Biso   1.000  H
