data_image0
_cell_length_a       11.863
_cell_length_b       17.7321
_cell_length_c       6.8669
_cell_angle_alpha    90
_cell_angle_beta     115.977
_cell_angle_gamma    90

_symmetry_space_group_name_H-M    "P 1"
_symmetry_int_tables_number       1

loop_
  _symmetry_equiv_pos_as_xyz
  'x, y, z'

loop_
  _atom_site_label
  _atom_site_occupancy
  _atom_site_fract_x
  _atom_site_fract_y
  _atom_site_fract_z
  _atom_site_thermal_displace_type
  _atom_site_B_iso_or_equiv
  _atom_site_type_symbol
  Cu1      1.0000 0.00000  0.90457  0.00000  Biso   1.000  Cu
  Cu2      1.0000 0.50000  0.40457  0.00000  Biso   1.000  Cu
  Cu3      1.0000 0.00000  0.09543  0.00000  Biso   1.000  Cu
  Cu4      1.0000 0.50000  0.59543  0.00000  Biso   1.000  Cu
  C1       1.0000 0.77190  0.82020  0.76460  Biso   1.000  C
  C2       1.0000 0.22810  0.82020  0.23540  Biso   1.000  C
  C3       1.0000 0.27190  0.32020  0.76460  Biso   1.000  C
  C4       1.0000 0.72810  0.32020  0.23540  Biso   1.000  C
  C5       1.0000 0.22810  0.17980  0.23540  Biso   1.000  C
  C6       1.0000 0.77190  0.17980  0.76460  Biso   1.000  C
  C7       1.0000 0.72810  0.67980  0.23540  Biso   1.000  C
  C8       1.0000 0.27190  0.67980  0.76460  Biso   1.000  C
  N1       1.0000 0.65990  0.80070  0.61330  Biso   1.000  N
  N2       1.0000 0.34010  0.80070  0.38670  Biso   1.000  N
  N3       1.0000 0.15990  0.30070  0.61330  Biso   1.000  N
  N4       1.0000 0.84010  0.30070  0.38670  Biso   1.000  N
  N5       1.0000 0.34010  0.19930  0.38670  Biso   1.000  N
  N6       1.0000 0.65990  0.19930  0.61330  Biso   1.000  N
  N7       1.0000 0.84010  0.69930  0.38670  Biso   1.000  N
  N8       1.0000 0.15990  0.69930  0.61330  Biso   1.000  N
  C9       1.0000 0.62740  0.83040  0.41550  Biso   1.000  C
  C10      1.0000 0.37260  0.83040  0.58450  Biso   1.000  C
  C11      1.0000 0.12740  0.33040  0.41550  Biso   1.000  C
  C12      1.0000 0.87260  0.33040  0.58450  Biso   1.000  C
  C13      1.0000 0.37260  0.16960  0.58450  Biso   1.000  C
  C14      1.0000 0.62740  0.16960  0.41550  Biso   1.000  C
  C15      1.0000 0.87260  0.66960  0.58450  Biso   1.000  C
  C16      1.0000 0.12740  0.66960  0.41550  Biso   1.000  C
  H1       1.0000 0.54890  0.81890  0.30510  Biso   1.000  H
  H2       1.0000 0.45110  0.81890  0.69490  Biso   1.000  H
  H3       1.0000 0.04890  0.31890  0.30510  Biso   1.000  H
  H4       1.0000 0.95110  0.31890  0.69490  Biso   1.000  H
  H5       1.0000 0.45110  0.18110  0.69490  Biso   1.000  H
  H6       1.0000 0.54890  0.18110  0.30510  Biso   1.000  H
  H7       1.0000 0.95110  0.68110  0.69490  Biso   1.000  H
  H8       1.0000 0.04890  0.68110  0.30510  Biso   1.000  H
  C17      1.0000 0.70510  0.87700  0.36950  Biso   1.000  C
  C18      1.0000 0.29490  0.87700  0.63050  Biso   1.000  C
  C19      1.0000 0.20510  0.37700  0.36950  Biso   1.000  C
  C20      1.0000 0.79490  0.37700  0.63050  Biso   1.000  C
  C21      1.0000 0.29490  0.12300  0.63050  Biso   1.000  C
  C22      1.0000 0.70510  0.12300  0.36950  Biso   1.000  C
  C23      1.0000 0.79490  0.62300  0.63050  Biso   1.000  C
  C24      1.0000 0.20510  0.62300  0.36950  Biso   1.000  C
  H9       1.0000 0.68160  0.89640  0.23140  Biso   1.000  H
  H10      1.0000 0.31840  0.89640  0.76860  Biso   1.000  H
  H11      1.0000 0.18160  0.39640  0.23140  Biso   1.000  H
  H12      1.0000 0.81840  0.39640  0.76860  Biso   1.000  H
  H13      1.0000 0.31840  0.10360  0.76860  Biso   1.000  H
  H14      1.0000 0.68160  0.10360  0.23140  Biso   1.000  H
  H15      1.0000 0.81840  0.60360  0.76860  Biso   1.000  H
  H16      1.0000 0.18160  0.60360  0.23140  Biso   1.000  H
  C25      1.0000 0.82030  0.89340  0.53960  Biso   1.000  C
  C26      1.0000 0.17970  0.89340  0.46040  Biso   1.000  C
  C27      1.0000 0.32030  0.39340  0.53960  Biso   1.000  C
  C28      1.0000 0.67970  0.39340  0.46040  Biso   1.000  C
  C29      1.0000 0.17970  0.10660  0.46040  Biso   1.000  C
  C30      1.0000 0.82030  0.10660  0.53960  Biso   1.000  C
  C31      1.0000 0.67970  0.60660  0.46040  Biso   1.000  C
  C32      1.0000 0.32030  0.60660  0.53960  Biso   1.000  C
  H17      1.0000 0.87570  0.92420  0.51390  Biso   1.000  H
  H18      1.0000 0.12430  0.92420  0.48610  Biso   1.000  H
  H19      1.0000 0.37570  0.42420  0.51390  Biso   1.000  H
  H20      1.0000 0.62430  0.42420  0.48610  Biso   1.000  H
  H21      1.0000 0.12430  0.07580  0.48610  Biso   1.000  H
  H22      1.0000 0.87570  0.07580  0.51390  Biso   1.000  H
  H23      1.0000 0.62430  0.57580  0.48610  Biso   1.000  H
  H24      1.0000 0.37570  0.57580  0.51390  Biso   1.000  H
  N9       1.0000 0.85460  0.86659  0.73910  Biso   1.000  N
  N10      1.0000 0.14540  0.86659  0.26090  Biso   1.000  N
  N11      1.0000 0.35460  0.36659  0.73910  Biso   1.000  N
  N12      1.0000 0.64540  0.36659  0.26090  Biso   1.000  N
  N13      1.0000 0.14540  0.13341  0.26090  Biso   1.000  N
  N14      1.0000 0.85460  0.13341  0.73910  Biso   1.000  N
  N15      1.0000 0.64540  0.63341  0.26090  Biso   1.000  N
  N16      1.0000 0.35460  0.63341  0.73910  Biso   1.000  N
  S1       1.0000 0.82775  0.78506  0.03002  Biso   1.000  S
  S2       1.0000 0.17225  0.78506  0.96998  Biso   1.000  S
  S3       1.0000 0.32775  0.28506  0.03002  Biso   1.000  S
  S4       1.0000 0.67225  0.28506  0.96998  Biso   1.000  S
  S5       1.0000 0.17225  0.21494  0.96998  Biso   1.000  S
  S6       1.0000 0.82775  0.21494  0.03002  Biso   1.000  S
  S7       1.0000 0.67225  0.71494  0.96998  Biso   1.000  S
  S8       1.0000 0.32775  0.71494  0.03002  Biso   1.000  S
  Br1      1.0000 0.11354  0.00000  0.86296  Biso   1.000  Br
  Br2      1.0000 0.88646  0.00000  0.13704  Biso   1.000  Br
  Br3      1.0000 0.61354  0.50000  0.86296  Biso   1.000  Br
  Br4      1.0000 0.38646  0.50000  0.13704  Biso   1.000  Br
  O1       1.0000 0.43600  0.00000  0.16000  Biso   1.000  O
  O2       1.0000 0.56400  0.00000  0.84000  Biso   1.000  O
  O3       1.0000 0.93600  0.50000  0.16000  Biso   1.000  O
  O4       1.0000 0.06400  0.50000  0.84000  Biso   1.000  O
  C33      1.0000 0.43400  0.00000  0.34900  Biso   1.000  C
  C34      1.0000 0.56600  0.00000  0.65100  Biso   1.000  C
  C35      1.0000 0.93400  0.50000  0.34900  Biso   1.000  C
  C36      1.0000 0.06600  0.50000  0.65100  Biso   1.000  C
