data_image0
_cell_length_a       15.1415
_cell_length_b       4.0139
_cell_length_c       21.6318
_cell_angle_alpha    90
_cell_angle_beta     95.294
_cell_angle_gamma    90

_symmetry_space_group_name_H-M    "P 1"
_symmetry_int_tables_number       1

loop_
  _symmetry_equiv_pos_as_xyz
  'x, y, z'

loop_
  _atom_site_label
  _atom_site_occupancy
  _atom_site_fract_x
  _atom_site_fract_y
  _atom_site_fract_z
  _atom_site_thermal_displace_type
  _atom_site_B_iso_or_equiv
  _atom_site_type_symbol
  Br1      1.0000 0.09529  0.20370  0.54845  Biso   1.000  Br
  Br2      1.0000 0.90471  0.20370  0.95155  Biso   1.000  Br
  Br3      1.0000 0.59529  0.70370  0.54845  Biso   1.000  Br
  Br4      1.0000 0.40471  0.70370  0.95155  Biso   1.000  Br
  Br5      1.0000 0.90471  0.79630  0.45155  Biso   1.000  Br
  Br6      1.0000 0.09529  0.79630  0.04845  Biso   1.000  Br
  Br7      1.0000 0.40471  0.29630  0.45155  Biso   1.000  Br
  Br8      1.0000 0.59529  0.29630  0.04845  Biso   1.000  Br
  Cu1      1.0000 0.00550  0.72446  0.56171  Biso   1.000  Cu
  Cu2      1.0000 0.99450  0.72446  0.93829  Biso   1.000  Cu
  Cu3      1.0000 0.50550  0.22446  0.56171  Biso   1.000  Cu
  Cu4      1.0000 0.49450  0.22446  0.93829  Biso   1.000  Cu
  Cu5      1.0000 0.99450  0.27554  0.43829  Biso   1.000  Cu
  Cu6      1.0000 0.00550  0.27554  0.06171  Biso   1.000  Cu
  Cu7      1.0000 0.49450  0.77554  0.43829  Biso   1.000  Cu
  Cu8      1.0000 0.50550  0.77554  0.06171  Biso   1.000  Cu
  S1       1.0000 0.00524  0.87363  0.70304  Biso   1.000  S
  S2       1.0000 0.99476  0.87363  0.79696  Biso   1.000  S
  S3       1.0000 0.50524  0.37363  0.70304  Biso   1.000  S
  S4       1.0000 0.49476  0.37363  0.79696  Biso   1.000  S
  S5       1.0000 0.99476  0.12637  0.29696  Biso   1.000  S
  S6       1.0000 0.00524  0.12637  0.20304  Biso   1.000  S
  S7       1.0000 0.49476  0.62637  0.29696  Biso   1.000  S
  S8       1.0000 0.50524  0.62637  0.20304  Biso   1.000  S
  C1       1.0000 0.91216  0.62930  0.67448  Biso   1.000  C
  C2       1.0000 0.08784  0.62930  0.82552  Biso   1.000  C
  C3       1.0000 0.41216  0.12930  0.67448  Biso   1.000  C
  C4       1.0000 0.58784  0.12930  0.82552  Biso   1.000  C
  C5       1.0000 0.08784  0.37070  0.32552  Biso   1.000  C
  C6       1.0000 0.91216  0.37070  0.17448  Biso   1.000  C
  C7       1.0000 0.58784  0.87070  0.32552  Biso   1.000  C
  C8       1.0000 0.41216  0.87070  0.17448  Biso   1.000  C
  C9       1.0000 0.78381  0.35450  0.68436  Biso   1.000  C
  C10      1.0000 0.21619  0.35450  0.81564  Biso   1.000  C
  C11      1.0000 0.28381  0.85450  0.68436  Biso   1.000  C
  C12      1.0000 0.71619  0.85450  0.81564  Biso   1.000  C
  C13      1.0000 0.21619  0.64550  0.31564  Biso   1.000  C
  C14      1.0000 0.78381  0.64550  0.18436  Biso   1.000  C
  C15      1.0000 0.71619  0.14550  0.31564  Biso   1.000  C
  C16      1.0000 0.28381  0.14550  0.18436  Biso   1.000  C
  H1       1.0000 0.73820  0.28440  0.70880  Biso   1.000  H
  H2       1.0000 0.26180  0.28440  0.79120  Biso   1.000  H
  H3       1.0000 0.23820  0.78440  0.70880  Biso   1.000  H
  H4       1.0000 0.76180  0.78440  0.79120  Biso   1.000  H
  H5       1.0000 0.26180  0.71560  0.29120  Biso   1.000  H
  H6       1.0000 0.73820  0.71560  0.20880  Biso   1.000  H
  H7       1.0000 0.76180  0.21560  0.29120  Biso   1.000  H
  H8       1.0000 0.23820  0.21560  0.20880  Biso   1.000  H
  C17      1.0000 0.77851  0.26380  0.62246  Biso   1.000  C
  C18      1.0000 0.22149  0.26380  0.87754  Biso   1.000  C
  C19      1.0000 0.27851  0.76380  0.62246  Biso   1.000  C
  C20      1.0000 0.72149  0.76380  0.87754  Biso   1.000  C
  C21      1.0000 0.22149  0.73620  0.37754  Biso   1.000  C
  C22      1.0000 0.77851  0.73620  0.12246  Biso   1.000  C
  C23      1.0000 0.72149  0.23620  0.37754  Biso   1.000  C
  C24      1.0000 0.27851  0.23620  0.12246  Biso   1.000  C
  H9       1.0000 0.73170  0.12700  0.60450  Biso   1.000  H
  H10      1.0000 0.26830  0.12700  0.89550  Biso   1.000  H
  H11      1.0000 0.23170  0.62700  0.60450  Biso   1.000  H
  H12      1.0000 0.76830  0.62700  0.89550  Biso   1.000  H
  H13      1.0000 0.26830  0.87300  0.39550  Biso   1.000  H
  H14      1.0000 0.73170  0.87300  0.10450  Biso   1.000  H
  H15      1.0000 0.76830  0.37300  0.39550  Biso   1.000  H
  H16      1.0000 0.23170  0.37300  0.10450  Biso   1.000  H
  C25      1.0000 0.84415  0.38070  0.58784  Biso   1.000  C
  C26      1.0000 0.15585  0.38070  0.91216  Biso   1.000  C
  C27      1.0000 0.34415  0.88070  0.58784  Biso   1.000  C
  C28      1.0000 0.65585  0.88070  0.91216  Biso   1.000  C
  C29      1.0000 0.15585  0.61930  0.41216  Biso   1.000  C
  C30      1.0000 0.84415  0.61930  0.08784  Biso   1.000  C
  C31      1.0000 0.65585  0.11930  0.41216  Biso   1.000  C
  C32      1.0000 0.34415  0.11930  0.08784  Biso   1.000  C
  H17      1.0000 0.84170  0.32750  0.54490  Biso   1.000  H
  H18      1.0000 0.15830  0.32750  0.95510  Biso   1.000  H
  H19      1.0000 0.34170  0.82750  0.54490  Biso   1.000  H
  H20      1.0000 0.65830  0.82750  0.95510  Biso   1.000  H
  H21      1.0000 0.15830  0.67250  0.45510  Biso   1.000  H
  H22      1.0000 0.84170  0.67250  0.04490  Biso   1.000  H
  H23      1.0000 0.65830  0.17250  0.45510  Biso   1.000  H
  H24      1.0000 0.34170  0.17250  0.04490  Biso   1.000  H
  N1       1.0000 0.91160  0.56870  0.61361  Biso   1.000  N
  N2       1.0000 0.08840  0.56870  0.88639  Biso   1.000  N
  N3       1.0000 0.41160  0.06870  0.61361  Biso   1.000  N
  N4       1.0000 0.58840  0.06870  0.88639  Biso   1.000  N
  N5       1.0000 0.08840  0.43130  0.38639  Biso   1.000  N
  N6       1.0000 0.91160  0.43130  0.11361  Biso   1.000  N
  N7       1.0000 0.58840  0.93130  0.38639  Biso   1.000  N
  N8       1.0000 0.41160  0.93130  0.11361  Biso   1.000  N
  N9       1.0000 0.85107  0.53830  0.71127  Biso   1.000  N
  N10      1.0000 0.14893  0.53830  0.78873  Biso   1.000  N
  N11      1.0000 0.35107  0.03830  0.71127  Biso   1.000  N
  N12      1.0000 0.64893  0.03830  0.78873  Biso   1.000  N
  N13      1.0000 0.14893  0.46170  0.28873  Biso   1.000  N
  N14      1.0000 0.85107  0.46170  0.21127  Biso   1.000  N
  N15      1.0000 0.64893  0.96170  0.28873  Biso   1.000  N
  N16      1.0000 0.35107  0.96170  0.21127  Biso   1.000  N
