data_image0
_cell_length_a       11.7387
_cell_length_b       17.6207
_cell_length_c       6.8343
_cell_angle_alpha    90
_cell_angle_beta     115.936
_cell_angle_gamma    90

_symmetry_space_group_name_H-M    "P 1"
_symmetry_int_tables_number       1

loop_
  _symmetry_equiv_pos_as_xyz
  'x, y, z'

loop_
  _atom_site_label
  _atom_site_occupancy
  _atom_site_fract_x
  _atom_site_fract_y
  _atom_site_fract_z
  _atom_site_thermal_displace_type
  _atom_site_B_iso_or_equiv
  _atom_site_type_symbol
  Cu1      1.0000 0.00000  0.40467  0.50000  Biso   1.000  Cu
  Cu2      1.0000 0.50000  0.90467  0.50000  Biso   1.000  Cu
  Cu3      1.0000 0.00000  0.59533  0.50000  Biso   1.000  Cu
  Cu4      1.0000 0.50000  0.09533  0.50000  Biso   1.000  Cu
  Br1      1.0000 0.11542  0.50000  0.36553  Biso   1.000  Br
  Br2      1.0000 0.88458  0.50000  0.63447  Biso   1.000  Br
  Br3      1.0000 0.61542  0.00000  0.36553  Biso   1.000  Br
  Br4      1.0000 0.38458  0.00000  0.63447  Biso   1.000  Br
  C1       1.0000 0.22830  0.32022  0.73740  Biso   1.000  C
  C2       1.0000 0.77170  0.32022  0.26260  Biso   1.000  C
  C3       1.0000 0.72830  0.82022  0.73740  Biso   1.000  C
  C4       1.0000 0.27170  0.82022  0.26260  Biso   1.000  C
  C5       1.0000 0.77170  0.67978  0.26260  Biso   1.000  C
  C6       1.0000 0.22830  0.67978  0.73740  Biso   1.000  C
  C7       1.0000 0.27170  0.17978  0.26260  Biso   1.000  C
  C8       1.0000 0.72830  0.17978  0.73740  Biso   1.000  C
  C9       1.0000 0.17880  0.39398  0.96420  Biso   1.000  C
  C10      1.0000 0.82120  0.39398  0.03580  Biso   1.000  C
  C11      1.0000 0.67880  0.89398  0.96420  Biso   1.000  C
  C12      1.0000 0.32120  0.89398  0.03580  Biso   1.000  C
  C13      1.0000 0.82120  0.60602  0.03580  Biso   1.000  C
  C14      1.0000 0.17880  0.60602  0.96420  Biso   1.000  C
  C15      1.0000 0.32120  0.10602  0.03580  Biso   1.000  C
  C16      1.0000 0.67880  0.10602  0.96420  Biso   1.000  C
  H1       1.0000 0.12190  0.42600  0.99090  Biso   1.000  H
  H2       1.0000 0.87810  0.42600  0.00910  Biso   1.000  H
  H3       1.0000 0.62190  0.92600  0.99090  Biso   1.000  H
  H4       1.0000 0.37810  0.92600  0.00910  Biso   1.000  H
  H5       1.0000 0.87810  0.57400  0.00910  Biso   1.000  H
  H6       1.0000 0.12190  0.57400  0.99090  Biso   1.000  H
  H7       1.0000 0.37810  0.07400  0.00910  Biso   1.000  H
  H8       1.0000 0.62190  0.07400  0.99090  Biso   1.000  H
  C17      1.0000 0.29470  0.37619  0.13400  Biso   1.000  C
  C18      1.0000 0.70530  0.37619  0.86600  Biso   1.000  C
  C19      1.0000 0.79470  0.87619  0.13400  Biso   1.000  C
  C20      1.0000 0.20530  0.87619  0.86600  Biso   1.000  C
  C21      1.0000 0.70530  0.62381  0.86600  Biso   1.000  C
  C22      1.0000 0.29470  0.62381  0.13400  Biso   1.000  C
  C23      1.0000 0.20530  0.12381  0.86600  Biso   1.000  C
  C24      1.0000 0.79470  0.12381  0.13400  Biso   1.000  C
  H9       1.0000 0.31890  0.39550  0.27640  Biso   1.000  H
  H10      1.0000 0.68110  0.39550  0.72360  Biso   1.000  H
  H11      1.0000 0.81890  0.89550  0.27640  Biso   1.000  H
  H12      1.0000 0.18110  0.89550  0.72360  Biso   1.000  H
  H13      1.0000 0.68110  0.60450  0.72360  Biso   1.000  H
  H14      1.0000 0.31890  0.60450  0.27640  Biso   1.000  H
  H15      1.0000 0.18110  0.10450  0.72360  Biso   1.000  H
  H16      1.0000 0.81890  0.10450  0.27640  Biso   1.000  H
  C25      1.0000 0.37360  0.32924  0.08760  Biso   1.000  C
  C26      1.0000 0.62640  0.32924  0.91240  Biso   1.000  C
  C27      1.0000 0.87360  0.82924  0.08760  Biso   1.000  C
  C28      1.0000 0.12640  0.82924  0.91240  Biso   1.000  C
  C29      1.0000 0.62640  0.67076  0.91240  Biso   1.000  C
  C30      1.0000 0.37360  0.67076  0.08760  Biso   1.000  C
  C31      1.0000 0.12640  0.17076  0.91240  Biso   1.000  C
  C32      1.0000 0.87360  0.17076  0.08760  Biso   1.000  C
  H17      1.0000 0.45440  0.31710  0.20090  Biso   1.000  H
  H18      1.0000 0.54560  0.31710  0.79910  Biso   1.000  H
  H19      1.0000 0.95440  0.81710  0.20090  Biso   1.000  H
  H20      1.0000 0.04560  0.81710  0.79910  Biso   1.000  H
  H21      1.0000 0.54560  0.68290  0.79910  Biso   1.000  H
  H22      1.0000 0.45440  0.68290  0.20090  Biso   1.000  H
  H23      1.0000 0.04560  0.18290  0.79910  Biso   1.000  H
  H24      1.0000 0.95440  0.18290  0.20090  Biso   1.000  H
  N1       1.0000 0.14496  0.36708  0.76300  Biso   1.000  N
  N2       1.0000 0.85504  0.36708  0.23700  Biso   1.000  N
  N3       1.0000 0.64496  0.86708  0.76300  Biso   1.000  N
  N4       1.0000 0.35504  0.86708  0.23700  Biso   1.000  N
  N5       1.0000 0.85504  0.63292  0.23700  Biso   1.000  N
  N6       1.0000 0.14496  0.63292  0.76300  Biso   1.000  N
  N7       1.0000 0.35504  0.13292  0.23700  Biso   1.000  N
  N8       1.0000 0.64496  0.13292  0.76300  Biso   1.000  N
  N9       1.0000 0.34095  0.29998  0.88890  Biso   1.000  N
  N10      1.0000 0.65905  0.29998  0.11110  Biso   1.000  N
  N11      1.0000 0.84095  0.79998  0.88890  Biso   1.000  N
  N12      1.0000 0.15905  0.79998  0.11110  Biso   1.000  N
  N13      1.0000 0.65905  0.70002  0.11110  Biso   1.000  N
  N14      1.0000 0.34095  0.70002  0.88890  Biso   1.000  N
  N15      1.0000 0.15905  0.20002  0.11110  Biso   1.000  N
  N16      1.0000 0.84095  0.20002  0.88890  Biso   1.000  N
  S1       1.0000 0.17168  0.28563  0.46970  Biso   1.000  S
  S2       1.0000 0.82832  0.28563  0.53030  Biso   1.000  S
  S3       1.0000 0.67168  0.78563  0.46970  Biso   1.000  S
  S4       1.0000 0.32832  0.78563  0.53030  Biso   1.000  S
  S5       1.0000 0.82832  0.71437  0.53030  Biso   1.000  S
  S6       1.0000 0.17168  0.71437  0.46970  Biso   1.000  S
  S7       1.0000 0.32832  0.21437  0.53030  Biso   1.000  S
  S8       1.0000 0.67168  0.21437  0.46970  Biso   1.000  S
  C33      1.0000 0.43700  0.50000  0.70200  Biso   1.000  C
  C34      1.0000 0.56300  0.50000  0.29800  Biso   1.000  C
  C35      1.0000 0.93700  0.00000  0.70200  Biso   1.000  C
  C36      1.0000 0.06300  0.00000  0.29800  Biso   1.000  C
  N17      1.0000 0.45000  0.50000  0.54600  Biso   1.000  N
  N18      1.0000 0.55000  0.50000  0.45400  Biso   1.000  N
  N19      1.0000 0.95000  0.00000  0.54600  Biso   1.000  N
  N20      1.0000 0.05000  0.00000  0.45400  Biso   1.000  N
  C37      1.0000 0.43700  0.50000  0.91200  Biso   1.000  C
  C38      1.0000 0.56300  0.50000  0.08800  Biso   1.000  C
  C39      1.0000 0.93700  0.00000  0.91200  Biso   1.000  C
  C40      1.0000 0.06300  0.00000  0.08800  Biso   1.000  C
