data_image0
_cell_length_a       13.081
_cell_length_b       19.687
_cell_length_c       17.017
_cell_angle_alpha    90
_cell_angle_beta     110.097
_cell_angle_gamma    90

_symmetry_space_group_name_H-M    "P 1"
_symmetry_int_tables_number       1

loop_
  _symmetry_equiv_pos_as_xyz
  'x, y, z'

loop_
  _atom_site_label
  _atom_site_occupancy
  _atom_site_fract_x
  _atom_site_fract_y
  _atom_site_fract_z
  _atom_site_thermal_displace_type
  _atom_site_B_iso_or_equiv
  _atom_site_type_symbol
  Cu1      1.0000 0.64370  0.39257  0.57601  Biso   1.000  Cu
  Cu2      1.0000 0.14370  0.60743  0.57601  Biso   1.000  Cu
  Cu3      1.0000 0.81800  0.60008  0.22910  Biso   1.000  Cu
  Cu4      1.0000 0.31800  0.39992  0.22910  Biso   1.000  Cu
  Cu5      1.0000 0.83130  0.12394  0.18301  Biso   1.000  Cu
  Cu6      1.0000 0.33130  0.87606  0.18301  Biso   1.000  Cu
  Cu7      1.0000 0.92950  0.85157  0.12015  Biso   1.000  Cu
  Cu8      1.0000 0.42950  0.14843  0.12015  Biso   1.000  Cu
  Cu9      1.0000 0.92980  0.33924  0.17827  Biso   1.000  Cu
  Cu10     1.0000 0.42980  0.66076  0.17827  Biso   1.000  Cu
  Cu11     1.0000 0.75690  0.13672  0.47136  Biso   1.000  Cu
  Cu12     1.0000 0.25690  0.86328  0.47136  Biso   1.000  Cu
  Cu13     1.0000 0.73570  0.66152  0.51567  Biso   1.000  Cu
  Cu14     1.0000 0.23570  0.33848  0.51567  Biso   1.000  Cu
  Cu15     1.0000 0.16090  0.12300  0.52962  Biso   1.000  Cu
  Cu16     1.0000 0.66090  0.87700  0.52962  Biso   1.000  Cu
  S1       1.0000 0.95950  0.11660  0.48110  Biso   1.000  S
  S2       1.0000 0.45950  0.88340  0.48110  Biso   1.000  S
  S3       1.0000 0.73240  0.30260  0.66560  Biso   1.000  S
  S4       1.0000 0.23240  0.69740  0.66560  Biso   1.000  S
  S5       1.0000 0.62670  0.63900  0.22050  Biso   1.000  S
  S6       1.0000 0.12670  0.36100  0.22050  Biso   1.000  S
  S7       1.0000 0.85970  0.93470  0.01860  Biso   1.000  S
  S8       1.0000 0.35970  0.06530  0.01860  Biso   1.000  S
  S9       1.0000 0.71710  0.95200  0.64180  Biso   1.000  S
  S10      1.0000 0.21710  0.04800  0.64180  Biso   1.000  S
  S11      1.0000 0.87800  0.75650  0.03280  Biso   1.000  S
  S12      1.0000 0.37800  0.24350  0.03280  Biso   1.000  S
  S13      1.0000 0.85720  0.41400  0.06770  Biso   1.000  S
  S14      1.0000 0.35720  0.58600  0.06770  Biso   1.000  S
  S15      1.0000 0.68890  0.47580  0.67930  Biso   1.000  S
  S16      1.0000 0.18890  0.52420  0.67930  Biso   1.000  S
  S17      1.0000 0.94230  0.62380  0.52300  Biso   1.000  S
  S18      1.0000 0.44230  0.37620  0.52300  Biso   1.000  S
  S19      1.0000 0.63620  0.14240  0.17640  Biso   1.000  S
  S20      1.0000 0.13620  0.85760  0.17640  Biso   1.000  S
  S21      1.0000 0.74300  0.76910  0.57240  Biso   1.000  S
  S22      1.0000 0.24300  0.23090  0.57240  Biso   1.000  S
  S23      1.0000 0.88500  0.22610  0.13770  Biso   1.000  S
  S24      1.0000 0.38500  0.77390  0.13770  Biso   1.000  S
  N1       1.0000 0.65970  0.39750  0.46060  Biso   1.000  N
  N2       1.0000 0.15970  0.60250  0.46060  Biso   1.000  N
  N3       1.0000 0.67620  0.65700  0.39270  Biso   1.000  N
  N4       1.0000 0.17620  0.34300  0.39270  Biso   1.000  N
  N5       1.0000 0.91700  0.86190  0.23750  Biso   1.000  N
  N6       1.0000 0.41700  0.13810  0.23750  Biso   1.000  N
  C1       1.0000 0.95110  0.37120  0.55150  Biso   1.000  C
  C2       1.0000 0.45110  0.62880  0.55150  Biso   1.000  C
  N7       1.0000 0.88760  0.60160  0.34630  Biso   1.000  N
  N8       1.0000 0.38760  0.39840  0.34630  Biso   1.000  N
  C3       1.0000 0.93020  0.41270  0.33270  Biso   1.000  C
  C4       1.0000 0.43020  0.58730  0.33270  Biso   1.000  C
  H1       1.0000 0.93971  0.45136  0.30254  Biso   1.000  H
  H2       1.0000 0.43971  0.54864  0.30254  Biso   1.000  H
  N9       1.0000 0.99740  0.38230  0.72520  Biso   1.000  N
  N10      1.0000 0.49740  0.61770  0.72520  Biso   1.000  N
  N11      1.0000 0.00880  0.88250  0.67030  Biso   1.000  N
  N12      1.0000 0.50880  0.11750  0.67030  Biso   1.000  N
  N13      1.0000 0.90290  0.11450  0.30280  Biso   1.000  N
  N14      1.0000 0.40290  0.88550  0.30280  Biso   1.000  N
  C5       1.0000 0.94800  0.86890  0.40920  Biso   1.000  C
  C6       1.0000 0.44800  0.13110  0.40920  Biso   1.000  C
  C7       1.0000 0.93340  0.36470  0.46250  Biso   1.000  C
  C8       1.0000 0.43340  0.63530  0.46250  Biso   1.000  C
  C9       1.0000 0.92750  0.11550  0.37760  Biso   1.000  C
  C10      1.0000 0.42750  0.88450  0.37760  Biso   1.000  C
  N15      1.0000 0.83140  0.04960  0.11360  Biso   1.000  N
  N16      1.0000 0.33140  0.95040  0.11360  Biso   1.000  N
  N17      1.0000 0.90840  0.35230  0.29060  Biso   1.000  N
  N18      1.0000 0.40840  0.64770  0.29060  Biso   1.000  N
  N19      1.0000 0.68720  0.14580  0.34950  Biso   1.000  N
  N20      1.0000 0.18720  0.85420  0.34950  Biso   1.000  N
  N21      1.0000 0.06940  0.11840  0.97760  Biso   1.000  N
  N22      1.0000 0.56940  0.88160  0.97760  Biso   1.000  N
  N23      1.0000 0.76900  0.21300  0.54870  Biso   1.000  N
  N24      1.0000 0.26900  0.78700  0.54870  Biso   1.000  N
  N25      1.0000 0.84960  0.66470  0.15210  Biso   1.000  N
  N26      1.0000 0.34960  0.33530  0.15210  Biso   1.000  N
  C11      1.0000 0.75690  0.24860  0.59950  Biso   1.000  C
  C12      1.0000 0.25690  0.75140  0.59950  Biso   1.000  C
  C13      1.0000 0.12480  0.11510  0.14860  Biso   1.000  C
  C14      1.0000 0.62480  0.88490  0.14860  Biso   1.000  C
  C15      1.0000 0.62030  0.33060  0.07780  Biso   1.000  C
  C16      1.0000 0.12030  0.66940  0.07780  Biso   1.000  C
  H3       1.0000 0.64324  0.29240  0.05412  Biso   1.000  H
  H4       1.0000 0.14324  0.70760  0.05412  Biso   1.000  H
  N27      1.0000 0.80040  0.51350  0.16490  Biso   1.000  N
  N28      1.0000 0.30040  0.48650  0.16490  Biso   1.000  N
  N29      1.0000 0.56320  0.38080  0.02560  Biso   1.000  N
  N30      1.0000 0.06320  0.61920  0.02560  Biso   1.000  N
  C17      1.0000 0.90530  0.29800  0.33800  Biso   1.000  C
  C18      1.0000 0.40530  0.70200  0.33800  Biso   1.000  C
  H5       1.0000 0.89885  0.25418  0.31342  Biso   1.000  H
  H6       1.0000 0.39885  0.74582  0.31342  Biso   1.000  H
  C19      1.0000 0.14920  0.17280  0.28570  Biso   1.000  C
  C20      1.0000 0.64920  0.82720  0.28570  Biso   1.000  C
  H7       1.0000 0.13839  0.21501  0.25696  Biso   1.000  H
  H8       1.0000 0.63839  0.78499  0.25696  Biso   1.000  H
  C21      1.0000 0.63200  0.33580  0.33070  Biso   1.000  C
  C22      1.0000 0.13200  0.66420  0.33070  Biso   1.000  C
  H9       1.0000 0.62192  0.29356  0.30205  Biso   1.000  H
  H10      1.0000 0.12192  0.70644  0.30205  Biso   1.000  H
  N31      1.0000 0.71670  0.58690  0.58240  Biso   1.000  N
  N32      1.0000 0.21670  0.41310  0.58240  Biso   1.000  N
  C23      1.0000 0.17970  0.05260  0.37270  Biso   1.000  C
  C24      1.0000 0.67970  0.94740  0.37270  Biso   1.000  C
  H11      1.0000 0.18635  0.01063  0.40153  Biso   1.000  H
  H12      1.0000 0.68635  0.98937  0.40153  Biso   1.000  H
  N33      1.0000 0.74000  0.74810  0.73940  Biso   1.000  N
  N34      1.0000 0.24000  0.25190  0.73940  Biso   1.000  N
  C25      1.0000 0.08260  0.05620  0.09730  Biso   1.000  C
  C26      1.0000 0.58260  0.94380  0.09730  Biso   1.000  C
  H13      1.0000 0.07289  0.01473  0.12232  Biso   1.000  H
  H14      1.0000 0.57289  0.98527  0.12232  Biso   1.000  H
  C27      1.0000 0.02210  0.81970  0.63720  Biso   1.000  C
  C28      1.0000 0.52210  0.18030  0.63720  Biso   1.000  C
  H15      1.0000 0.04615  0.78094  0.67203  Biso   1.000  H
  H16      1.0000 0.54615  0.21906  0.67203  Biso   1.000  H
  C29      1.0000 0.64530  0.33320  0.16160  Biso   1.000  C
  C30      1.0000 0.14530  0.66680  0.16160  Biso   1.000  C
  H17      1.0000 0.68030  0.29630  0.19650  Biso   1.000  H
  H18      1.0000 0.18030  0.70370  0.19650  Biso   1.000  H
  C31      1.0000 0.03620  0.88660  0.76200  Biso   1.000  C
  C32      1.0000 0.53620  0.11340  0.76200  Biso   1.000  C
  C33      1.0000 0.65130  0.45350  0.33340  Biso   1.000  C
  C34      1.0000 0.15130  0.54650  0.33340  Biso   1.000  C
  H19      1.0000 0.65221  0.49448  0.30417  Biso   1.000  H
  H20      1.0000 0.15221  0.50552  0.30417  Biso   1.000  H
  C35      1.0000 0.95670  0.43660  0.67170  Biso   1.000  C
  C36      1.0000 0.45670  0.56340  0.67170  Biso   1.000  C
  H21      1.0000 0.94589  0.47880  0.69478  Biso   1.000  H
  H22      1.0000 0.44589  0.52120  0.69478  Biso   1.000  H
  C37      1.0000 0.96690  0.87310  0.49650  Biso   1.000  C
  C38      1.0000 0.46690  0.12690  0.49650  Biso   1.000  C
  C39      1.0000 0.91100  0.30260  0.42250  Biso   1.000  C
  C40      1.0000 0.41100  0.69740  0.42250  Biso   1.000  C
  H23      1.0000 0.89954  0.26357  0.45122  Biso   1.000  H
  H24      1.0000 0.39954  0.73643  0.45122  Biso   1.000  H
  C41      1.0000 0.16350  0.17070  0.37090  Biso   1.000  C
  C42      1.0000 0.66350  0.82930  0.37090  Biso   1.000  C
  H25      1.0000 0.16198  0.21197  0.39938  Biso   1.000  H
  H26      1.0000 0.66198  0.78803  0.39938  Biso   1.000  H
  C43      1.0000 0.72760  0.01500  0.57720  Biso   1.000  C
  C44      1.0000 0.22760  0.98500  0.57720  Biso   1.000  C
  C45      1.0000 0.95600  0.93290  0.53840  Biso   1.000  C
  C46      1.0000 0.45600  0.06710  0.53840  Biso   1.000  C
  H27      1.0000 0.93095  0.97284  0.50608  Biso   1.000  H
  H28      1.0000 0.43095  0.02716  0.50608  Biso   1.000  H
  N35      1.0000 0.17920  0.11230  0.41340  Biso   1.000  N
  N36      1.0000 0.67920  0.88770  0.41340  Biso   1.000  N
  C47      1.0000 0.97850  0.93680  0.62360  Biso   1.000  C
  C48      1.0000 0.47850  0.06320  0.62360  Biso   1.000  C
  H29      1.0000 0.97215  0.97908  0.64849  Biso   1.000  H
  H30      1.0000 0.47215  0.02092  0.64849  Biso   1.000  H
  C49      1.0000 0.93000  0.91690  0.27480  Biso   1.000  C
  C50      1.0000 0.43000  0.08310  0.27480  Biso   1.000  C
  H31      1.0000 0.92778  0.95650  0.24222  Biso   1.000  H
  H32      1.0000 0.42778  0.04350  0.24222  Biso   1.000  H
  C51      1.0000 0.91010  0.80410  0.28120  Biso   1.000  C
  C52      1.0000 0.41010  0.19590  0.28120  Biso   1.000  C
  H33      1.0000 0.89160  0.76189  0.25266  Biso   1.000  H
  H34      1.0000 0.39160  0.23811  0.25266  Biso   1.000  H
  N37      1.0000 0.73530  0.05760  0.53700  Biso   1.000  N
  N38      1.0000 0.23530  0.94240  0.53700  Biso   1.000  N
  C53      1.0000 0.15110  0.11180  0.24250  Biso   1.000  C
  C54      1.0000 0.65110  0.88820  0.24250  Biso   1.000  C
  C55      1.0000 0.93230  0.43200  0.58980  Biso   1.000  C
  C56      1.0000 0.43230  0.56800  0.58980  Biso   1.000  C
  H35      1.0000 0.90148  0.47009  0.55572  Biso   1.000  H
  H36      1.0000 0.40148  0.52991  0.55572  Biso   1.000  H
  C57      1.0000 0.93950  0.42220  0.41470  Biso   1.000  C
  C58      1.0000 0.43950  0.57780  0.41470  Biso   1.000  C
  H37      1.0000 0.94973  0.46637  0.43873  Biso   1.000  H
  H38      1.0000 0.44973  0.53363  0.43873  Biso   1.000  H
  C59      1.0000 0.64520  0.33720  0.41910  Biso   1.000  C
  C60      1.0000 0.14520  0.66280  0.41910  Biso   1.000  C
  H39      1.0000 0.64360  0.29608  0.44782  Biso   1.000  H
  H40      1.0000 0.14360  0.70392  0.44782  Biso   1.000  H
  C61      1.0000 0.03300  0.12160  0.88770  Biso   1.000  C
  C62      1.0000 0.53300  0.87840  0.88770  Biso   1.000  C
  C63      1.0000 0.92990  0.80730  0.36560  Biso   1.000  C
  C64      1.0000 0.42990  0.19270  0.36560  Biso   1.000  C
  H41      1.0000 0.93140  0.76631  0.39553  Biso   1.000  H
  H42      1.0000 0.43140  0.23369  0.39553  Biso   1.000  H
  C65      1.0000 0.63390  0.39340  0.28920  Biso   1.000  C
  C66      1.0000 0.13390  0.60660  0.28920  Biso   1.000  C
  C67      1.0000 0.94940  0.92720  0.36130  Biso   1.000  C
  C68      1.0000 0.44940  0.07280  0.36130  Biso   1.000  C
  H43      1.0000 0.96249  0.97117  0.38578  Biso   1.000  H
  H44      1.0000 0.46249  0.02883  0.38578  Biso   1.000  H
  C69      1.0000 0.98870  0.31520  0.60640  Biso   1.000  C
  C70      1.0000 0.48870  0.68480  0.60640  Biso   1.000  C
  H45      1.0000 0.99395  0.27186  0.58356  Biso   1.000  H
  H46      1.0000 0.49395  0.72814  0.58356  Biso   1.000  H
  C71      1.0000 0.17100  0.05360  0.29110  Biso   1.000  C
  C72      1.0000 0.67100  0.94640  0.29110  Biso   1.000  C
  H47      1.0000 0.17848  0.01185  0.26564  Biso   1.000  H
  H48      1.0000 0.67848  0.98815  0.26564  Biso   1.000  H
  C73      1.0000 0.86100  0.70170  0.10330  Biso   1.000  C
  C74      1.0000 0.36100  0.29830  0.10330  Biso   1.000  C
  C75      1.0000 0.82100  0.47120  0.12330  Biso   1.000  C
  C76      1.0000 0.32100  0.52880  0.12330  Biso   1.000  C
  C77      1.0000 0.14440  0.17290  0.11080  Biso   1.000  C
  C78      1.0000 0.64440  0.82710  0.11080  Biso   1.000  C
  H49      1.0000 0.17824  0.21106  0.14375  Biso   1.000  H
  H50      1.0000 0.67824  0.78894  0.14375  Biso   1.000  H
  C79      1.0000 0.02400  0.35180  0.94670  Biso   1.000  C
  C80      1.0000 0.52400  0.64820  0.94670  Biso   1.000  C
  H51      1.0000 0.99760  0.32089  0.97827  Biso   1.000  H
  H52      1.0000 0.49760  0.67911  0.97827  Biso   1.000  H
  C81      1.0000 0.05800  0.06010  0.01660  Biso   1.000  C
  C82      1.0000 0.55800  0.93990  0.01660  Biso   1.000  C
  H53      1.0000 0.03104  0.02078  0.98373  Biso   1.000  H
  H54      1.0000 0.53104  0.97922  0.98373  Biso   1.000  H
  C83      1.0000 0.10200  0.13960  0.84340  Biso   1.000  C
  C84      1.0000 0.60200  0.86040  0.84340  Biso   1.000  C
  H55      1.0000 0.17517  0.15261  0.87226  Biso   1.000  H
  H56      1.0000 0.67517  0.84739  0.87226  Biso   1.000  H
  C85      1.0000 0.53440  0.43850  0.05880  Biso   1.000  C
  C86      1.0000 0.03440  0.56150  0.05880  Biso   1.000  C
  H57      1.0000 0.49541  0.47378  0.02278  Biso   1.000  H
  H58      1.0000 0.99541  0.52622  0.02278  Biso   1.000  H
  C87      1.0000 0.98000  0.34670  0.85450  Biso   1.000  C
  C88      1.0000 0.48000  0.65330  0.85450  Biso   1.000  C
  H59      1.0000 0.92087  0.31814  0.82448  Biso   1.000  H
  H60      1.0000 0.42087  0.68186  0.82448  Biso   1.000  H
  C89      1.0000 0.10530  0.44040  0.85630  Biso   1.000  C
  C90      1.0000 0.60530  0.55960  0.85630  Biso   1.000  C
  H61      1.0000 0.12789  0.47350  0.82509  Biso   1.000  H
  H62      1.0000 0.62789  0.52650  0.82509  Biso   1.000  H
  C91      1.0000 0.70430  0.54050  0.62210  Biso   1.000  C
  C92      1.0000 0.20430  0.45950  0.62210  Biso   1.000  C
  C93      1.0000 0.03440  0.38810  0.81740  Biso   1.000  C
  C94      1.0000 0.53440  0.61190  0.81740  Biso   1.000  C
  C95      1.0000 0.99800  0.81590  0.55010  Biso   1.000  C
  C96      1.0000 0.49800  0.18410  0.55010  Biso   1.000  C
  H63      1.0000 0.00373  0.77309  0.52614  Biso   1.000  H
  H64      1.0000 0.50373  0.22691  0.52614  Biso   1.000  H
  C97      1.0000 0.91430  0.60990  0.42400  Biso   1.000  C
  C98      1.0000 0.41430  0.39010  0.42400  Biso   1.000  C
  C99      1.0000 0.65830  0.64980  0.32430  Biso   1.000  C
  C100     1.0000 0.15830  0.35020  0.32430  Biso   1.000  C
  C101     1.0000 0.11390  0.17540  0.02250  Biso   1.000  C
  C102     1.0000 0.61390  0.82460  0.02250  Biso   1.000  C
  H65      1.0000 0.12395  0.21563  0.99514  Biso   1.000  H
  H66      1.0000 0.62395  0.78437  0.99514  Biso   1.000  H
  C103     1.0000 0.85800  0.22270  0.03470  Biso   1.000  C
  C104     1.0000 0.35800  0.77730  0.03470  Biso   1.000  C
  C105     1.0000 0.01780  0.32190  0.69190  Biso   1.000  C
  C106     1.0000 0.51780  0.67810  0.69190  Biso   1.000  C
  H67      1.0000 0.05161  0.28527  0.72773  Biso   1.000  H
  H68      1.0000 0.55161  0.71473  0.72773  Biso   1.000  H
  C107     1.0000 0.66820  0.45760  0.42090  Biso   1.000  C
  C108     1.0000 0.16820  0.54240  0.42090  Biso   1.000  C
  H69      1.0000 0.68435  0.49945  0.45034  Biso   1.000  H
  H70      1.0000 0.18435  0.50055  0.45034  Biso   1.000  H
  C109     1.0000 0.92300  0.11130  0.84050  Biso   1.000  C
  C110     1.0000 0.42300  0.88870  0.84050  Biso   1.000  C
  H71      1.0000 0.87300  0.10404  0.86866  Biso   1.000  H
  H72      1.0000 0.37300  0.89596  0.86866  Biso   1.000  H
  C111     1.0000 0.84420  0.99980  0.07470  Biso   1.000  C
  C112     1.0000 0.34420  0.00020  0.07470  Biso   1.000  C
  C113     1.0000 0.66770  0.14560  0.28000  Biso   1.000  C
  C114     1.0000 0.16770  0.85440  0.28000  Biso   1.000  C
  C115     1.0000 0.01660  0.84100  0.88510  Biso   1.000  C
  C116     1.0000 0.51660  0.15900  0.88510  Biso   1.000  C
  H73      1.0000 0.97892  0.81330  0.91188  Biso   1.000  H
  H74      1.0000 0.47892  0.18670  0.91188  Biso   1.000  H
  C117     1.0000 0.56190  0.44500  0.14380  Biso   1.000  C
  C118     1.0000 0.06190  0.55500  0.14380  Biso   1.000  C
  H75      1.0000 0.54240  0.48525  0.16608  Biso   1.000  H
  H76      1.0000 0.04240  0.51475  0.16608  Biso   1.000  H
  C119     1.0000 0.13600  0.93960  0.89280  Biso   1.000  C
  C120     1.0000 0.63600  0.06040  0.89280  Biso   1.000  C
  H77      1.0000 0.17944  0.97550  0.92466  Biso   1.000  H
  H78      1.0000 0.67944  0.02450  0.92466  Biso   1.000  H
  C121     1.0000 0.88800  0.11120  0.75710  Biso   1.000  C
  C122     1.0000 0.38800  0.88880  0.75710  Biso   1.000  C
  H79      1.0000 0.81353  0.10161  0.72716  Biso   1.000  H
  H80      1.0000 0.31353  0.89839  0.72716  Biso   1.000  H
  C123     1.0000 0.05900  0.13810  0.75400  Biso   1.000  C
  C124     1.0000 0.55900  0.86190  0.75400  Biso   1.000  C
  H81      1.0000 0.10540  0.14683  0.72242  Biso   1.000  H
  H82      1.0000 0.60540  0.85317  0.72242  Biso   1.000  H
  C125     1.0000 0.11000  0.93680  0.80360  Biso   1.000  C
  C126     1.0000 0.61000  0.06320  0.80360  Biso   1.000  C
  H83      1.0000 0.14041  0.96742  0.77475  Biso   1.000  H
  H84      1.0000 0.64041  0.03258  0.77475  Biso   1.000  H
  C127     1.0000 0.10250  0.40010  0.99050  Biso   1.000  C
  C128     1.0000 0.60250  0.59990  0.99050  Biso   1.000  C
  H85      1.0000 0.12738  0.40354  0.04975  Biso   1.000  H
  H86      1.0000 0.62738  0.59646  0.04975  Biso   1.000  H
  C129     1.0000 0.53400  0.37420  0.93480  Biso   1.000  C
  C130     1.0000 0.03400  0.62580  0.93480  Biso   1.000  C
  C131     1.0000 0.14100  0.44160  0.94220  Biso   1.000  C
  C132     1.0000 0.64100  0.55840  0.94220  Biso   1.000  C
  H87      1.0000 0.19606  0.47348  0.97011  Biso   1.000  H
  H88      1.0000 0.69606  0.52652  0.97011  Biso   1.000  H
  C133     1.0000 0.61610  0.39540  0.19630  Biso   1.000  C
  C134     1.0000 0.11610  0.60460  0.19630  Biso   1.000  C
  C135     1.0000 0.95300  0.12420  0.71550  Biso   1.000  C
  C136     1.0000 0.45300  0.87580  0.71550  Biso   1.000  C
  H89      1.0000 0.92458  0.12375  0.65606  Biso   1.000  H
  H90      1.0000 0.42458  0.87625  0.65606  Biso   1.000  H
  C137     1.0000 0.09900  0.89090  0.92950  Biso   1.000  C
  C138     1.0000 0.59900  0.10910  0.92950  Biso   1.000  C
  H91      1.0000 0.12845  0.88810  0.98882  Biso   1.000  H
  H92      1.0000 0.62845  0.11190  0.98882  Biso   1.000  H
  C139     1.0000 0.57400  0.34810  0.81180  Biso   1.000  C
  C140     1.0000 0.07400  0.65190  0.81180  Biso   1.000  C
  H93      1.0000 0.61971  0.32641  0.78644  Biso   1.000  H
  H94      1.0000 0.11971  0.67359  0.78644  Biso   1.000  H
  N39      1.0000 0.84100  0.22710  0.96550  Biso   1.000  N
  N40      1.0000 0.34100  0.77290  0.96550  Biso   1.000  N
  C141     1.0000 0.47600  0.36970  0.76410  Biso   1.000  C
  C142     1.0000 0.97600  0.63030  0.76410  Biso   1.000  C
  H95      1.0000 0.45814  0.37232  0.70512  Biso   1.000  H
  H96      1.0000 0.95814  0.62768  0.70512  Biso   1.000  H
  C143     1.0000 1.00000  0.83840  0.80560  Biso   1.000  C
  C144     1.0000 0.50000  0.16160  0.80560  Biso   1.000  C
  H97      1.0000 0.95990  0.80083  0.77506  Biso   1.000  H
  H98      1.0000 0.45990  0.19917  0.77506  Biso   1.000  H
  C145     1.0000 0.42700  0.38810  0.88230  Biso   1.000  C
  C146     1.0000 0.92700  0.61190  0.88230  Biso   1.000  C
  H99      1.0000 0.37245  0.39742  0.90613  Biso   1.000  H
  H100     1.0000 0.87245  0.60258  0.90613  Biso   1.000  H
  C147     1.0000 0.61210  0.35680  0.90040  Biso   1.000  C
  C148     1.0000 0.11210  0.64320  0.90040  Biso   1.000  C
  H101     1.0000 0.68650  0.35107  0.93379  Biso   1.000  H
  H102     1.0000 0.18650  0.64893  0.93379  Biso   1.000  H
  C149     1.0000 0.75400  0.75680  0.67140  Biso   1.000  C
  C150     1.0000 0.25400  0.24320  0.67140  Biso   1.000  C
  C151     1.0000 0.40100  0.38830  0.80100  Biso   1.000  C
  C152     1.0000 0.90100  0.61170  0.80100  Biso   1.000  C
  H103     1.0000 0.32953  0.40131  0.76650  Biso   1.000  H
  H104     1.0000 0.82953  0.59869  0.76650  Biso   1.000  H
