data_image0
_cell_length_a       14.57
_cell_length_b       7.2048
_cell_length_c       16.375
_cell_angle_alpha    90
_cell_angle_beta     106.271
_cell_angle_gamma    90

_symmetry_space_group_name_H-M    "P 1"
_symmetry_int_tables_number       1

loop_
  _symmetry_equiv_pos_as_xyz
  'x, y, z'

loop_
  _atom_site_label
  _atom_site_occupancy
  _atom_site_fract_x
  _atom_site_fract_y
  _atom_site_fract_z
  _atom_site_thermal_displace_type
  _atom_site_B_iso_or_equiv
  _atom_site_type_symbol
  Cu1      1.0000 0.84340  0.14142  0.37892  Biso   1.000  Cu
  Cu2      1.0000 0.65660  0.64142  0.12108  Biso   1.000  Cu
  Cu3      1.0000 0.15660  0.85858  0.62108  Biso   1.000  Cu
  Cu4      1.0000 0.34340  0.35858  0.87892  Biso   1.000  Cu
  S1       1.0000 0.79689  0.12725  0.50281  Biso   1.000  S
  S2       1.0000 0.70311  0.62725  0.99719  Biso   1.000  S
  S3       1.0000 0.20311  0.87275  0.49719  Biso   1.000  S
  S4       1.0000 0.29689  0.37275  0.00281  Biso   1.000  S
  S5       1.0000 0.58809  0.35626  0.14500  Biso   1.000  S
  S6       1.0000 0.91191  0.85626  0.35500  Biso   1.000  S
  S7       1.0000 0.41191  0.64374  0.85500  Biso   1.000  S
  S8       1.0000 0.08809  0.14374  0.64500  Biso   1.000  S
  N1       1.0000 0.21557  0.37300  0.45924  Biso   1.000  N
  N2       1.0000 0.28443  0.87300  0.04076  Biso   1.000  N
  N3       1.0000 0.78443  0.62700  0.54076  Biso   1.000  N
  N4       1.0000 0.71557  0.12700  0.95924  Biso   1.000  N
  N5       1.0000 0.73804  0.22180  0.27991  Biso   1.000  N
  N6       1.0000 0.76196  0.72180  0.22009  Biso   1.000  N
  N7       1.0000 0.26196  0.77820  0.72009  Biso   1.000  N
  N8       1.0000 0.23804  0.27820  0.77991  Biso   1.000  N
  C1       1.0000 0.12078  0.38890  0.40116  Biso   1.000  C
  C2       1.0000 0.37922  0.88890  0.09884  Biso   1.000  C
  C3       1.0000 0.87922  0.61110  0.59884  Biso   1.000  C
  C4       1.0000 0.62078  0.11110  0.90116  Biso   1.000  C
  C5       1.0000 0.23059  0.41690  0.54229  Biso   1.000  C
  C6       1.0000 0.26941  0.91690  0.95771  Biso   1.000  C
  C7       1.0000 0.76941  0.58310  0.45771  Biso   1.000  C
  C8       1.0000 0.73059  0.08310  0.04229  Biso   1.000  C
  H1       1.0000 0.17730  0.45400  0.55800  Biso   1.000  H
  H2       1.0000 0.32270  0.95400  0.94200  Biso   1.000  H
  H3       1.0000 0.82270  0.54600  0.44200  Biso   1.000  H
  H4       1.0000 0.67730  0.04600  0.05800  Biso   1.000  H
  C9       1.0000 0.32130  0.40830  0.59731  Biso   1.000  C
  C10      1.0000 0.17870  0.90830  0.90269  Biso   1.000  C
  C11      1.0000 0.67870  0.59170  0.40269  Biso   1.000  C
  C12      1.0000 0.82130  0.09170  0.09731  Biso   1.000  C
  N9       1.0000 0.95537  0.31480  0.36854  Biso   1.000  N
  N10      1.0000 0.54463  0.81480  0.13146  Biso   1.000  N
  N11      1.0000 0.04463  0.68520  0.63146  Biso   1.000  N
  N12      1.0000 0.45537  0.18520  0.86854  Biso   1.000  N
  C13      1.0000 0.94309  0.40510  0.29477  Biso   1.000  C
  C14      1.0000 0.55691  0.90510  0.20523  Biso   1.000  C
  C15      1.0000 0.05691  0.59490  0.70523  Biso   1.000  C
  C16      1.0000 0.44309  0.09490  0.79477  Biso   1.000  C
  H5       1.0000 0.88160  0.40800  0.25720  Biso   1.000  H
  H6       1.0000 0.61840  0.90800  0.24280  Biso   1.000  H
  H7       1.0000 0.11840  0.59200  0.74280  Biso   1.000  H
  H8       1.0000 0.38160  0.09200  0.75720  Biso   1.000  H
  C17      1.0000 0.65815  0.24910  0.66451  Biso   1.000  C
  C18      1.0000 0.84185  0.74910  0.83549  Biso   1.000  C
  C19      1.0000 0.34185  0.75090  0.33549  Biso   1.000  C
  C20      1.0000 0.15815  0.25090  0.16451  Biso   1.000  C
  H9       1.0000 0.70600  0.16800  0.65600  Biso   1.000  H
  H10      1.0000 0.79400  0.66800  0.84400  Biso   1.000  H
  H11      1.0000 0.29400  0.83200  0.34400  Biso   1.000  H
  H12      1.0000 0.20600  0.33200  0.15600  Biso   1.000  H
  C21      1.0000 0.10834  0.48400  0.32537  Biso   1.000  C
  C22      1.0000 0.39166  0.98400  0.17463  Biso   1.000  C
  C23      1.0000 0.89166  0.51600  0.67463  Biso   1.000  C
  C24      1.0000 0.60834  0.01600  0.82537  Biso   1.000  C
  H13      1.0000 0.16070  0.53800  0.31010  Biso   1.000  H
  H14      1.0000 0.33930  0.03800  0.18990  Biso   1.000  H
  H15      1.0000 0.83930  0.46200  0.68990  Biso   1.000  H
  H16      1.0000 0.66070  0.96200  0.81010  Biso   1.000  H
  C25      1.0000 0.56640  0.24200  0.61001  Biso   1.000  C
  C26      1.0000 0.93360  0.74200  0.88999  Biso   1.000  C
  C27      1.0000 0.43360  0.75800  0.38999  Biso   1.000  C
  C28      1.0000 0.06640  0.25800  0.11001  Biso   1.000  C
  C29      1.0000 0.01675  0.49200  0.27104  Biso   1.000  C
  C30      1.0000 0.48325  0.99200  0.22896  Biso   1.000  C
  C31      1.0000 0.98325  0.50800  0.72896  Biso   1.000  C
  C32      1.0000 0.51675  0.00800  0.77104  Biso   1.000  C
  H17      1.0000 0.00240  0.55500  0.22170  Biso   1.000  H
  H18      1.0000 0.49760  0.05500  0.27830  Biso   1.000  H
  H19      1.0000 0.99760  0.44500  0.77830  Biso   1.000  H
  H20      1.0000 0.50240  0.94500  0.72170  Biso   1.000  H
  C33      1.0000 0.49717  0.36000  0.62413  Biso   1.000  C
  C34      1.0000 0.00283  0.86000  0.87587  Biso   1.000  C
  C35      1.0000 0.50283  0.64000  0.37587  Biso   1.000  C
  C36      1.0000 0.99717  0.14000  0.12413  Biso   1.000  C
  C37      1.0000 0.67880  0.13310  0.45683  Biso   1.000  C
  C38      1.0000 0.82120  0.63310  0.04317  Biso   1.000  C
  C39      1.0000 0.32120  0.86690  0.54317  Biso   1.000  C
  C40      1.0000 0.17880  0.36690  0.95683  Biso   1.000  C
  N13      1.0000 0.68464  0.36300  0.73189  Biso   1.000  N
  N14      1.0000 0.81536  0.86300  0.76811  Biso   1.000  N
  N15      1.0000 0.31536  0.63700  0.26811  Biso   1.000  N
  N16      1.0000 0.18464  0.13700  0.23189  Biso   1.000  N
  C41      1.0000 0.38032  0.31010  0.48139  Biso   1.000  C
  C42      1.0000 0.11968  0.81010  0.01861  Biso   1.000  C
  C43      1.0000 0.61968  0.68990  0.51861  Biso   1.000  C
  C44      1.0000 0.88032  0.18990  0.98139  Biso   1.000  C
  H21      1.0000 0.42830  0.27200  0.45880  Biso   1.000  H
  H22      1.0000 0.07170  0.77200  0.04120  Biso   1.000  H
  H23      1.0000 0.57170  0.72800  0.54120  Biso   1.000  H
  H24      1.0000 0.92830  0.22800  0.95880  Biso   1.000  H
  C45      1.0000 0.67719  0.27780  0.22422  Biso   1.000  C
  C46      1.0000 0.82281  0.77780  0.27578  Biso   1.000  C
  C47      1.0000 0.32281  0.72220  0.77578  Biso   1.000  C
  C48      1.0000 0.17719  0.22220  0.72422  Biso   1.000  C
  C49      1.0000 0.52348  0.47980  0.69355  Biso   1.000  C
  C50      1.0000 0.97652  0.97980  0.80645  Biso   1.000  C
  C51      1.0000 0.47652  0.52020  0.30645  Biso   1.000  C
  C52      1.0000 0.02348  0.02020  0.19355  Biso   1.000  C
  C53      1.0000 0.04456  0.30680  0.42166  Biso   1.000  C
  C54      1.0000 0.45544  0.80680  0.07834  Biso   1.000  C
  C55      1.0000 0.95544  0.69320  0.57834  Biso   1.000  C
  C56      1.0000 0.54456  0.19320  0.92166  Biso   1.000  C
  H25      1.0000 0.05310  0.23700  0.47680  Biso   1.000  H
  H26      1.0000 0.44690  0.73700  0.02320  Biso   1.000  H
  H27      1.0000 0.94690  0.76300  0.52320  Biso   1.000  H
  H28      1.0000 0.55310  0.26300  0.97680  Biso   1.000  H
  N17      1.0000 0.59711  0.13950  0.42670  Biso   1.000  N
  N18      1.0000 0.90289  0.63950  0.07330  Biso   1.000  N
  N19      1.0000 0.40289  0.86050  0.57330  Biso   1.000  N
  N20      1.0000 0.09711  0.36050  0.92670  Biso   1.000  N
  C57      1.0000 0.61707  0.47420  0.74523  Biso   1.000  C
  C58      1.0000 0.88293  0.97420  0.75477  Biso   1.000  C
  C59      1.0000 0.38293  0.52580  0.25477  Biso   1.000  C
  C60      1.0000 0.11707  0.02580  0.24523  Biso   1.000  C
  H29      1.0000 0.63430  0.55500  0.79430  Biso   1.000  H
  H30      1.0000 0.86570  0.05500  0.70570  Biso   1.000  H
  H31      1.0000 0.36570  0.44500  0.20570  Biso   1.000  H
  H32      1.0000 0.13430  0.94500  0.29430  Biso   1.000  H
  C61      1.0000 0.39863  0.35900  0.56723  Biso   1.000  C
  C62      1.0000 0.10137  0.85900  0.93277  Biso   1.000  C
  C63      1.0000 0.60137  0.64100  0.43277  Biso   1.000  C
  C64      1.0000 0.89863  0.14100  0.06723  Biso   1.000  C
  C65      1.0000 0.28846  0.31740  0.42865  Biso   1.000  C
  C66      1.0000 0.21154  0.81740  0.07135  Biso   1.000  C
  C67      1.0000 0.71154  0.68260  0.57135  Biso   1.000  C
  C68      1.0000 0.78846  0.18260  0.92865  Biso   1.000  C
  H33      1.0000 0.27240  0.28800  0.37250  Biso   1.000  H
  H34      1.0000 0.22760  0.78800  0.12750  Biso   1.000  H
  H35      1.0000 0.72760  0.71200  0.62750  Biso   1.000  H
  H36      1.0000 0.77240  0.21200  0.87250  Biso   1.000  H
  H37      1.0000 0.32910  0.43600  0.65100  Biso   1.000  H
  H38      1.0000 0.17090  0.93600  0.84900  Biso   1.000  H
  H39      1.0000 0.67090  0.56400  0.34900  Biso   1.000  H
  H40      1.0000 0.82910  0.06400  0.15100  Biso   1.000  H
  H41      1.0000 0.55250  0.15900  0.56500  Biso   1.000  H
  H42      1.0000 0.94750  0.65900  0.93500  Biso   1.000  H
  H43      1.0000 0.44750  0.84100  0.43500  Biso   1.000  H
  H44      1.0000 0.05250  0.34100  0.06500  Biso   1.000  H
  H45      1.0000 0.47940  0.57200  0.70590  Biso   1.000  H
  H46      1.0000 0.02060  0.07200  0.79410  Biso   1.000  H
  H47      1.0000 0.52060  0.42800  0.29410  Biso   1.000  H
  H48      1.0000 0.97940  0.92800  0.20590  Biso   1.000  H
