data_image0
_cell_length_a       11.949
_cell_length_b       12.263
_cell_length_c       13.213
_cell_angle_alpha    108.677
_cell_angle_beta     108.348
_cell_angle_gamma    104.458

_symmetry_space_group_name_H-M    "P 1"
_symmetry_int_tables_number       1

loop_
  _symmetry_equiv_pos_as_xyz
  'x, y, z'

loop_
  _atom_site_label
  _atom_site_occupancy
  _atom_site_fract_x
  _atom_site_fract_y
  _atom_site_fract_z
  _atom_site_thermal_displace_type
  _atom_site_B_iso_or_equiv
  _atom_site_type_symbol
  Cu1      1.0000 0.38302  0.39643  0.00933  Biso   1.000  Cu
  Cu2      1.0000 0.61698  0.60357  0.99067  Biso   1.000  Cu
  Cu3      1.0000 0.02222  0.89551  0.89124  Biso   1.000  Cu
  Cu4      1.0000 0.97778  0.10449  0.10876  Biso   1.000  Cu
  Cu5      1.0000 0.12549  0.48357  0.59376  Biso   1.000  Cu
  Cu6      1.0000 0.87451  0.51643  0.40624  Biso   1.000  Cu
  N1       1.0000 0.10390  0.16010  0.05140  Biso   1.000  N
  N2       1.0000 0.89610  0.83990  0.94860  Biso   1.000  N
  N3       1.0000 0.12630  0.07440  0.97000  Biso   1.000  N
  N4       1.0000 0.87370  0.92560  0.03000  Biso   1.000  N
  N5       1.0000 0.25390  0.26530  0.01370  Biso   1.000  N
  N6       1.0000 0.74610  0.73470  0.98630  Biso   1.000  N
  N7       1.0000 0.96190  0.62720  0.57480  Biso   1.000  N
  N8       1.0000 0.03810  0.37280  0.42520  Biso   1.000  N
  N9       1.0000 0.07020  0.62150  0.64960  Biso   1.000  N
  N10      1.0000 0.92980  0.37850  0.35040  Biso   1.000  N
  N11      1.0000 0.02830  0.77390  0.75630  Biso   1.000  N
  N12      1.0000 0.97170  0.22610  0.24370  Biso   1.000  N
  N13      1.0000 0.44180  0.52190  0.86690  Biso   1.000  N
  N14      1.0000 0.55820  0.47810  0.13310  Biso   1.000  N
  N15      1.0000 0.34540  0.43970  0.87520  Biso   1.000  N
  N16      1.0000 0.65460  0.56030  0.12480  Biso   1.000  N
  N17      1.0000 0.25610  0.47120  0.71790  Biso   1.000  N
  N18      1.0000 0.74390  0.52880  0.28210  Biso   1.000  N
  C1       1.0000 0.18360  0.27350  0.07570  Biso   1.000  C
  C2       1.0000 0.81640  0.72650  0.92430  Biso   1.000  C
  C3       1.0000 0.19120  0.39310  0.15880  Biso   1.000  C
  C4       1.0000 0.80880  0.60690  0.84120  Biso   1.000  C
  H1       1.0000 0.27800  0.43750  0.22520  Biso   1.000  H
  H2       1.0000 0.72200  0.56250  0.77480  Biso   1.000  H
  H3       1.0000 0.12910  0.37470  0.19200  Biso   1.000  H
  H4       1.0000 0.87090  0.62530  0.80800  Biso   1.000  H
  C5       1.0000 0.16370  0.47800  0.10080  Biso   1.000  C
  C6       1.0000 0.83630  0.52200  0.89920  Biso   1.000  C
  H5       1.0000 0.17050  0.55530  0.15960  Biso   1.000  H
  H6       1.0000 0.82950  0.44470  0.84040  Biso   1.000  H
  H7       1.0000 0.07700  0.43550  0.03640  Biso   1.000  H
  H8       1.0000 0.92300  0.56450  0.96360  Biso   1.000  H
  H9       1.0000 0.22580  0.49780  0.06890  Biso   1.000  H
  H10      1.0000 0.77420  0.50220  0.93110  Biso   1.000  H
  C7       1.0000 0.21610  0.14130  0.94990  Biso   1.000  C
  C8       1.0000 0.78390  0.85870  0.05010  Biso   1.000  C
  C9       1.0000 0.27290  0.08710  0.87100  Biso   1.000  C
  C10      1.0000 0.72710  0.91290  0.12900  Biso   1.000  C
  H11      1.0000 0.26990  0.12600  0.81560  Biso   1.000  H
  H12      1.0000 0.73010  0.87400  0.18440  Biso   1.000  H
  H13      1.0000 0.22090  0.99630  0.82350  Biso   1.000  H
  H14      1.0000 0.77910  0.00370  0.17650  Biso   1.000  H
  C11      1.0000 0.41100  0.10710  0.94000  Biso   1.000  C
  C12      1.0000 0.58900  0.89290  0.06000  Biso   1.000  C
  H15      1.0000 0.44430  0.06980  0.88480  Biso   1.000  H
  H16      1.0000 0.55570  0.93020  0.11520  Biso   1.000  H
  H17      1.0000 0.41430  0.06750  0.99410  Biso   1.000  H
  H18      1.0000 0.58570  0.93250  0.00590  Biso   1.000  H
  H19      1.0000 0.46330  0.19690  0.98570  Biso   1.000  H
  H20      1.0000 0.53670  0.80310  0.01430  Biso   1.000  H
  C13      1.0000 0.94140  0.71900  0.64150  Biso   1.000  C
  C14      1.0000 0.05860  0.28100  0.35850  Biso   1.000  C
  C15      1.0000 0.83670  0.75960  0.59650  Biso   1.000  C
  C16      1.0000 0.16330  0.24040  0.40350  Biso   1.000  C
  H21      1.0000 0.78920  0.70970  0.50960  Biso   1.000  H
  H22      1.0000 0.21080  0.29030  0.49040  Biso   1.000  H
  H23      1.0000 0.77640  0.74230  0.63170  Biso   1.000  H
  H24      1.0000 0.22360  0.25770  0.36830  Biso   1.000  H
  C17      1.0000 0.88430  0.89810  0.62450  Biso   1.000  C
  C18      1.0000 0.11570  0.10190  0.37550  Biso   1.000  C
  H25      1.0000 0.81120  0.91910  0.59210  Biso   1.000  H
  H26      1.0000 0.18880  0.08090  0.40790  Biso   1.000  H
  H27      1.0000 0.92910  0.94820  0.71040  Biso   1.000  H
  H28      1.0000 0.07090  0.05180  0.28960  Biso   1.000  H
  H29      1.0000 0.94310  0.91580  0.58880  Biso   1.000  H
  H30      1.0000 0.05690  0.08420  0.41120  Biso   1.000  H
  C19      1.0000 0.10610  0.71110  0.75650  Biso   1.000  C
  C20      1.0000 0.89390  0.28890  0.24350  Biso   1.000  C
  C21      1.0000 0.22060  0.74060  0.86420  Biso   1.000  C
  C22      1.0000 0.77940  0.25940  0.13580  Biso   1.000  C
  H31      1.0000 0.27620  0.70080  0.83980  Biso   1.000  H
  H32      1.0000 0.72380  0.29920  0.16020  Biso   1.000  H
  H33      1.0000 0.27000  0.83220  0.90570  Biso   1.000  H
  H34      1.0000 0.73000  0.16780  0.09430  Biso   1.000  H
  C23      1.0000 0.18610  0.69640  0.94900  Biso   1.000  C
  C24      1.0000 0.81390  0.30360  0.05100  Biso   1.000  C
  H35      1.0000 0.26450  0.71830  0.01800  Biso   1.000  H
  H36      1.0000 0.73550  0.28170  0.98200  Biso   1.000  H
  H37      1.0000 0.13240  0.73670  0.97480  Biso   1.000  H
  H38      1.0000 0.86760  0.26330  0.02520  Biso   1.000  H
  H39      1.0000 0.13910  0.60550  0.90920  Biso   1.000  H
  H40      1.0000 0.86090  0.39450  0.09080  Biso   1.000  H
  C25      1.0000 0.38370  0.53840  0.77190  Biso   1.000  C
  C26      1.0000 0.61630  0.46160  0.22810  Biso   1.000  C
  C27      1.0000 0.45000  0.62300  0.73250  Biso   1.000  C
  C28      1.0000 0.55000  0.37700  0.26750  Biso   1.000  C
  H41      1.0000 0.54050  0.66950  0.79140  Biso   1.000  H
  H42      1.0000 0.45950  0.33050  0.20860  Biso   1.000  H
  H43      1.0000 0.41060  0.68480  0.73020  Biso   1.000  H
  H44      1.0000 0.58940  0.31520  0.26980  Biso   1.000  H
  C29      1.0000 0.44580  0.55720  0.61180  Biso   1.000  C
  C30      1.0000 0.55420  0.44280  0.38820  Biso   1.000  C
  H45      1.0000 0.49130  0.61910  0.59140  Biso   1.000  H
  H46      1.0000 0.50870  0.38090  0.40860  Biso   1.000  H
  H47      1.0000 0.35650  0.51250  0.55230  Biso   1.000  H
  H48      1.0000 0.64350  0.48750  0.44770  Biso   1.000  H
  H49      1.0000 0.48690  0.49760  0.61370  Biso   1.000  H
  H50      1.0000 0.51310  0.50240  0.38630  Biso   1.000  H
  C31      1.0000 0.23610  0.41150  0.78550  Biso   1.000  C
  C32      1.0000 0.76390  0.58850  0.21450  Biso   1.000  C
  C33      1.0000 0.10910  0.32630  0.76220  Biso   1.000  C
  C34      1.0000 0.89090  0.67370  0.23780  Biso   1.000  C
  H51      1.0000 0.05140  0.37180  0.76150  Biso   1.000  H
  H52      1.0000 0.94860  0.62820  0.23850  Biso   1.000  H
  H53      1.0000 0.11880  0.30070  0.82730  Biso   1.000  H
  H54      1.0000 0.88120  0.69930  0.17270  Biso   1.000  H
  C35      1.0000 0.04820  0.21000  0.64540  Biso   1.000  C
  C36      1.0000 0.95180  0.79000  0.35460  Biso   1.000  C
  H55      1.0000 0.96500  0.15690  0.63470  Biso   1.000  H
  H56      1.0000 0.03500  0.84310  0.36530  Biso   1.000  H
  H57      1.0000 0.10410  0.16350  0.64600  Biso   1.000  H
  H58      1.0000 0.89590  0.83650  0.35400  Biso   1.000  H
  H59      1.0000 0.03610  0.23440  0.58020  Biso   1.000  H
  H60      1.0000 0.96390  0.76560  0.41980  Biso   1.000  H
  N19      1.0000 0.23080  0.83480  0.26140  Biso   1.000  N
  N20      1.0000 0.76920  0.16520  0.73860  Biso   1.000  N
  C37      1.0000 0.26730  0.91850  0.24500  Biso   1.000  C
  C38      1.0000 0.73270  0.08150  0.75500  Biso   1.000  C
  C39      1.0000 0.31870  0.02650  0.22510  Biso   1.000  C
  C40      1.0000 0.68130  0.97350  0.77490  Biso   1.000  C
  H61      1.0000 0.34870  0.10320  0.29700  Biso   1.000  H
  H62      1.0000 0.65130  0.89680  0.70300  Biso   1.000  H
  H63      1.0000 0.25170  0.02700  0.15960  Biso   1.000  H
  H64      1.0000 0.74830  0.97300  0.84040  Biso   1.000  H
  H65      1.0000 0.39050  0.02210  0.20540  Biso   1.000  H
  H66      1.0000 0.60950  0.97790  0.79460  Biso   1.000  H
  N21      1.0000 0.47530  0.24130  0.53360  Biso   1.000  N
  N22      1.0000 0.52470  0.75870  0.46640  Biso   1.000  N
  C41      1.0000 0.47410  0.23390  0.61690  Biso   1.000  C
  C42      1.0000 0.52590  0.76610  0.38310  Biso   1.000  C
  C43      1.0000 0.47410  0.22700  0.72490  Biso   1.000  C
  C44      1.0000 0.52590  0.77300  0.27510  Biso   1.000  C
  H67      1.0000 0.56180  0.24880  0.78060  Biso   1.000  H
  H68      1.0000 0.43820  0.75120  0.21940  Biso   1.000  H
  H69      1.0000 0.42050  0.14180  0.70600  Biso   1.000  H
  H70      1.0000 0.57950  0.85820  0.29400  Biso   1.000  H
  H71      1.0000 0.43980  0.28560  0.76080  Biso   1.000  H
  H72      1.0000 0.56020  0.71440  0.23920  Biso   1.000  H
  N23      1.0000 0.33580  0.89660  0.65170  Biso   1.000  N
  N24      1.0000 0.66420  0.10340  0.34830  Biso   1.000  N
  C45      1.0000 0.28570  0.80920  0.56690  Biso   1.000  C
  C46      1.0000 0.71430  0.19080  0.43310  Biso   1.000  C
  C47      1.0000 0.22350  0.69710  0.45660  Biso   1.000  C
  C48      1.0000 0.77650  0.30290  0.54340  Biso   1.000  C
  H73      1.0000 0.14660  0.64120  0.45360  Biso   1.000  H
  H74      1.0000 0.85340  0.35880  0.54640  Biso   1.000  H
  H75      1.0000 0.28240  0.65480  0.45120  Biso   1.000  H
  H76      1.0000 0.71760  0.34520  0.54880  Biso   1.000  H
  H77      1.0000 0.19930  0.71950  0.39030  Biso   1.000  H
  H78      1.0000 0.80070  0.28050  0.60970  Biso   1.000  H
