data_image0
_cell_length_a       19.6052
_cell_length_b       19.6052
_cell_length_c       14.242
_cell_angle_alpha    90
_cell_angle_beta     90
_cell_angle_gamma    120

_symmetry_space_group_name_H-M    "P 1"
_symmetry_int_tables_number       1

loop_
  _symmetry_equiv_pos_as_xyz
  'x, y, z'

loop_
  _atom_site_label
  _atom_site_occupancy
  _atom_site_fract_x
  _atom_site_fract_y
  _atom_site_fract_z
  _atom_site_thermal_displace_type
  _atom_site_B_iso_or_equiv
  _atom_site_type_symbol
  Cu1      1.0000 0.11759  0.36892  0.27091  Biso   1.000  Cu
  Cu2      1.0000 0.63108  0.74867  0.27091  Biso   1.000  Cu
  Cu3      1.0000 0.25133  0.88241  0.27091  Biso   1.000  Cu
  Cu4      1.0000 0.78426  0.70225  0.60424  Biso   1.000  Cu
  Cu5      1.0000 0.29775  0.08200  0.60424  Biso   1.000  Cu
  Cu6      1.0000 0.91800  0.21574  0.60424  Biso   1.000  Cu
  Cu7      1.0000 0.45092  0.03559  0.93758  Biso   1.000  Cu
  Cu8      1.0000 0.96441  0.41534  0.93758  Biso   1.000  Cu
  Cu9      1.0000 0.58466  0.54908  0.93758  Biso   1.000  Cu
  Cu10     1.0000 0.88241  0.63108  0.72909  Biso   1.000  Cu
  Cu11     1.0000 0.36892  0.25133  0.72909  Biso   1.000  Cu
  Cu12     1.0000 0.74867  0.11759  0.72909  Biso   1.000  Cu
  Cu13     1.0000 0.54908  0.96441  0.06242  Biso   1.000  Cu
  Cu14     1.0000 0.03559  0.58466  0.06242  Biso   1.000  Cu
  Cu15     1.0000 0.41534  0.45092  0.06242  Biso   1.000  Cu
  Cu16     1.0000 0.21574  0.29775  0.39576  Biso   1.000  Cu
  Cu17     1.0000 0.70225  0.91800  0.39576  Biso   1.000  Cu
  Cu18     1.0000 0.08200  0.78426  0.39576  Biso   1.000  Cu
  N1       1.0000 0.11999  0.29309  0.44661  Biso   1.000  N
  N2       1.0000 0.70691  0.82690  0.44661  Biso   1.000  N
  N3       1.0000 0.17310  0.88001  0.44661  Biso   1.000  N
  N4       1.0000 0.78666  0.62642  0.77994  Biso   1.000  N
  N5       1.0000 0.37358  0.16023  0.77994  Biso   1.000  N
  N6       1.0000 0.83977  0.21334  0.77994  Biso   1.000  N
  N7       1.0000 0.45332  0.95976  0.11328  Biso   1.000  N
  N8       1.0000 0.04024  0.49357  0.11328  Biso   1.000  N
  N9       1.0000 0.50643  0.54668  0.11328  Biso   1.000  N
  N10      1.0000 0.88001  0.70691  0.55339  Biso   1.000  N
  N11      1.0000 0.29309  0.17310  0.55339  Biso   1.000  N
  N12      1.0000 0.82690  0.11999  0.55339  Biso   1.000  N
  N13      1.0000 0.54668  0.04024  0.88672  Biso   1.000  N
  N14      1.0000 0.95976  0.50643  0.88672  Biso   1.000  N
  N15      1.0000 0.49357  0.45332  0.88672  Biso   1.000  N
  N16      1.0000 0.21334  0.37358  0.22006  Biso   1.000  N
  N17      1.0000 0.62642  0.83977  0.22006  Biso   1.000  N
  N18      1.0000 0.16023  0.78666  0.22006  Biso   1.000  N
  N19      1.0000 0.08080  0.32248  0.39415  Biso   1.000  N
  N20      1.0000 0.67752  0.75832  0.39415  Biso   1.000  N
  N21      1.0000 0.24168  0.91920  0.39415  Biso   1.000  N
  N22      1.0000 0.74747  0.65581  0.72748  Biso   1.000  N
  N23      1.0000 0.34419  0.09165  0.72748  Biso   1.000  N
  N24      1.0000 0.90835  0.25253  0.72748  Biso   1.000  N
  N25      1.0000 0.41413  0.98915  0.06082  Biso   1.000  N
  N26      1.0000 0.01085  0.42499  0.06082  Biso   1.000  N
  N27      1.0000 0.57501  0.58587  0.06082  Biso   1.000  N
  N28      1.0000 0.91920  0.67752  0.60585  Biso   1.000  N
  N29      1.0000 0.32248  0.24168  0.60585  Biso   1.000  N
  N30      1.0000 0.75832  0.08080  0.60585  Biso   1.000  N
  N31      1.0000 0.58587  0.01085  0.93918  Biso   1.000  N
  N32      1.0000 0.98915  0.57501  0.93918  Biso   1.000  N
  N33      1.0000 0.42499  0.41413  0.93918  Biso   1.000  N
  N34      1.0000 0.25253  0.34419  0.27252  Biso   1.000  N
  N35      1.0000 0.65581  0.90835  0.27252  Biso   1.000  N
  N36      1.0000 0.09165  0.74747  0.27252  Biso   1.000  N
  N37      1.0000 0.01133  0.26825  0.52330  Biso   1.000  N
  N38      1.0000 0.73175  0.74308  0.52330  Biso   1.000  N
  N39      1.0000 0.25692  0.98867  0.52330  Biso   1.000  N
  N40      1.0000 0.67800  0.60158  0.85663  Biso   1.000  N
  N41      1.0000 0.39842  0.07641  0.85663  Biso   1.000  N
  N42      1.0000 0.92359  0.32200  0.85663  Biso   1.000  N
  N43      1.0000 0.34466  0.93492  0.18997  Biso   1.000  N
  N44      1.0000 0.06508  0.40975  0.18997  Biso   1.000  N
  N45      1.0000 0.59025  0.65534  0.18997  Biso   1.000  N
  N46      1.0000 0.98867  0.73175  0.47670  Biso   1.000  N
  N47      1.0000 0.26825  0.25692  0.47670  Biso   1.000  N
  N48      1.0000 0.74308  0.01133  0.47670  Biso   1.000  N
  N49      1.0000 0.65534  0.06508  0.81003  Biso   1.000  N
  N50      1.0000 0.93492  0.59025  0.81003  Biso   1.000  N
  N51      1.0000 0.40975  0.34466  0.81003  Biso   1.000  N
  N52      1.0000 0.32200  0.39842  0.14337  Biso   1.000  N
  N53      1.0000 0.60158  0.92359  0.14337  Biso   1.000  N
  N54      1.0000 0.07641  0.67800  0.14337  Biso   1.000  N
  C1       1.0000 0.07677  0.26184  0.52293  Biso   1.000  C
  C2       1.0000 0.73816  0.81493  0.52293  Biso   1.000  C
  C3       1.0000 0.18507  0.92323  0.52293  Biso   1.000  C
  C4       1.0000 0.74344  0.59517  0.85626  Biso   1.000  C
  C5       1.0000 0.40483  0.14826  0.85626  Biso   1.000  C
  C6       1.0000 0.85174  0.25656  0.85626  Biso   1.000  C
  C7       1.0000 0.41010  0.92851  0.18960  Biso   1.000  C
  C8       1.0000 0.07149  0.48160  0.18960  Biso   1.000  C
  C9       1.0000 0.51840  0.58990  0.18960  Biso   1.000  C
  C10      1.0000 0.92323  0.73816  0.47707  Biso   1.000  C
  C11      1.0000 0.26184  0.18507  0.47707  Biso   1.000  C
  C12      1.0000 0.81493  0.07677  0.47707  Biso   1.000  C
  C13      1.0000 0.58990  0.07149  0.81040  Biso   1.000  C
  C14      1.0000 0.92851  0.51840  0.81040  Biso   1.000  C
  C15      1.0000 0.48160  0.41010  0.81040  Biso   1.000  C
  C16      1.0000 0.25656  0.40483  0.14374  Biso   1.000  C
  C17      1.0000 0.59517  0.85174  0.14374  Biso   1.000  C
  C18      1.0000 0.14826  0.74344  0.14374  Biso   1.000  C
  C19      1.0000 0.09755  0.22400  0.60059  Biso   1.000  C
  C20      1.0000 0.77600  0.87355  0.60059  Biso   1.000  C
  C21      1.0000 0.12645  0.90245  0.60059  Biso   1.000  C
  C22      1.0000 0.76422  0.55733  0.93392  Biso   1.000  C
  C23      1.0000 0.44267  0.20688  0.93392  Biso   1.000  C
  C24      1.0000 0.79312  0.23578  0.93392  Biso   1.000  C
  C25      1.0000 0.43088  0.89067  0.26726  Biso   1.000  C
  C26      1.0000 0.10933  0.54022  0.26726  Biso   1.000  C
  C27      1.0000 0.45978  0.56912  0.26726  Biso   1.000  C
  C28      1.0000 0.90245  0.77600  0.39941  Biso   1.000  C
  C29      1.0000 0.22400  0.12645  0.39941  Biso   1.000  C
  C30      1.0000 0.87355  0.09755  0.39941  Biso   1.000  C
  C31      1.0000 0.56912  0.10933  0.73274  Biso   1.000  C
  C32      1.0000 0.89067  0.45978  0.73274  Biso   1.000  C
  C33      1.0000 0.54022  0.43088  0.73274  Biso   1.000  C
  C34      1.0000 0.23578  0.44267  0.06608  Biso   1.000  C
  C35      1.0000 0.55733  0.79312  0.06608  Biso   1.000  C
  C36      1.0000 0.20688  0.76422  0.06608  Biso   1.000  C
  H1       1.0000 0.10410  0.25350  0.65940  Biso   1.000  H
  H2       1.0000 0.74650  0.85060  0.65940  Biso   1.000  H
  H3       1.0000 0.14940  0.89590  0.65940  Biso   1.000  H
  H4       1.0000 0.77077  0.58683  0.99273  Biso   1.000  H
  H5       1.0000 0.41317  0.18393  0.99273  Biso   1.000  H
  H6       1.0000 0.81607  0.22923  0.99273  Biso   1.000  H
  H7       1.0000 0.43743  0.92017  0.32607  Biso   1.000  H
  H8       1.0000 0.07983  0.51727  0.32607  Biso   1.000  H
  H9       1.0000 0.48273  0.56257  0.32607  Biso   1.000  H
  H10      1.0000 0.89590  0.74650  0.34060  Biso   1.000  H
  H11      1.0000 0.25350  0.14940  0.34060  Biso   1.000  H
  H12      1.0000 0.85060  0.10410  0.34060  Biso   1.000  H
  H13      1.0000 0.56257  0.07983  0.67393  Biso   1.000  H
  H14      1.0000 0.92017  0.48273  0.67393  Biso   1.000  H
  H15      1.0000 0.51727  0.43743  0.67393  Biso   1.000  H
  H16      1.0000 0.22923  0.41317  0.00727  Biso   1.000  H
  H17      1.0000 0.58683  0.81607  0.00727  Biso   1.000  H
  H18      1.0000 0.18393  0.77077  0.00727  Biso   1.000  H
  H19      1.0000 0.14870  0.22780  0.58590  Biso   1.000  H
  H20      1.0000 0.77220  0.92090  0.58590  Biso   1.000  H
  H21      1.0000 0.07910  0.85130  0.58590  Biso   1.000  H
  H22      1.0000 0.81537  0.56113  0.91923  Biso   1.000  H
  H23      1.0000 0.43887  0.25423  0.91923  Biso   1.000  H
  H24      1.0000 0.74577  0.18463  0.91923  Biso   1.000  H
  H25      1.0000 0.48203  0.89447  0.25257  Biso   1.000  H
  H26      1.0000 0.10553  0.58757  0.25257  Biso   1.000  H
  H27      1.0000 0.41243  0.51797  0.25257  Biso   1.000  H
  H28      1.0000 0.85130  0.77220  0.41410  Biso   1.000  H
  H29      1.0000 0.22780  0.07910  0.41410  Biso   1.000  H
  H30      1.0000 0.92090  0.14870  0.41410  Biso   1.000  H
  H31      1.0000 0.51797  0.10553  0.74743  Biso   1.000  H
  H32      1.0000 0.89447  0.41243  0.74743  Biso   1.000  H
  H33      1.0000 0.58757  0.48203  0.74743  Biso   1.000  H
  H34      1.0000 0.18463  0.43887  0.08077  Biso   1.000  H
  H35      1.0000 0.56113  0.74577  0.08077  Biso   1.000  H
  H36      1.0000 0.25423  0.81537  0.08077  Biso   1.000  H
  C37      1.0000 0.03650  0.13830  0.61630  Biso   1.000  C
  C38      1.0000 0.86170  0.89820  0.61630  Biso   1.000  C
  C39      1.0000 0.10180  0.96350  0.61630  Biso   1.000  C
  C40      1.0000 0.70317  0.47163  0.94963  Biso   1.000  C
  C41      1.0000 0.52837  0.23153  0.94963  Biso   1.000  C
  C42      1.0000 0.76847  0.29683  0.94963  Biso   1.000  C
  C43      1.0000 0.36983  0.80497  0.28297  Biso   1.000  C
  C44      1.0000 0.19503  0.56487  0.28297  Biso   1.000  C
  C45      1.0000 0.43513  0.63017  0.28297  Biso   1.000  C
  C46      1.0000 0.96350  0.86170  0.38370  Biso   1.000  C
  C47      1.0000 0.13830  0.10180  0.38370  Biso   1.000  C
  C48      1.0000 0.89820  0.03650  0.38370  Biso   1.000  C
  C49      1.0000 0.63017  0.19503  0.71703  Biso   1.000  C
  C50      1.0000 0.80497  0.43513  0.71703  Biso   1.000  C
  C51      1.0000 0.56487  0.36983  0.71703  Biso   1.000  C
  C52      1.0000 0.29683  0.52837  0.05037  Biso   1.000  C
  C53      1.0000 0.47163  0.76847  0.05037  Biso   1.000  C
  C54      1.0000 0.23153  0.70317  0.05037  Biso   1.000  C
  H37      1.0000 0.05360  0.11710  0.66780  Biso   1.000  H
  H38      1.0000 0.88290  0.93650  0.66780  Biso   1.000  H
  H39      1.0000 0.06350  0.94640  0.66780  Biso   1.000  H
  H40      1.0000 0.72027  0.45043  0.00113  Biso   1.000  H
  H41      1.0000 0.54957  0.26983  0.00113  Biso   1.000  H
  H42      1.0000 0.73017  0.27973  0.00113  Biso   1.000  H
  H43      1.0000 0.38693  0.78377  0.33447  Biso   1.000  H
  H44      1.0000 0.21623  0.60317  0.33447  Biso   1.000  H
  H45      1.0000 0.39683  0.61307  0.33447  Biso   1.000  H
  H46      1.0000 0.94640  0.88290  0.33220  Biso   1.000  H
  H47      1.0000 0.11710  0.06350  0.33220  Biso   1.000  H
  H48      1.0000 0.93650  0.05360  0.33220  Biso   1.000  H
  H49      1.0000 0.61307  0.21623  0.66553  Biso   1.000  H
  H50      1.0000 0.78377  0.39683  0.66553  Biso   1.000  H
  H51      1.0000 0.60317  0.38693  0.66553  Biso   1.000  H
  H52      1.0000 0.27973  0.54957  0.99887  Biso   1.000  H
  H53      1.0000 0.45043  0.73017  0.99887  Biso   1.000  H
  H54      1.0000 0.26983  0.72027  0.99887  Biso   1.000  H
  H55      1.0000 0.03060  0.10830  0.55880  Biso   1.000  H
  H56      1.0000 0.89170  0.92230  0.55880  Biso   1.000  H
  H57      1.0000 0.07770  0.96940  0.55880  Biso   1.000  H
  H58      1.0000 0.69727  0.44163  0.89213  Biso   1.000  H
  H59      1.0000 0.55837  0.25563  0.89213  Biso   1.000  H
  H60      1.0000 0.74437  0.30273  0.89213  Biso   1.000  H
  H61      1.0000 0.36393  0.77497  0.22547  Biso   1.000  H
  H62      1.0000 0.22503  0.58897  0.22547  Biso   1.000  H
  H63      1.0000 0.41103  0.63607  0.22547  Biso   1.000  H
  H64      1.0000 0.96940  0.89170  0.44120  Biso   1.000  H
  H65      1.0000 0.10830  0.07770  0.44120  Biso   1.000  H
  H66      1.0000 0.92230  0.03060  0.44120  Biso   1.000  H
  H67      1.0000 0.63607  0.22503  0.77453  Biso   1.000  H
  H68      1.0000 0.77497  0.41103  0.77453  Biso   1.000  H
  H69      1.0000 0.58897  0.36393  0.77453  Biso   1.000  H
  H70      1.0000 0.30273  0.55837  0.10787  Biso   1.000  H
  H71      1.0000 0.44163  0.74437  0.10787  Biso   1.000  H
  H72      1.0000 0.25563  0.69727  0.10787  Biso   1.000  H
  H73      1.0000 0.98600  0.13410  0.63240  Biso   1.000  H
  H74      1.0000 0.86590  0.85190  0.63240  Biso   1.000  H
  H75      1.0000 0.14810  0.01400  0.63240  Biso   1.000  H
  H76      1.0000 0.65267  0.46743  0.96573  Biso   1.000  H
  H77      1.0000 0.53257  0.18523  0.96573  Biso   1.000  H
  H78      1.0000 0.81477  0.34733  0.96573  Biso   1.000  H
  H79      1.0000 0.31933  0.80077  0.29907  Biso   1.000  H
  H80      1.0000 0.19923  0.51857  0.29907  Biso   1.000  H
  H81      1.0000 0.48143  0.68067  0.29907  Biso   1.000  H
  H82      1.0000 0.01400  0.86590  0.36760  Biso   1.000  H
  H83      1.0000 0.13410  0.14810  0.36760  Biso   1.000  H
  H84      1.0000 0.85190  0.98600  0.36760  Biso   1.000  H
  H85      1.0000 0.68067  0.19923  0.70093  Biso   1.000  H
  H86      1.0000 0.80077  0.48143  0.70093  Biso   1.000  H
  H87      1.0000 0.51857  0.31933  0.70093  Biso   1.000  H
  H88      1.0000 0.34733  0.53257  0.03427  Biso   1.000  H
  H89      1.0000 0.46743  0.81477  0.03427  Biso   1.000  H
  H90      1.0000 0.18523  0.65267  0.03427  Biso   1.000  H
  C55      1.0000 0.01664  0.30638  0.44225  Biso   1.000  C
  C56      1.0000 0.69362  0.71026  0.44225  Biso   1.000  C
  C57      1.0000 0.28974  0.98336  0.44225  Biso   1.000  C
  C58      1.0000 0.68331  0.63971  0.77558  Biso   1.000  C
  C59      1.0000 0.36029  0.04359  0.77558  Biso   1.000  C
  C60      1.0000 0.95641  0.31669  0.77558  Biso   1.000  C
  C61      1.0000 0.34997  0.97305  0.10892  Biso   1.000  C
  C62      1.0000 0.02695  0.37693  0.10892  Biso   1.000  C
  C63      1.0000 0.62307  0.65003  0.10892  Biso   1.000  C
  C64      1.0000 0.98336  0.69362  0.55775  Biso   1.000  C
  C65      1.0000 0.30638  0.28974  0.55775  Biso   1.000  C
  C66      1.0000 0.71026  0.01664  0.55775  Biso   1.000  C
  C67      1.0000 0.65003  0.02695  0.89108  Biso   1.000  C
  C68      1.0000 0.97305  0.62307  0.89108  Biso   1.000  C
  C69      1.0000 0.37693  0.34997  0.89108  Biso   1.000  C
  C70      1.0000 0.31669  0.36029  0.22442  Biso   1.000  C
  C71      1.0000 0.63971  0.95641  0.22442  Biso   1.000  C
  C72      1.0000 0.04359  0.68331  0.22442  Biso   1.000  C
  C73      1.0000 0.95741  0.32796  0.41145  Biso   1.000  C
  C74      1.0000 0.67204  0.62945  0.41145  Biso   1.000  C
  C75      1.0000 0.37055  0.04259  0.41145  Biso   1.000  C
  C76      1.0000 0.62408  0.66129  0.74478  Biso   1.000  C
  C77      1.0000 0.33871  0.96278  0.74478  Biso   1.000  C
  C78      1.0000 0.03722  0.37592  0.74478  Biso   1.000  C
  C79      1.0000 0.29074  0.99463  0.07812  Biso   1.000  C
  C80      1.0000 0.00537  0.29612  0.07812  Biso   1.000  C
  C81      1.0000 0.70388  0.70926  0.07812  Biso   1.000  C
  C82      1.0000 0.04259  0.67204  0.58855  Biso   1.000  C
  C83      1.0000 0.32796  0.37055  0.58855  Biso   1.000  C
  C84      1.0000 0.62945  0.95741  0.58855  Biso   1.000  C
  C85      1.0000 0.70926  0.00537  0.92188  Biso   1.000  C
  C86      1.0000 0.99463  0.70388  0.92188  Biso   1.000  C
  C87      1.0000 0.29612  0.29074  0.92188  Biso   1.000  C
  C88      1.0000 0.37592  0.33871  0.25522  Biso   1.000  C
  C89      1.0000 0.66129  0.03722  0.25522  Biso   1.000  C
  C90      1.0000 0.96278  0.62408  0.25522  Biso   1.000  C
  H91      1.0000 0.90550  0.27940  0.40540  Biso   1.000  H
  H92      1.0000 0.72060  0.62610  0.40540  Biso   1.000  H
  H93      1.0000 0.37390  0.09450  0.40540  Biso   1.000  H
  H94      1.0000 0.57217  0.61273  0.73873  Biso   1.000  H
  H95      1.0000 0.38727  0.95943  0.73873  Biso   1.000  H
  H96      1.0000 0.04057  0.42783  0.73873  Biso   1.000  H
  H97      1.0000 0.23883  0.94607  0.07207  Biso   1.000  H
  H98      1.0000 0.05393  0.29277  0.07207  Biso   1.000  H
  H99      1.0000 0.70723  0.76117  0.07207  Biso   1.000  H
  H100     1.0000 0.09450  0.72060  0.59460  Biso   1.000  H
  H101     1.0000 0.27940  0.37390  0.59460  Biso   1.000  H
  H102     1.0000 0.62610  0.90550  0.59460  Biso   1.000  H
  H103     1.0000 0.76117  0.05393  0.92793  Biso   1.000  H
  H104     1.0000 0.94607  0.70723  0.92793  Biso   1.000  H
  H105     1.0000 0.29277  0.23883  0.92793  Biso   1.000  H
  H106     1.0000 0.42783  0.38727  0.26127  Biso   1.000  H
  H107     1.0000 0.61273  0.04057  0.26127  Biso   1.000  H
  H108     1.0000 0.95943  0.57217  0.26127  Biso   1.000  H
  H109     1.0000 0.97240  0.35300  0.34880  Biso   1.000  H
  H110     1.0000 0.64700  0.61940  0.34880  Biso   1.000  H
  H111     1.0000 0.38060  0.02760  0.34880  Biso   1.000  H
  H112     1.0000 0.63907  0.68633  0.68213  Biso   1.000  H
  H113     1.0000 0.31367  0.95273  0.68213  Biso   1.000  H
  H114     1.0000 0.04727  0.36093  0.68213  Biso   1.000  H
  H115     1.0000 0.30573  0.01967  0.01547  Biso   1.000  H
  H116     1.0000 0.98033  0.28607  0.01547  Biso   1.000  H
  H117     1.0000 0.71393  0.69427  0.01547  Biso   1.000  H
  H118     1.0000 0.02760  0.64700  0.65120  Biso   1.000  H
  H119     1.0000 0.35300  0.38060  0.65120  Biso   1.000  H
  H120     1.0000 0.61940  0.97240  0.65120  Biso   1.000  H
  H121     1.0000 0.69427  0.98033  0.98453  Biso   1.000  H
  H122     1.0000 0.01967  0.71393  0.98453  Biso   1.000  H
  H123     1.0000 0.28607  0.30573  0.98453  Biso   1.000  H
  H124     1.0000 0.36093  0.31367  0.31787  Biso   1.000  H
  H125     1.0000 0.68633  0.04727  0.31787  Biso   1.000  H
  H126     1.0000 0.95273  0.63907  0.31787  Biso   1.000  H
  C91      1.0000 0.95000  0.38410  0.47940  Biso   1.000  C
  C92      1.0000 0.61590  0.56590  0.47940  Biso   1.000  C
  C93      1.0000 0.43410  0.05000  0.47940  Biso   1.000  C
  C94      1.0000 0.61667  0.71743  0.81273  Biso   1.000  C
  C95      1.0000 0.28257  0.89923  0.81273  Biso   1.000  C
  C96      1.0000 0.10077  0.38333  0.81273  Biso   1.000  C
  C97      1.0000 0.28333  0.05077  0.14607  Biso   1.000  C
  C98      1.0000 0.94923  0.23257  0.14607  Biso   1.000  C
  C99      1.0000 0.76743  0.71667  0.14607  Biso   1.000  C
  C100     1.0000 0.05000  0.61590  0.52060  Biso   1.000  C
  C101     1.0000 0.38410  0.43410  0.52060  Biso   1.000  C
  C102     1.0000 0.56590  0.95000  0.52060  Biso   1.000  C
  C103     1.0000 0.71667  0.94923  0.85393  Biso   1.000  C
  C104     1.0000 0.05077  0.76743  0.85393  Biso   1.000  C
  C105     1.0000 0.23257  0.28333  0.85393  Biso   1.000  C
  C106     1.0000 0.38333  0.28257  0.18727  Biso   1.000  C
  C107     1.0000 0.71743  0.10077  0.18727  Biso   1.000  C
  C108     1.0000 0.89923  0.61667  0.18727  Biso   1.000  C
  H127     1.0000 0.91040  0.39640  0.45600  Biso   1.000  H
  H128     1.0000 0.60360  0.51400  0.45600  Biso   1.000  H
  H129     1.0000 0.48600  0.08960  0.45600  Biso   1.000  H
  H130     1.0000 0.57707  0.72973  0.78933  Biso   1.000  H
  H131     1.0000 0.27027  0.84733  0.78933  Biso   1.000  H
  H132     1.0000 0.15267  0.42293  0.78933  Biso   1.000  H
  H133     1.0000 0.24373  0.06307  0.12267  Biso   1.000  H
  H134     1.0000 0.93693  0.18067  0.12267  Biso   1.000  H
  H135     1.0000 0.81933  0.75627  0.12267  Biso   1.000  H
  H136     1.0000 0.08960  0.60360  0.54400  Biso   1.000  H
  H137     1.0000 0.39640  0.48600  0.54400  Biso   1.000  H
  H138     1.0000 0.51400  0.91040  0.54400  Biso   1.000  H
  H139     1.0000 0.75627  0.93693  0.87733  Biso   1.000  H
  H140     1.0000 0.06307  0.81933  0.87733  Biso   1.000  H
  H141     1.0000 0.18067  0.24373  0.87733  Biso   1.000  H
  H142     1.0000 0.42293  0.27027  0.21067  Biso   1.000  H
  H143     1.0000 0.72973  0.15267  0.21067  Biso   1.000  H
  H144     1.0000 0.84733  0.57707  0.21067  Biso   1.000  H
  H145     1.0000 0.00090  0.43280  0.48470  Biso   1.000  H
  H146     1.0000 0.56720  0.56810  0.48470  Biso   1.000  H
  H147     1.0000 0.43190  0.99910  0.48470  Biso   1.000  H
  H148     1.0000 0.66757  0.76613  0.81803  Biso   1.000  H
  H149     1.0000 0.23387  0.90143  0.81803  Biso   1.000  H
  H150     1.0000 0.09857  0.33243  0.81803  Biso   1.000  H
  H151     1.0000 0.33423  0.09947  0.15137  Biso   1.000  H
  H152     1.0000 0.90053  0.23477  0.15137  Biso   1.000  H
  H153     1.0000 0.76523  0.66577  0.15137  Biso   1.000  H
  H154     1.0000 0.99910  0.56720  0.51530  Biso   1.000  H
  H155     1.0000 0.43280  0.43190  0.51530  Biso   1.000  H
  H156     1.0000 0.56810  0.00090  0.51530  Biso   1.000  H
  H157     1.0000 0.66577  0.90053  0.84863  Biso   1.000  H
  H158     1.0000 0.09947  0.76523  0.84863  Biso   1.000  H
  H159     1.0000 0.23477  0.33423  0.84863  Biso   1.000  H
  H160     1.0000 0.33243  0.23387  0.18197  Biso   1.000  H
  H161     1.0000 0.76613  0.09857  0.18197  Biso   1.000  H
  H162     1.0000 0.90143  0.66757  0.18197  Biso   1.000  H
  H163     1.0000 0.93400  0.35920  0.54130  Biso   1.000  H
  H164     1.0000 0.64080  0.57480  0.54130  Biso   1.000  H
  H165     1.0000 0.42520  0.06600  0.54130  Biso   1.000  H
  H166     1.0000 0.60067  0.69253  0.87463  Biso   1.000  H
  H167     1.0000 0.30747  0.90813  0.87463  Biso   1.000  H
  H168     1.0000 0.09187  0.39933  0.87463  Biso   1.000  H
  H169     1.0000 0.26733  0.02587  0.20797  Biso   1.000  H
  H170     1.0000 0.97413  0.24147  0.20797  Biso   1.000  H
  H171     1.0000 0.75853  0.73267  0.20797  Biso   1.000  H
  H172     1.0000 0.06600  0.64080  0.45870  Biso   1.000  H
  H173     1.0000 0.35920  0.42520  0.45870  Biso   1.000  H
  H174     1.0000 0.57480  0.93400  0.45870  Biso   1.000  H
  H175     1.0000 0.73267  0.97413  0.79203  Biso   1.000  H
  H176     1.0000 0.02587  0.75853  0.79203  Biso   1.000  H
  H177     1.0000 0.24147  0.26733  0.79203  Biso   1.000  H
  H178     1.0000 0.39933  0.30747  0.12537  Biso   1.000  H
  H179     1.0000 0.69253  0.09187  0.12537  Biso   1.000  H
  H180     1.0000 0.90813  0.60067  0.12537  Biso   1.000  H
  N55      1.0000 0.22690  0.49270  0.51900  Biso   1.000  N
  N56      1.0000 0.50730  0.73420  0.51900  Biso   1.000  N
  N57      1.0000 0.26580  0.77310  0.51900  Biso   1.000  N
  N58      1.0000 0.89357  0.82603  0.85233  Biso   1.000  N
  N59      1.0000 0.17397  0.06753  0.85233  Biso   1.000  N
  N60      1.0000 0.93247  0.10643  0.85233  Biso   1.000  N
  N61      1.0000 0.56023  0.15937  0.18567  Biso   1.000  N
  N62      1.0000 0.84063  0.40087  0.18567  Biso   1.000  N
  N63      1.0000 0.59913  0.43977  0.18567  Biso   1.000  N
  N64      1.0000 0.77310  0.50730  0.48100  Biso   1.000  N
  N65      1.0000 0.49270  0.26580  0.48100  Biso   1.000  N
  N66      1.0000 0.73420  0.22690  0.48100  Biso   1.000  N
  N67      1.0000 0.43977  0.84063  0.81433  Biso   1.000  N
  N68      1.0000 0.15937  0.59913  0.81433  Biso   1.000  N
  N69      1.0000 0.40087  0.56023  0.81433  Biso   1.000  N
  N70      1.0000 0.10643  0.17397  0.14767  Biso   1.000  N
  N71      1.0000 0.82603  0.93247  0.14767  Biso   1.000  N
  N72      1.0000 0.06753  0.89357  0.14767  Biso   1.000  N
  N73      1.0000 0.17400  0.47500  0.56100  Biso   1.000  N
  N74      1.0000 0.52500  0.69900  0.56100  Biso   1.000  N
  N75      1.0000 0.30100  0.82600  0.56100  Biso   1.000  N
  N76      1.0000 0.84067  0.80833  0.89433  Biso   1.000  N
  N77      1.0000 0.19167  0.03233  0.89433  Biso   1.000  N
  N78      1.0000 0.96767  0.15933  0.89433  Biso   1.000  N
  N79      1.0000 0.50733  0.14167  0.22767  Biso   1.000  N
  N80      1.0000 0.85833  0.36567  0.22767  Biso   1.000  N
  N81      1.0000 0.63433  0.49267  0.22767  Biso   1.000  N
  N82      1.0000 0.82600  0.52500  0.43900  Biso   1.000  N
  N83      1.0000 0.47500  0.30100  0.43900  Biso   1.000  N
  N84      1.0000 0.69900  0.17400  0.43900  Biso   1.000  N
  N85      1.0000 0.49267  0.85833  0.77233  Biso   1.000  N
  N86      1.0000 0.14167  0.63433  0.77233  Biso   1.000  N
  N87      1.0000 0.36567  0.50733  0.77233  Biso   1.000  N
  N88      1.0000 0.15933  0.19167  0.10567  Biso   1.000  N
  N89      1.0000 0.80833  0.96767  0.10567  Biso   1.000  N
  N90      1.0000 0.03233  0.84067  0.10567  Biso   1.000  N
  N91      1.0000 0.20000  0.46250  0.56400  Biso   1.000  N
  N92      1.0000 0.53750  0.73750  0.56400  Biso   1.000  N
  N93      1.0000 0.26250  0.80000  0.56400  Biso   1.000  N
  N94      1.0000 0.86667  0.79583  0.89733  Biso   1.000  N
  N95      1.0000 0.20417  0.07083  0.89733  Biso   1.000  N
  N96      1.0000 0.92917  0.13333  0.89733  Biso   1.000  N
  N97      1.0000 0.53333  0.12917  0.23067  Biso   1.000  N
  N98      1.0000 0.87083  0.40417  0.23067  Biso   1.000  N
  N99      1.0000 0.59583  0.46667  0.23067  Biso   1.000  N
  N100     1.0000 0.80000  0.53750  0.43600  Biso   1.000  N
  N101     1.0000 0.46250  0.26250  0.43600  Biso   1.000  N
  N102     1.0000 0.73750  0.20000  0.43600  Biso   1.000  N
  N103     1.0000 0.46667  0.87083  0.76933  Biso   1.000  N
  N104     1.0000 0.12917  0.59583  0.76933  Biso   1.000  N
  N105     1.0000 0.40417  0.53333  0.76933  Biso   1.000  N
  N106     1.0000 0.13333  0.20417  0.10267  Biso   1.000  N
  N107     1.0000 0.79583  0.92917  0.10267  Biso   1.000  N
  N108     1.0000 0.07083  0.86667  0.10267  Biso   1.000  N
  N109     1.0000 0.17800  0.49300  0.52000  Biso   1.000  N
  N110     1.0000 0.50700  0.68500  0.52000  Biso   1.000  N
  N111     1.0000 0.31500  0.82200  0.52000  Biso   1.000  N
  N112     1.0000 0.84467  0.82633  0.85333  Biso   1.000  N
  N113     1.0000 0.17367  0.01833  0.85333  Biso   1.000  N
  N114     1.0000 0.98167  0.15533  0.85333  Biso   1.000  N
  N115     1.0000 0.51133  0.15967  0.18667  Biso   1.000  N
  N116     1.0000 0.84033  0.35167  0.18667  Biso   1.000  N
  N117     1.0000 0.64833  0.48867  0.18667  Biso   1.000  N
  N118     1.0000 0.82200  0.50700  0.48000  Biso   1.000  N
  N119     1.0000 0.49300  0.31500  0.48000  Biso   1.000  N
  N120     1.0000 0.68500  0.17800  0.48000  Biso   1.000  N
  N121     1.0000 0.48867  0.84033  0.81333  Biso   1.000  N
  N122     1.0000 0.15967  0.64833  0.81333  Biso   1.000  N
  N123     1.0000 0.35167  0.51133  0.81333  Biso   1.000  N
  N124     1.0000 0.15533  0.17367  0.14667  Biso   1.000  N
  N125     1.0000 0.82633  0.98167  0.14667  Biso   1.000  N
  N126     1.0000 0.01833  0.84467  0.14667  Biso   1.000  N
