data_image0
_cell_length_a       19.81
_cell_length_b       19.81
_cell_length_c       14.18
_cell_angle_alpha    90
_cell_angle_beta     90
_cell_angle_gamma    120

_symmetry_space_group_name_H-M    "P 1"
_symmetry_int_tables_number       1

loop_
  _symmetry_equiv_pos_as_xyz
  'x, y, z'

loop_
  _atom_site_label
  _atom_site_occupancy
  _atom_site_fract_x
  _atom_site_fract_y
  _atom_site_fract_z
  _atom_site_thermal_displace_type
  _atom_site_B_iso_or_equiv
  _atom_site_type_symbol
  Cu1      1.0000 0.54824  0.58557  0.56262  Biso   1.000  Cu
  Cu2      1.0000 0.41443  0.96267  0.56262  Biso   1.000  Cu
  Cu3      1.0000 0.03733  0.45176  0.56262  Biso   1.000  Cu
  Cu4      1.0000 0.21491  0.91890  0.89595  Biso   1.000  Cu
  Cu5      1.0000 0.08110  0.29600  0.89595  Biso   1.000  Cu
  Cu6      1.0000 0.70400  0.78509  0.89595  Biso   1.000  Cu
  Cu7      1.0000 0.88157  0.25224  0.22929  Biso   1.000  Cu
  Cu8      1.0000 0.74776  0.62934  0.22929  Biso   1.000  Cu
  Cu9      1.0000 0.37066  0.11843  0.22929  Biso   1.000  Cu
  Cu10     1.0000 0.45176  0.41443  0.43738  Biso   1.000  Cu
  Cu11     1.0000 0.58557  0.03733  0.43738  Biso   1.000  Cu
  Cu12     1.0000 0.96267  0.54824  0.43738  Biso   1.000  Cu
  Cu13     1.0000 0.11843  0.74776  0.77071  Biso   1.000  Cu
  Cu14     1.0000 0.25224  0.37066  0.77071  Biso   1.000  Cu
  Cu15     1.0000 0.62934  0.88157  0.77071  Biso   1.000  Cu
  Cu16     1.0000 0.78509  0.08110  0.10405  Biso   1.000  Cu
  Cu17     1.0000 0.91890  0.70400  0.10405  Biso   1.000  Cu
  Cu18     1.0000 0.29600  0.21491  0.10405  Biso   1.000  Cu
  N1       1.0000 0.54776  0.50497  0.38862  Biso   1.000  N
  N2       1.0000 0.49503  0.04279  0.38862  Biso   1.000  N
  N3       1.0000 0.95721  0.45224  0.38862  Biso   1.000  N
  N4       1.0000 0.21443  0.83830  0.72195  Biso   1.000  N
  N5       1.0000 0.16170  0.37612  0.72195  Biso   1.000  N
  N6       1.0000 0.62388  0.78557  0.72195  Biso   1.000  N
  N7       1.0000 0.88109  0.17164  0.05529  Biso   1.000  N
  N8       1.0000 0.82836  0.70946  0.05529  Biso   1.000  N
  N9       1.0000 0.29054  0.11891  0.05529  Biso   1.000  N
  N10      1.0000 0.45224  0.49503  0.61138  Biso   1.000  N
  N11      1.0000 0.50497  0.95721  0.61138  Biso   1.000  N
  N12      1.0000 0.04279  0.54776  0.61138  Biso   1.000  N
  N13      1.0000 0.11891  0.82836  0.94471  Biso   1.000  N
  N14      1.0000 0.17164  0.29054  0.94471  Biso   1.000  N
  N15      1.0000 0.70946  0.88109  0.94471  Biso   1.000  N
  N16      1.0000 0.78557  0.16170  0.27805  Biso   1.000  N
  N17      1.0000 0.83830  0.62388  0.27805  Biso   1.000  N
  N18      1.0000 0.37612  0.21443  0.27805  Biso   1.000  N
  N19      1.0000 0.58554  0.57358  0.44013  Biso   1.000  N
  N20      1.0000 0.42642  0.01196  0.44013  Biso   1.000  N
  N21      1.0000 0.98804  0.41446  0.44013  Biso   1.000  N
  N22      1.0000 0.25221  0.90691  0.77346  Biso   1.000  N
  N23      1.0000 0.09309  0.34529  0.77346  Biso   1.000  N
  N24      1.0000 0.65471  0.74779  0.77346  Biso   1.000  N
  N25      1.0000 0.91887  0.24025  0.10680  Biso   1.000  N
  N26      1.0000 0.75975  0.67863  0.10680  Biso   1.000  N
  N27      1.0000 0.32137  0.08113  0.10680  Biso   1.000  N
  N28      1.0000 0.41446  0.42642  0.55987  Biso   1.000  N
  N29      1.0000 0.57358  0.98804  0.55987  Biso   1.000  N
  N30      1.0000 0.01196  0.58554  0.55987  Biso   1.000  N
  N31      1.0000 0.08113  0.75975  0.89320  Biso   1.000  N
  N32      1.0000 0.24025  0.32137  0.89320  Biso   1.000  N
  N33      1.0000 0.67863  0.91887  0.89320  Biso   1.000  N
  N34      1.0000 0.74779  0.09309  0.22654  Biso   1.000  N
  N35      1.0000 0.90691  0.65471  0.22654  Biso   1.000  N
  N36      1.0000 0.34529  0.25221  0.22654  Biso   1.000  N
  N37      1.0000 0.65525  0.58800  0.31120  Biso   1.000  N
  N38      1.0000 0.41200  0.06725  0.31120  Biso   1.000  N
  N39      1.0000 0.93275  0.34475  0.31120  Biso   1.000  N
  N40      1.0000 0.32192  0.92133  0.64453  Biso   1.000  N
  N41      1.0000 0.07867  0.40058  0.64453  Biso   1.000  N
  N42      1.0000 0.59942  0.67808  0.64453  Biso   1.000  N
  N43      1.0000 0.98858  0.25467  0.97787  Biso   1.000  N
  N44      1.0000 0.74533  0.73392  0.97787  Biso   1.000  N
  N45      1.0000 0.26608  0.01142  0.97787  Biso   1.000  N
  N46      1.0000 0.34475  0.41200  0.68880  Biso   1.000  N
  N47      1.0000 0.58800  0.93275  0.68880  Biso   1.000  N
  N48      1.0000 0.06725  0.65525  0.68880  Biso   1.000  N
  N49      1.0000 0.01142  0.74533  0.02213  Biso   1.000  N
  N50      1.0000 0.25467  0.26608  0.02213  Biso   1.000  N
  N51      1.0000 0.73392  0.98858  0.02213  Biso   1.000  N
  N52      1.0000 0.67808  0.07867  0.35547  Biso   1.000  N
  N53      1.0000 0.92133  0.59942  0.35547  Biso   1.000  N
  N54      1.0000 0.40058  0.32192  0.35547  Biso   1.000  N
  C1       1.0000 0.59100  0.51616  0.31220  Biso   1.000  C
  C2       1.0000 0.48384  0.07484  0.31220  Biso   1.000  C
  C3       1.0000 0.92516  0.40900  0.31220  Biso   1.000  C
  C4       1.0000 0.25767  0.84949  0.64553  Biso   1.000  C
  C5       1.0000 0.15051  0.40817  0.64553  Biso   1.000  C
  C6       1.0000 0.59183  0.74233  0.64553  Biso   1.000  C
  C7       1.0000 0.92433  0.18283  0.97887  Biso   1.000  C
  C8       1.0000 0.81717  0.74151  0.97887  Biso   1.000  C
  C9       1.0000 0.25849  0.07567  0.97887  Biso   1.000  C
  C10      1.0000 0.40900  0.48384  0.68780  Biso   1.000  C
  C11      1.0000 0.51616  0.92516  0.68780  Biso   1.000  C
  C12      1.0000 0.07484  0.59100  0.68780  Biso   1.000  C
  C13      1.0000 0.07567  0.81717  0.02113  Biso   1.000  C
  C14      1.0000 0.18283  0.25849  0.02113  Biso   1.000  C
  C15      1.0000 0.74151  0.92433  0.02113  Biso   1.000  C
  C16      1.0000 0.74233  0.15051  0.35447  Biso   1.000  C
  C17      1.0000 0.84949  0.59183  0.35447  Biso   1.000  C
  C18      1.0000 0.40817  0.25767  0.35447  Biso   1.000  C
  C19      1.0000 0.57130  0.45760  0.23520  Biso   1.000  C
  C20      1.0000 0.54240  0.11370  0.23520  Biso   1.000  C
  C21      1.0000 0.88630  0.42870  0.23520  Biso   1.000  C
  C22      1.0000 0.23797  0.79093  0.56853  Biso   1.000  C
  C23      1.0000 0.20907  0.44703  0.56853  Biso   1.000  C
  C24      1.0000 0.55297  0.76203  0.56853  Biso   1.000  C
  C25      1.0000 0.90463  0.12427  0.90187  Biso   1.000  C
  C26      1.0000 0.87573  0.78037  0.90187  Biso   1.000  C
  C27      1.0000 0.21963  0.09537  0.90187  Biso   1.000  C
  C28      1.0000 0.42870  0.54240  0.76480  Biso   1.000  C
  C29      1.0000 0.45760  0.88630  0.76480  Biso   1.000  C
  C30      1.0000 0.11370  0.57130  0.76480  Biso   1.000  C
  C31      1.0000 0.09537  0.87573  0.09813  Biso   1.000  C
  C32      1.0000 0.12427  0.21963  0.09813  Biso   1.000  C
  C33      1.0000 0.78037  0.90463  0.09813  Biso   1.000  C
  C34      1.0000 0.76203  0.20907  0.43147  Biso   1.000  C
  C35      1.0000 0.79093  0.55297  0.43147  Biso   1.000  C
  C36      1.0000 0.44703  0.23797  0.43147  Biso   1.000  C
  H1       1.0000 0.51880  0.41260  0.24760  Biso   1.000  H
  H2       1.0000 0.58740  0.10620  0.24760  Biso   1.000  H
  H3       1.0000 0.89380  0.48120  0.24760  Biso   1.000  H
  H4       1.0000 0.18547  0.74593  0.58093  Biso   1.000  H
  H5       1.0000 0.25407  0.43953  0.58093  Biso   1.000  H
  H6       1.0000 0.56047  0.81453  0.58093  Biso   1.000  H
  H7       1.0000 0.85213  0.07927  0.91427  Biso   1.000  H
  H8       1.0000 0.92073  0.77287  0.91427  Biso   1.000  H
  H9       1.0000 0.22713  0.14787  0.91427  Biso   1.000  H
  H10      1.0000 0.48120  0.58740  0.75240  Biso   1.000  H
  H11      1.0000 0.41260  0.89380  0.75240  Biso   1.000  H
  H12      1.0000 0.10620  0.51880  0.75240  Biso   1.000  H
  H13      1.0000 0.14787  0.92073  0.08573  Biso   1.000  H
  H14      1.0000 0.07927  0.22713  0.08573  Biso   1.000  H
  H15      1.0000 0.77287  0.85213  0.08573  Biso   1.000  H
  H16      1.0000 0.81453  0.25407  0.41907  Biso   1.000  H
  H17      1.0000 0.74593  0.56047  0.41907  Biso   1.000  H
  H18      1.0000 0.43953  0.18547  0.41907  Biso   1.000  H
  H19      1.0000 0.56860  0.48140  0.17490  Biso   1.000  H
  H20      1.0000 0.51860  0.08720  0.17490  Biso   1.000  H
  H21      1.0000 0.91280  0.43140  0.17490  Biso   1.000  H
  H22      1.0000 0.23527  0.81473  0.50823  Biso   1.000  H
  H23      1.0000 0.18527  0.42053  0.50823  Biso   1.000  H
  H24      1.0000 0.57947  0.76473  0.50823  Biso   1.000  H
  H25      1.0000 0.90193  0.14807  0.84157  Biso   1.000  H
  H26      1.0000 0.85193  0.75387  0.84157  Biso   1.000  H
  H27      1.0000 0.24613  0.09807  0.84157  Biso   1.000  H
  H28      1.0000 0.43140  0.51860  0.82510  Biso   1.000  H
  H29      1.0000 0.48140  0.91280  0.82510  Biso   1.000  H
  H30      1.0000 0.08720  0.56860  0.82510  Biso   1.000  H
  H31      1.0000 0.09807  0.85193  0.15843  Biso   1.000  H
  H32      1.0000 0.14807  0.24613  0.15843  Biso   1.000  H
  H33      1.0000 0.75387  0.90193  0.15843  Biso   1.000  H
  H34      1.0000 0.76473  0.18527  0.49177  Biso   1.000  H
  H35      1.0000 0.81473  0.57947  0.49177  Biso   1.000  H
  H36      1.0000 0.42053  0.23527  0.49177  Biso   1.000  H
  C37      1.0000 0.62550  0.42880  0.22390  Biso   1.000  C
  C38      1.0000 0.57120  0.19670  0.22390  Biso   1.000  C
  C39      1.0000 0.80330  0.37450  0.22390  Biso   1.000  C
  C40      1.0000 0.29217  0.76213  0.55723  Biso   1.000  C
  C41      1.0000 0.23787  0.53003  0.55723  Biso   1.000  C
  C42      1.0000 0.46997  0.70783  0.55723  Biso   1.000  C
  C43      1.0000 0.95883  0.09547  0.89057  Biso   1.000  C
  C44      1.0000 0.90453  0.86337  0.89057  Biso   1.000  C
  C45      1.0000 0.13663  0.04117  0.89057  Biso   1.000  C
  C46      1.0000 0.37450  0.57120  0.77610  Biso   1.000  C
  C47      1.0000 0.42880  0.80330  0.77610  Biso   1.000  C
  C48      1.0000 0.19670  0.62550  0.77610  Biso   1.000  C
  C49      1.0000 0.04117  0.90453  0.10943  Biso   1.000  C
  C50      1.0000 0.09547  0.13663  0.10943  Biso   1.000  C
  C51      1.0000 0.86337  0.95883  0.10943  Biso   1.000  C
  C52      1.0000 0.70783  0.23787  0.44277  Biso   1.000  C
  C53      1.0000 0.76213  0.46997  0.44277  Biso   1.000  C
  C54      1.0000 0.53003  0.29217  0.44277  Biso   1.000  C
  H37      1.0000 0.60810  0.39110  0.17200  Biso   1.000  H
  H38      1.0000 0.60890  0.21700  0.17200  Biso   1.000  H
  H39      1.0000 0.78300  0.39190  0.17200  Biso   1.000  H
  H40      1.0000 0.27477  0.72443  0.50533  Biso   1.000  H
  H41      1.0000 0.27557  0.55033  0.50533  Biso   1.000  H
  H42      1.0000 0.44967  0.72523  0.50533  Biso   1.000  H
  H43      1.0000 0.94143  0.05777  0.83867  Biso   1.000  H
  H44      1.0000 0.94223  0.88367  0.83867  Biso   1.000  H
  H45      1.0000 0.11633  0.05857  0.83867  Biso   1.000  H
  H46      1.0000 0.39190  0.60890  0.82800  Biso   1.000  H
  H47      1.0000 0.39110  0.78300  0.82800  Biso   1.000  H
  H48      1.0000 0.21700  0.60810  0.82800  Biso   1.000  H
  H49      1.0000 0.05857  0.94223  0.16133  Biso   1.000  H
  H50      1.0000 0.05777  0.11633  0.16133  Biso   1.000  H
  H51      1.0000 0.88367  0.94143  0.16133  Biso   1.000  H
  H52      1.0000 0.72523  0.27557  0.49467  Biso   1.000  H
  H53      1.0000 0.72443  0.44967  0.49467  Biso   1.000  H
  H54      1.0000 0.55033  0.27477  0.49467  Biso   1.000  H
  H55      1.0000 0.62740  0.40340  0.28230  Biso   1.000  H
  H56      1.0000 0.59660  0.22400  0.28230  Biso   1.000  H
  H57      1.0000 0.77600  0.37260  0.28230  Biso   1.000  H
  H58      1.0000 0.29407  0.73673  0.61563  Biso   1.000  H
  H59      1.0000 0.26327  0.55733  0.61563  Biso   1.000  H
  H60      1.0000 0.44267  0.70593  0.61563  Biso   1.000  H
  H61      1.0000 0.96073  0.07007  0.94897  Biso   1.000  H
  H62      1.0000 0.92993  0.89067  0.94897  Biso   1.000  H
  H63      1.0000 0.10933  0.03927  0.94897  Biso   1.000  H
  H64      1.0000 0.37260  0.59660  0.71770  Biso   1.000  H
  H65      1.0000 0.40340  0.77600  0.71770  Biso   1.000  H
  H66      1.0000 0.22400  0.62740  0.71770  Biso   1.000  H
  H67      1.0000 0.03927  0.92993  0.05103  Biso   1.000  H
  H68      1.0000 0.07007  0.10933  0.05103  Biso   1.000  H
  H69      1.0000 0.89067  0.96073  0.05103  Biso   1.000  H
  H70      1.0000 0.70593  0.26327  0.38437  Biso   1.000  H
  H71      1.0000 0.73673  0.44267  0.38437  Biso   1.000  H
  H72      1.0000 0.55733  0.29407  0.38437  Biso   1.000  H
  H73      1.0000 0.67760  0.47250  0.20970  Biso   1.000  H
  H74      1.0000 0.52750  0.20510  0.20970  Biso   1.000  H
  H75      1.0000 0.79490  0.32240  0.20970  Biso   1.000  H
  H76      1.0000 0.34427  0.80583  0.54303  Biso   1.000  H
  H77      1.0000 0.19417  0.53843  0.54303  Biso   1.000  H
  H78      1.0000 0.46157  0.65573  0.54303  Biso   1.000  H
  H79      1.0000 0.01093  0.13917  0.87637  Biso   1.000  H
  H80      1.0000 0.86083  0.87177  0.87637  Biso   1.000  H
  H81      1.0000 0.12823  0.98907  0.87637  Biso   1.000  H
  H82      1.0000 0.32240  0.52750  0.79030  Biso   1.000  H
  H83      1.0000 0.47250  0.79490  0.79030  Biso   1.000  H
  H84      1.0000 0.20510  0.67760  0.79030  Biso   1.000  H
  H85      1.0000 0.98907  0.86083  0.12363  Biso   1.000  H
  H86      1.0000 0.13917  0.12823  0.12363  Biso   1.000  H
  H87      1.0000 0.87177  0.01093  0.12363  Biso   1.000  H
  H88      1.0000 0.65573  0.19417  0.45697  Biso   1.000  H
  H89      1.0000 0.80583  0.46157  0.45697  Biso   1.000  H
  H90      1.0000 0.53843  0.34427  0.45697  Biso   1.000  H
  C55      1.0000 0.64894  0.62129  0.39157  Biso   1.000  C
  C56      1.0000 0.37871  0.02765  0.39157  Biso   1.000  C
  C57      1.0000 0.97235  0.35106  0.39157  Biso   1.000  C
  C58      1.0000 0.31561  0.95462  0.72490  Biso   1.000  C
  C59      1.0000 0.04538  0.36098  0.72490  Biso   1.000  C
  C60      1.0000 0.63902  0.68439  0.72490  Biso   1.000  C
  C61      1.0000 0.98227  0.28796  0.05824  Biso   1.000  C
  C62      1.0000 0.71204  0.69432  0.05824  Biso   1.000  C
  C63      1.0000 0.30568  0.01773  0.05824  Biso   1.000  C
  C64      1.0000 0.35106  0.37871  0.60843  Biso   1.000  C
  C65      1.0000 0.62129  0.97235  0.60843  Biso   1.000  C
  C66      1.0000 0.02765  0.64894  0.60843  Biso   1.000  C
  C67      1.0000 0.01773  0.71204  0.94176  Biso   1.000  C
  C68      1.0000 0.28796  0.30568  0.94176  Biso   1.000  C
  C69      1.0000 0.69432  0.98227  0.94176  Biso   1.000  C
  C70      1.0000 0.68439  0.04538  0.27510  Biso   1.000  C
  C71      1.0000 0.95462  0.63902  0.27510  Biso   1.000  C
  C72      1.0000 0.36098  0.31561  0.27510  Biso   1.000  C
  C73      1.0000 0.70611  0.70243  0.42020  Biso   1.000  C
  C74      1.0000 0.29757  0.00368  0.42020  Biso   1.000  C
  C75      1.0000 0.99632  0.29389  0.42020  Biso   1.000  C
  C76      1.0000 0.37278  0.03576  0.75353  Biso   1.000  C
  C77      1.0000 0.96424  0.33701  0.75353  Biso   1.000  C
  C78      1.0000 0.66299  0.62722  0.75353  Biso   1.000  C
  C79      1.0000 0.03944  0.36910  0.08687  Biso   1.000  C
  C80      1.0000 0.63090  0.67035  0.08687  Biso   1.000  C
  C81      1.0000 0.32965  0.96056  0.08687  Biso   1.000  C
  C82      1.0000 0.29389  0.29757  0.57980  Biso   1.000  C
  C83      1.0000 0.70243  0.99632  0.57980  Biso   1.000  C
  C84      1.0000 0.00368  0.70611  0.57980  Biso   1.000  C
  C85      1.0000 0.96056  0.63090  0.91313  Biso   1.000  C
  C86      1.0000 0.36910  0.32965  0.91313  Biso   1.000  C
  C87      1.0000 0.67035  0.03944  0.91313  Biso   1.000  C
  C88      1.0000 0.62722  0.96424  0.24647  Biso   1.000  C
  C89      1.0000 0.03576  0.66299  0.24647  Biso   1.000  C
  C90      1.0000 0.33701  0.37278  0.24647  Biso   1.000  C
  H91      1.0000 0.75850  0.70790  0.42450  Biso   1.000  H
  H92      1.0000 0.29210  0.05060  0.42450  Biso   1.000  H
  H93      1.0000 0.94940  0.24150  0.42450  Biso   1.000  H
  H94      1.0000 0.42517  0.04123  0.75783  Biso   1.000  H
  H95      1.0000 0.95877  0.38393  0.75783  Biso   1.000  H
  H96      1.0000 0.61607  0.57483  0.75783  Biso   1.000  H
  H97      1.0000 0.09183  0.37457  0.09117  Biso   1.000  H
  H98      1.0000 0.62543  0.71727  0.09117  Biso   1.000  H
  H99      1.0000 0.28273  0.90817  0.09117  Biso   1.000  H
  H100     1.0000 0.24150  0.29210  0.57550  Biso   1.000  H
  H101     1.0000 0.70790  0.94940  0.57550  Biso   1.000  H
  H102     1.0000 0.05060  0.75850  0.57550  Biso   1.000  H
  H103     1.0000 0.90817  0.62543  0.90883  Biso   1.000  H
  H104     1.0000 0.37457  0.28273  0.90883  Biso   1.000  H
  H105     1.0000 0.71727  0.09183  0.90883  Biso   1.000  H
  H106     1.0000 0.57483  0.95877  0.24217  Biso   1.000  H
  H107     1.0000 0.04123  0.61607  0.24217  Biso   1.000  H
  H108     1.0000 0.38393  0.42517  0.24217  Biso   1.000  H
  H109     1.0000 0.69210  0.71240  0.48360  Biso   1.000  H
  H110     1.0000 0.28760  0.97970  0.48360  Biso   1.000  H
  H111     1.0000 0.02030  0.30790  0.48360  Biso   1.000  H
  H112     1.0000 0.35877  0.04573  0.81693  Biso   1.000  H
  H113     1.0000 0.95427  0.31303  0.81693  Biso   1.000  H
  H114     1.0000 0.68697  0.64123  0.81693  Biso   1.000  H
  H115     1.0000 0.02543  0.37907  0.15027  Biso   1.000  H
  H116     1.0000 0.62093  0.64637  0.15027  Biso   1.000  H
  H117     1.0000 0.35363  0.97457  0.15027  Biso   1.000  H
  H118     1.0000 0.30790  0.28760  0.51640  Biso   1.000  H
  H119     1.0000 0.71240  0.02030  0.51640  Biso   1.000  H
  H120     1.0000 0.97970  0.69210  0.51640  Biso   1.000  H
  H121     1.0000 0.97457  0.62093  0.84973  Biso   1.000  H
  H122     1.0000 0.37907  0.35363  0.84973  Biso   1.000  H
  H123     1.0000 0.64637  0.02543  0.84973  Biso   1.000  H
  H124     1.0000 0.64123  0.95427  0.18307  Biso   1.000  H
  H125     1.0000 0.04573  0.68697  0.18307  Biso   1.000  H
  H126     1.0000 0.31303  0.35877  0.18307  Biso   1.000  H
  C91      1.0000 0.70930  0.76300  0.35210  Biso   1.000  C
  C92      1.0000 0.23700  0.94630  0.35210  Biso   1.000  C
  C93      1.0000 0.05370  0.29070  0.35210  Biso   1.000  C
  C94      1.0000 0.37597  0.09633  0.68543  Biso   1.000  C
  C95      1.0000 0.90367  0.27963  0.68543  Biso   1.000  C
  C96      1.0000 0.72037  0.62403  0.68543  Biso   1.000  C
  C97      1.0000 0.04263  0.42967  0.01877  Biso   1.000  C
  C98      1.0000 0.57033  0.61297  0.01877  Biso   1.000  C
  C99      1.0000 0.38703  0.95737  0.01877  Biso   1.000  C
  C100     1.0000 0.29070  0.23700  0.64790  Biso   1.000  C
  C101     1.0000 0.76300  0.05370  0.64790  Biso   1.000  C
  C102     1.0000 0.94630  0.70930  0.64790  Biso   1.000  C
  C103     1.0000 0.95737  0.57033  0.98123  Biso   1.000  C
  C104     1.0000 0.42967  0.38703  0.98123  Biso   1.000  C
  C105     1.0000 0.61297  0.04263  0.98123  Biso   1.000  C
  C106     1.0000 0.62403  0.90367  0.31457  Biso   1.000  C
  C107     1.0000 0.09633  0.72037  0.31457  Biso   1.000  C
  C108     1.0000 0.27963  0.37597  0.31457  Biso   1.000  C
  H127     1.0000 0.74780  0.81520  0.37420  Biso   1.000  H
  H128     1.0000 0.18480  0.93260  0.37420  Biso   1.000  H
  H129     1.0000 0.06740  0.25220  0.37420  Biso   1.000  H
  H130     1.0000 0.41447  0.14853  0.70753  Biso   1.000  H
  H131     1.0000 0.85147  0.26593  0.70753  Biso   1.000  H
  H132     1.0000 0.73407  0.58553  0.70753  Biso   1.000  H
  H133     1.0000 0.08113  0.48187  0.04087  Biso   1.000  H
  H134     1.0000 0.51813  0.59927  0.04087  Biso   1.000  H
  H135     1.0000 0.40073  0.91887  0.04087  Biso   1.000  H
  H136     1.0000 0.25220  0.18480  0.62580  Biso   1.000  H
  H137     1.0000 0.81520  0.06740  0.62580  Biso   1.000  H
  H138     1.0000 0.93260  0.74780  0.62580  Biso   1.000  H
  H139     1.0000 0.91887  0.51813  0.95913  Biso   1.000  H
  H140     1.0000 0.48187  0.40073  0.95913  Biso   1.000  H
  H141     1.0000 0.59927  0.08113  0.95913  Biso   1.000  H
  H142     1.0000 0.58553  0.85147  0.29247  Biso   1.000  H
  H143     1.0000 0.14853  0.73407  0.29247  Biso   1.000  H
  H144     1.0000 0.26593  0.41447  0.29247  Biso   1.000  H
  H145     1.0000 0.65790  0.75880  0.34860  Biso   1.000  H
  H146     1.0000 0.24120  0.89910  0.34860  Biso   1.000  H
  H147     1.0000 0.10090  0.34210  0.34860  Biso   1.000  H
  H148     1.0000 0.32457  0.09213  0.68193  Biso   1.000  H
  H149     1.0000 0.90787  0.23243  0.68193  Biso   1.000  H
  H150     1.0000 0.76757  0.67543  0.68193  Biso   1.000  H
  H151     1.0000 0.99123  0.42547  0.01527  Biso   1.000  H
  H152     1.0000 0.57453  0.56577  0.01527  Biso   1.000  H
  H153     1.0000 0.43423  0.00877  0.01527  Biso   1.000  H
  H154     1.0000 0.34210  0.24120  0.65140  Biso   1.000  H
  H155     1.0000 0.75880  0.10090  0.65140  Biso   1.000  H
  H156     1.0000 0.89910  0.65790  0.65140  Biso   1.000  H
  H157     1.0000 0.00877  0.57453  0.98473  Biso   1.000  H
  H158     1.0000 0.42547  0.43423  0.98473  Biso   1.000  H
  H159     1.0000 0.56577  0.99123  0.98473  Biso   1.000  H
  H160     1.0000 0.67543  0.90787  0.31807  Biso   1.000  H
  H161     1.0000 0.09213  0.76757  0.31807  Biso   1.000  H
  H162     1.0000 0.23243  0.32457  0.31807  Biso   1.000  H
  H163     1.0000 0.72430  0.75420  0.28940  Biso   1.000  H
  H164     1.0000 0.24580  0.97010  0.28940  Biso   1.000  H
  H165     1.0000 0.02990  0.27570  0.28940  Biso   1.000  H
  H166     1.0000 0.39097  0.08753  0.62273  Biso   1.000  H
  H167     1.0000 0.91247  0.30343  0.62273  Biso   1.000  H
  H168     1.0000 0.69657  0.60903  0.62273  Biso   1.000  H
  H169     1.0000 0.05763  0.42087  0.95607  Biso   1.000  H
  H170     1.0000 0.57913  0.63677  0.95607  Biso   1.000  H
  H171     1.0000 0.36323  0.94237  0.95607  Biso   1.000  H
  H172     1.0000 0.27570  0.24580  0.71060  Biso   1.000  H
  H173     1.0000 0.75420  0.02990  0.71060  Biso   1.000  H
  H174     1.0000 0.97010  0.72430  0.71060  Biso   1.000  H
  H175     1.0000 0.94237  0.57913  0.04393  Biso   1.000  H
  H176     1.0000 0.42087  0.36323  0.04393  Biso   1.000  H
  H177     1.0000 0.63677  0.05763  0.04393  Biso   1.000  H
  H178     1.0000 0.60903  0.91247  0.37727  Biso   1.000  H
  H179     1.0000 0.08753  0.69657  0.37727  Biso   1.000  H
  H180     1.0000 0.30343  0.39097  0.37727  Biso   1.000  H
  O1       1.0000 0.44830  0.63860  0.18830  Biso   1.000  O
  O2       1.0000 0.36140  0.80970  0.18830  Biso   1.000  O
  O3       1.0000 0.19030  0.55170  0.18830  Biso   1.000  O
  O4       1.0000 0.11497  0.97193  0.52163  Biso   1.000  O
  O5       1.0000 0.02807  0.14303  0.52163  Biso   1.000  O
  O6       1.0000 0.85697  0.88503  0.52163  Biso   1.000  O
  O7       1.0000 0.78163  0.30527  0.85497  Biso   1.000  O
  O8       1.0000 0.69473  0.47637  0.85497  Biso   1.000  O
  O9       1.0000 0.52363  0.21837  0.85497  Biso   1.000  O
  O10      1.0000 0.55170  0.36140  0.81170  Biso   1.000  O
  O11      1.0000 0.63860  0.19030  0.81170  Biso   1.000  O
  O12      1.0000 0.80970  0.44830  0.81170  Biso   1.000  O
  O13      1.0000 0.21837  0.69473  0.14503  Biso   1.000  O
  O14      1.0000 0.30527  0.52363  0.14503  Biso   1.000  O
  O15      1.0000 0.47637  0.78163  0.14503  Biso   1.000  O
  O16      1.0000 0.88503  0.02807  0.47837  Biso   1.000  O
  O17      1.0000 0.97193  0.85697  0.47837  Biso   1.000  O
  O18      1.0000 0.14303  0.11497  0.47837  Biso   1.000  O
  H181     1.0000 0.40250  0.60240  0.17490  Biso   1.000  H
  H182     1.0000 0.39760  0.80010  0.17490  Biso   1.000  H
  H183     1.0000 0.19990  0.59750  0.17490  Biso   1.000  H
  H184     1.0000 0.06917  0.93573  0.50823  Biso   1.000  H
  H185     1.0000 0.06427  0.13343  0.50823  Biso   1.000  H
  H186     1.0000 0.86657  0.93083  0.50823  Biso   1.000  H
  H187     1.0000 0.73583  0.26907  0.84157  Biso   1.000  H
  H188     1.0000 0.73093  0.46677  0.84157  Biso   1.000  H
  H189     1.0000 0.53323  0.26417  0.84157  Biso   1.000  H
  H190     1.0000 0.59750  0.39760  0.82510  Biso   1.000  H
  H191     1.0000 0.60240  0.19990  0.82510  Biso   1.000  H
  H192     1.0000 0.80010  0.40250  0.82510  Biso   1.000  H
  H193     1.0000 0.26417  0.73093  0.15843  Biso   1.000  H
  H194     1.0000 0.26907  0.53323  0.15843  Biso   1.000  H
  H195     1.0000 0.46677  0.73583  0.15843  Biso   1.000  H
  H196     1.0000 0.93083  0.06427  0.49177  Biso   1.000  H
  H197     1.0000 0.93573  0.86657  0.49177  Biso   1.000  H
  H198     1.0000 0.13343  0.06917  0.49177  Biso   1.000  H
  C109     1.0000 0.47070  0.61330  0.26730  Biso   1.000  C
  C110     1.0000 0.38670  0.85740  0.26730  Biso   1.000  C
  C111     1.0000 0.14260  0.52930  0.26730  Biso   1.000  C
  C112     1.0000 0.13737  0.94663  0.60063  Biso   1.000  C
  C113     1.0000 0.05337  0.19073  0.60063  Biso   1.000  C
  C114     1.0000 0.80927  0.86263  0.60063  Biso   1.000  C
  C115     1.0000 0.80403  0.27997  0.93397  Biso   1.000  C
  C116     1.0000 0.72003  0.52407  0.93397  Biso   1.000  C
  C117     1.0000 0.47593  0.19597  0.93397  Biso   1.000  C
  C118     1.0000 0.52930  0.38670  0.73270  Biso   1.000  C
  C119     1.0000 0.61330  0.14260  0.73270  Biso   1.000  C
  C120     1.0000 0.85740  0.47070  0.73270  Biso   1.000  C
  C121     1.0000 0.19597  0.72003  0.06603  Biso   1.000  C
  C122     1.0000 0.27997  0.47593  0.06603  Biso   1.000  C
  C123     1.0000 0.52407  0.80403  0.06603  Biso   1.000  C
  C124     1.0000 0.86263  0.05337  0.39937  Biso   1.000  C
  C125     1.0000 0.94663  0.80927  0.39937  Biso   1.000  C
  C126     1.0000 0.19073  0.13737  0.39937  Biso   1.000  C
  H199     1.0000 0.52160  0.65550  0.29050  Biso   1.000  H
  H200     1.0000 0.34450  0.86610  0.29050  Biso   1.000  H
  H201     1.0000 0.13390  0.47840  0.29050  Biso   1.000  H
  H202     1.0000 0.18827  0.98883  0.62383  Biso   1.000  H
  H203     1.0000 0.01117  0.19943  0.62383  Biso   1.000  H
  H204     1.0000 0.80057  0.81173  0.62383  Biso   1.000  H
  H205     1.0000 0.85493  0.32217  0.95717  Biso   1.000  H
  H206     1.0000 0.67783  0.53277  0.95717  Biso   1.000  H
  H207     1.0000 0.46723  0.14507  0.95717  Biso   1.000  H
  H208     1.0000 0.47840  0.34450  0.70950  Biso   1.000  H
  H209     1.0000 0.65550  0.13390  0.70950  Biso   1.000  H
  H210     1.0000 0.86610  0.52160  0.70950  Biso   1.000  H
  H211     1.0000 0.14507  0.67783  0.04283  Biso   1.000  H
  H212     1.0000 0.32217  0.46723  0.04283  Biso   1.000  H
  H213     1.0000 0.53277  0.85493  0.04283  Biso   1.000  H
  H214     1.0000 0.81173  0.01117  0.37617  Biso   1.000  H
  H215     1.0000 0.98883  0.80057  0.37617  Biso   1.000  H
  H216     1.0000 0.19943  0.18827  0.37617  Biso   1.000  H
  H217     1.0000 0.47690  0.56810  0.25040  Biso   1.000  H
  H218     1.0000 0.43190  0.90880  0.25040  Biso   1.000  H
  H219     1.0000 0.09120  0.52310  0.25040  Biso   1.000  H
  H220     1.0000 0.14357  0.90143  0.58373  Biso   1.000  H
  H221     1.0000 0.09857  0.24213  0.58373  Biso   1.000  H
  H222     1.0000 0.75787  0.85643  0.58373  Biso   1.000  H
  H223     1.0000 0.81023  0.23477  0.91707  Biso   1.000  H
  H224     1.0000 0.76523  0.57547  0.91707  Biso   1.000  H
  H225     1.0000 0.42453  0.18977  0.91707  Biso   1.000  H
  H226     1.0000 0.52310  0.43190  0.74960  Biso   1.000  H
  H227     1.0000 0.56810  0.09120  0.74960  Biso   1.000  H
  H228     1.0000 0.90880  0.47690  0.74960  Biso   1.000  H
  H229     1.0000 0.18977  0.76523  0.08293  Biso   1.000  H
  H230     1.0000 0.23477  0.42453  0.08293  Biso   1.000  H
  H231     1.0000 0.57547  0.81023  0.08293  Biso   1.000  H
  H232     1.0000 0.85643  0.09857  0.41627  Biso   1.000  H
  H233     1.0000 0.90143  0.75787  0.41627  Biso   1.000  H
  H234     1.0000 0.24213  0.14357  0.41627  Biso   1.000  H
  O19      1.0000 0.34840  0.57810  0.28500  Biso   1.000  O
  O20      1.0000 0.42190  0.77030  0.28500  Biso   1.000  O
  O21      1.0000 0.22970  0.65160  0.28500  Biso   1.000  O
  O22      1.0000 0.01507  0.91143  0.61833  Biso   1.000  O
  O23      1.0000 0.08857  0.10363  0.61833  Biso   1.000  O
  O24      1.0000 0.89637  0.98493  0.61833  Biso   1.000  O
  O25      1.0000 0.68173  0.24477  0.95167  Biso   1.000  O
  O26      1.0000 0.75523  0.43697  0.95167  Biso   1.000  O
  O27      1.0000 0.56303  0.31827  0.95167  Biso   1.000  O
  O28      1.0000 0.65160  0.42190  0.71500  Biso   1.000  O
  O29      1.0000 0.57810  0.22970  0.71500  Biso   1.000  O
  O30      1.0000 0.77030  0.34840  0.71500  Biso   1.000  O
  O31      1.0000 0.31827  0.75523  0.04833  Biso   1.000  O
  O32      1.0000 0.24477  0.56303  0.04833  Biso   1.000  O
  O33      1.0000 0.43697  0.68173  0.04833  Biso   1.000  O
  O34      1.0000 0.98493  0.08857  0.38167  Biso   1.000  O
  O35      1.0000 0.91143  0.89637  0.38167  Biso   1.000  O
  O36      1.0000 0.10363  0.01507  0.38167  Biso   1.000  O
  C127     1.0000 0.48390  0.65200  0.29730  Biso   1.000  C
  C128     1.0000 0.34800  0.83190  0.29730  Biso   1.000  C
  C129     1.0000 0.16810  0.51610  0.29730  Biso   1.000  C
  C130     1.0000 0.15057  0.98533  0.63063  Biso   1.000  C
  C131     1.0000 0.01467  0.16523  0.63063  Biso   1.000  C
  C132     1.0000 0.83477  0.84943  0.63063  Biso   1.000  C
  C133     1.0000 0.81723  0.31867  0.96397  Biso   1.000  C
  C134     1.0000 0.68133  0.49857  0.96397  Biso   1.000  C
  C135     1.0000 0.50143  0.18277  0.96397  Biso   1.000  C
  C136     1.0000 0.51610  0.34800  0.70270  Biso   1.000  C
  C137     1.0000 0.65200  0.16810  0.70270  Biso   1.000  C
  C138     1.0000 0.83190  0.48390  0.70270  Biso   1.000  C
  C139     1.0000 0.18277  0.68133  0.03603  Biso   1.000  C
  C140     1.0000 0.31867  0.50143  0.03603  Biso   1.000  C
  C141     1.0000 0.49857  0.81723  0.03603  Biso   1.000  C
  C142     1.0000 0.84943  0.01467  0.36937  Biso   1.000  C
  C143     1.0000 0.98533  0.83477  0.36937  Biso   1.000  C
  C144     1.0000 0.16523  0.15057  0.36937  Biso   1.000  C
  H235     1.0000 0.52210  0.68190  0.34750  Biso   1.000  H
  H236     1.0000 0.31810  0.84020  0.34750  Biso   1.000  H
  H237     1.0000 0.15980  0.47790  0.34750  Biso   1.000  H
  H238     1.0000 0.18877  0.01523  0.68083  Biso   1.000  H
  H239     1.0000 0.98477  0.17353  0.68083  Biso   1.000  H
  H240     1.0000 0.82647  0.81123  0.68083  Biso   1.000  H
  H241     1.0000 0.85543  0.34857  0.01417  Biso   1.000  H
  H242     1.0000 0.65143  0.50687  0.01417  Biso   1.000  H
  H243     1.0000 0.49313  0.14457  0.01417  Biso   1.000  H
  H244     1.0000 0.47790  0.31810  0.65250  Biso   1.000  H
  H245     1.0000 0.68190  0.15980  0.65250  Biso   1.000  H
  H246     1.0000 0.84020  0.52210  0.65250  Biso   1.000  H
  H247     1.0000 0.14457  0.65143  0.98583  Biso   1.000  H
  H248     1.0000 0.34857  0.49313  0.98583  Biso   1.000  H
  H249     1.0000 0.50687  0.85543  0.98583  Biso   1.000  H
  H250     1.0000 0.81123  0.98477  0.31917  Biso   1.000  H
  H251     1.0000 0.01523  0.82647  0.31917  Biso   1.000  H
  H252     1.0000 0.17353  0.18877  0.31917  Biso   1.000  H
  H253     1.0000 0.50630  0.62650  0.25860  Biso   1.000  H
  H254     1.0000 0.37350  0.87980  0.25860  Biso   1.000  H
  H255     1.0000 0.12020  0.49370  0.25860  Biso   1.000  H
  H256     1.0000 0.17297  0.95983  0.59193  Biso   1.000  H
  H257     1.0000 0.04017  0.21313  0.59193  Biso   1.000  H
  H258     1.0000 0.78687  0.82703  0.59193  Biso   1.000  H
  H259     1.0000 0.83963  0.29317  0.92527  Biso   1.000  H
  H260     1.0000 0.70683  0.54647  0.92527  Biso   1.000  H
  H261     1.0000 0.45353  0.16037  0.92527  Biso   1.000  H
  H262     1.0000 0.49370  0.37350  0.74140  Biso   1.000  H
  H263     1.0000 0.62650  0.12020  0.74140  Biso   1.000  H
  H264     1.0000 0.87980  0.50630  0.74140  Biso   1.000  H
  H265     1.0000 0.16037  0.70683  0.07473  Biso   1.000  H
  H266     1.0000 0.29317  0.45353  0.07473  Biso   1.000  H
  H267     1.0000 0.54647  0.83963  0.07473  Biso   1.000  H
  H268     1.0000 0.82703  0.04017  0.40807  Biso   1.000  H
  H269     1.0000 0.95983  0.78687  0.40807  Biso   1.000  H
  H270     1.0000 0.21313  0.17297  0.40807  Biso   1.000  H
  O37      1.0000 0.47450  0.70390  0.24070  Biso   1.000  O
  O38      1.0000 0.29610  0.77060  0.24070  Biso   1.000  O
  O39      1.0000 0.22940  0.52550  0.24070  Biso   1.000  O
  O40      1.0000 0.14117  0.03723  0.57403  Biso   1.000  O
  O41      1.0000 0.96277  0.10393  0.57403  Biso   1.000  O
  O42      1.0000 0.89607  0.85883  0.57403  Biso   1.000  O
  O43      1.0000 0.80783  0.37057  0.90737  Biso   1.000  O
  O44      1.0000 0.62943  0.43727  0.90737  Biso   1.000  O
  O45      1.0000 0.56273  0.19217  0.90737  Biso   1.000  O
  O46      1.0000 0.52550  0.29610  0.75930  Biso   1.000  O
  O47      1.0000 0.70390  0.22940  0.75930  Biso   1.000  O
  O48      1.0000 0.77060  0.47450  0.75930  Biso   1.000  O
  O49      1.0000 0.19217  0.62943  0.09263  Biso   1.000  O
  O50      1.0000 0.37057  0.56273  0.09263  Biso   1.000  O
  O51      1.0000 0.43727  0.80783  0.09263  Biso   1.000  O
  O52      1.0000 0.85883  0.96277  0.42597  Biso   1.000  O
  O53      1.0000 0.03723  0.89607  0.42597  Biso   1.000  O
  O54      1.0000 0.10393  0.14117  0.42597  Biso   1.000  O
  O55      1.0000 0.36250  0.62210  0.33400  Biso   1.000  O
  O56      1.0000 0.37790  0.74040  0.33400  Biso   1.000  O
  O57      1.0000 0.25960  0.63750  0.33400  Biso   1.000  O
  O58      1.0000 0.02917  0.95543  0.66733  Biso   1.000  O
  O59      1.0000 0.04457  0.07373  0.66733  Biso   1.000  O
  O60      1.0000 0.92627  0.97083  0.66733  Biso   1.000  O
  O61      1.0000 0.69583  0.28877  0.00067  Biso   1.000  O
  O62      1.0000 0.71123  0.40707  0.00067  Biso   1.000  O
  O63      1.0000 0.59293  0.30417  0.00067  Biso   1.000  O
  O64      1.0000 0.63750  0.37790  0.66600  Biso   1.000  O
  O65      1.0000 0.62210  0.25960  0.66600  Biso   1.000  O
  O66      1.0000 0.74040  0.36250  0.66600  Biso   1.000  O
  O67      1.0000 0.30417  0.71123  0.99933  Biso   1.000  O
  O68      1.0000 0.28877  0.59293  0.99933  Biso   1.000  O
  O69      1.0000 0.40707  0.69583  0.99933  Biso   1.000  O
  O70      1.0000 0.97083  0.04457  0.33267  Biso   1.000  O
  O71      1.0000 0.95543  0.92627  0.33267  Biso   1.000  O
  O72      1.0000 0.07373  0.02917  0.33267  Biso   1.000  O
  C145     1.0000 0.41110  0.59040  0.34270  Biso   1.000  C
  C146     1.0000 0.40960  0.82070  0.34270  Biso   1.000  C
  C147     1.0000 0.17930  0.58890  0.34270  Biso   1.000  C
  C148     1.0000 0.07777  0.92373  0.67603  Biso   1.000  C
  C149     1.0000 0.07627  0.15403  0.67603  Biso   1.000  C
  C150     1.0000 0.84597  0.92223  0.67603  Biso   1.000  C
  C151     1.0000 0.74443  0.25707  0.00937  Biso   1.000  C
  C152     1.0000 0.74293  0.48737  0.00937  Biso   1.000  C
  C153     1.0000 0.51263  0.25557  0.00937  Biso   1.000  C
  C154     1.0000 0.58890  0.40960  0.65730  Biso   1.000  C
  C155     1.0000 0.59040  0.17930  0.65730  Biso   1.000  C
  C156     1.0000 0.82070  0.41110  0.65730  Biso   1.000  C
  C157     1.0000 0.25557  0.74293  0.99063  Biso   1.000  C
  C158     1.0000 0.25707  0.51263  0.99063  Biso   1.000  C
  C159     1.0000 0.48737  0.74443  0.99063  Biso   1.000  C
  C160     1.0000 0.92223  0.07627  0.32397  Biso   1.000  C
  C161     1.0000 0.92373  0.84597  0.32397  Biso   1.000  C
  C162     1.0000 0.15403  0.07777  0.32397  Biso   1.000  C
  H271     1.0000 0.42720  0.57410  0.39960  Biso   1.000  H
  H272     1.0000 0.42590  0.85310  0.39960  Biso   1.000  H
  H273     1.0000 0.14690  0.57280  0.39960  Biso   1.000  H
  H274     1.0000 0.09387  0.90743  0.73293  Biso   1.000  H
  H275     1.0000 0.09257  0.18643  0.73293  Biso   1.000  H
  H276     1.0000 0.81357  0.90613  0.73293  Biso   1.000  H
  H277     1.0000 0.76053  0.24077  0.06627  Biso   1.000  H
  H278     1.0000 0.75923  0.51977  0.06627  Biso   1.000  H
  H279     1.0000 0.48023  0.23947  0.06627  Biso   1.000  H
  H280     1.0000 0.57280  0.42590  0.60040  Biso   1.000  H
  H281     1.0000 0.57410  0.14690  0.60040  Biso   1.000  H
  H282     1.0000 0.85310  0.42720  0.60040  Biso   1.000  H
  H283     1.0000 0.23947  0.75923  0.93373  Biso   1.000  H
  H284     1.0000 0.24077  0.48023  0.93373  Biso   1.000  H
  H285     1.0000 0.51977  0.76053  0.93373  Biso   1.000  H
  H286     1.0000 0.90613  0.09257  0.26707  Biso   1.000  H
  H287     1.0000 0.90743  0.81357  0.26707  Biso   1.000  H
  H288     1.0000 0.18643  0.09387  0.26707  Biso   1.000  H
  H289     1.0000 0.36400  0.54590  0.31670  Biso   1.000  H
  H290     1.0000 0.45410  0.81810  0.31670  Biso   1.000  H
  H291     1.0000 0.18190  0.63600  0.31670  Biso   1.000  H
  H292     1.0000 0.03067  0.87923  0.65003  Biso   1.000  H
  H293     1.0000 0.12077  0.15143  0.65003  Biso   1.000  H
  H294     1.0000 0.84857  0.96933  0.65003  Biso   1.000  H
  H295     1.0000 0.69733  0.21257  0.98337  Biso   1.000  H
  H296     1.0000 0.78743  0.48477  0.98337  Biso   1.000  H
  H297     1.0000 0.51523  0.30267  0.98337  Biso   1.000  H
  H298     1.0000 0.63600  0.45410  0.68330  Biso   1.000  H
  H299     1.0000 0.54590  0.18190  0.68330  Biso   1.000  H
  H300     1.0000 0.81810  0.36400  0.68330  Biso   1.000  H
  H301     1.0000 0.30267  0.78743  0.01663  Biso   1.000  H
  H302     1.0000 0.21257  0.51523  0.01663  Biso   1.000  H
  H303     1.0000 0.48477  0.69733  0.01663  Biso   1.000  H
  H304     1.0000 0.96933  0.12077  0.34997  Biso   1.000  H
  H305     1.0000 0.87923  0.84857  0.34997  Biso   1.000  H
  H306     1.0000 0.15143  0.03067  0.34997  Biso   1.000  H
  H307     1.0000 0.40020  0.63220  0.35870  Biso   1.000  H
  H308     1.0000 0.36780  0.76800  0.35870  Biso   1.000  H
  H309     1.0000 0.23200  0.59980  0.35870  Biso   1.000  H
  H310     1.0000 0.06687  0.96553  0.69203  Biso   1.000  H
  H311     1.0000 0.03447  0.10133  0.69203  Biso   1.000  H
  H312     1.0000 0.89867  0.93313  0.69203  Biso   1.000  H
  H313     1.0000 0.73353  0.29887  0.02537  Biso   1.000  H
  H314     1.0000 0.70113  0.43467  0.02537  Biso   1.000  H
  H315     1.0000 0.56533  0.26647  0.02537  Biso   1.000  H
  H316     1.0000 0.59980  0.36780  0.64130  Biso   1.000  H
  H317     1.0000 0.63220  0.23200  0.64130  Biso   1.000  H
  H318     1.0000 0.76800  0.40020  0.64130  Biso   1.000  H
  H319     1.0000 0.26647  0.70113  0.97463  Biso   1.000  H
  H320     1.0000 0.29887  0.56533  0.97463  Biso   1.000  H
  H321     1.0000 0.43467  0.73353  0.97463  Biso   1.000  H
  H322     1.0000 0.93313  0.03447  0.30797  Biso   1.000  H
  H323     1.0000 0.96553  0.89867  0.30797  Biso   1.000  H
  H324     1.0000 0.10133  0.06687  0.30797  Biso   1.000  H
