data_image0
_cell_length_a       11.8523
_cell_length_b       8.6406
_cell_length_c       20.0139
_cell_angle_alpha    90
_cell_angle_beta     92.853
_cell_angle_gamma    90

_symmetry_space_group_name_H-M    "P 1"
_symmetry_int_tables_number       1

loop_
  _symmetry_equiv_pos_as_xyz
  'x, y, z'

loop_
  _atom_site_label
  _atom_site_occupancy
  _atom_site_fract_x
  _atom_site_fract_y
  _atom_site_fract_z
  _atom_site_thermal_displace_type
  _atom_site_B_iso_or_equiv
  _atom_site_type_symbol
  Cu1      1.0000 0.95283  0.93808  0.44160  Biso   1.000  Cu
  Cu2      1.0000 0.54717  0.43808  0.05840  Biso   1.000  Cu
  Cu3      1.0000 0.04717  0.06192  0.55840  Biso   1.000  Cu
  Cu4      1.0000 0.45283  0.56192  0.94160  Biso   1.000  Cu
  I1       1.0000 0.86220  0.88239  0.55606  Biso   1.000  I
  I2       1.0000 0.63780  0.38239  0.94394  Biso   1.000  I
  I3       1.0000 0.13780  0.11761  0.44394  Biso   1.000  I
  I4       1.0000 0.36220  0.61761  0.05606  Biso   1.000  I
  S1       1.0000 0.01619  0.68890  0.41456  Biso   1.000  S
  S2       1.0000 0.48381  0.18890  0.08544  Biso   1.000  S
  S3       1.0000 0.98381  0.31110  0.58544  Biso   1.000  S
  S4       1.0000 0.51619  0.81110  0.91456  Biso   1.000  S
  S5       1.0000 0.66326  0.58394  0.13246  Biso   1.000  S
  S6       1.0000 0.83674  0.08394  0.36754  Biso   1.000  S
  S7       1.0000 0.33674  0.41606  0.86754  Biso   1.000  S
  S8       1.0000 0.16326  0.91606  0.63246  Biso   1.000  S
  C1       1.0000 0.12990  0.78800  0.30630  Biso   1.000  C
  C2       1.0000 0.37010  0.28800  0.19370  Biso   1.000  C
  C3       1.0000 0.87010  0.21200  0.69370  Biso   1.000  C
  C4       1.0000 0.62990  0.71200  0.80630  Biso   1.000  C
  H1       1.0000 0.13240  0.78910  0.25690  Biso   1.000  H
  H2       1.0000 0.36760  0.28910  0.24310  Biso   1.000  H
  H3       1.0000 0.86760  0.21090  0.74310  Biso   1.000  H
  H4       1.0000 0.63240  0.71090  0.75690  Biso   1.000  H
  H5       1.0000 0.09910  0.88870  0.32040  Biso   1.000  H
  H6       1.0000 0.40090  0.38870  0.17960  Biso   1.000  H
  H7       1.0000 0.90090  0.11130  0.67960  Biso   1.000  H
  H8       1.0000 0.59910  0.61130  0.82040  Biso   1.000  H
  C5       1.0000 0.25000  0.77000  0.33670  Biso   1.000  C
  C6       1.0000 0.25000  0.27000  0.16330  Biso   1.000  C
  C7       1.0000 0.75000  0.23000  0.66330  Biso   1.000  C
  C8       1.0000 0.75000  0.73000  0.83670  Biso   1.000  C
  H9       1.0000 0.24950  0.78490  0.38580  Biso   1.000  H
  H10      1.0000 0.25050  0.28490  0.11420  Biso   1.000  H
  H11      1.0000 0.75050  0.21510  0.61420  Biso   1.000  H
  H12      1.0000 0.74950  0.71510  0.88580  Biso   1.000  H
  H13      1.0000 0.29890  0.85070  0.31830  Biso   1.000  H
  H14      1.0000 0.20110  0.35070  0.18170  Biso   1.000  H
  H15      1.0000 0.70110  0.14930  0.68170  Biso   1.000  H
  H16      1.0000 0.79890  0.64930  0.81830  Biso   1.000  H
  C9       1.0000 0.29840  0.61030  0.32180  Biso   1.000  C
  C10      1.0000 0.20160  0.11030  0.17820  Biso   1.000  C
  C11      1.0000 0.70160  0.38970  0.67820  Biso   1.000  C
  C12      1.0000 0.79840  0.88970  0.82180  Biso   1.000  C
  H17      1.0000 0.30670  0.59940  0.27310  Biso   1.000  H
  H18      1.0000 0.19330  0.09940  0.22690  Biso   1.000  H
  H19      1.0000 0.69330  0.40060  0.72690  Biso   1.000  H
  H20      1.0000 0.80670  0.90060  0.77310  Biso   1.000  H
  H21      1.0000 0.37410  0.59970  0.34450  Biso   1.000  H
  H22      1.0000 0.12590  0.09970  0.15550  Biso   1.000  H
  H23      1.0000 0.62590  0.40030  0.65550  Biso   1.000  H
  H24      1.0000 0.87410  0.90030  0.84450  Biso   1.000  H
  C13      1.0000 0.22080  0.48330  0.34600  Biso   1.000  C
  C14      1.0000 0.27920  0.98330  0.15400  Biso   1.000  C
  C15      1.0000 0.77920  0.51670  0.65400  Biso   1.000  C
  C16      1.0000 0.72080  0.01670  0.84600  Biso   1.000  C
  H25      1.0000 0.25160  0.38100  0.33400  Biso   1.000  H
  H26      1.0000 0.24840  0.88100  0.16600  Biso   1.000  H
  H27      1.0000 0.74840  0.61900  0.66600  Biso   1.000  H
  H28      1.0000 0.75160  0.11900  0.83400  Biso   1.000  H
  H29      1.0000 0.21880  0.48820  0.39530  Biso   1.000  H
  H30      1.0000 0.28120  0.98820  0.10470  Biso   1.000  H
  H31      1.0000 0.78120  0.51180  0.60470  Biso   1.000  H
  H32      1.0000 0.71880  0.01180  0.89530  Biso   1.000  H
  C17      1.0000 0.10220  0.49890  0.31563  Biso   1.000  C
  C18      1.0000 0.39780  0.99890  0.18437  Biso   1.000  C
  C19      1.0000 0.89780  0.50110  0.68437  Biso   1.000  C
  C20      1.0000 0.60220  0.00110  0.81563  Biso   1.000  C
  H33      1.0000 0.05380  0.41910  0.33520  Biso   1.000  H
  H34      1.0000 0.44620  0.91910  0.16480  Biso   1.000  H
  H35      1.0000 0.94620  0.58090  0.66480  Biso   1.000  H
  H36      1.0000 0.55380  0.08090  0.83520  Biso   1.000  H
  H37      1.0000 0.10320  0.47930  0.26690  Biso   1.000  H
  H38      1.0000 0.39680  0.97930  0.23310  Biso   1.000  H
  H39      1.0000 0.89680  0.52070  0.73310  Biso   1.000  H
  H40      1.0000 0.60320  0.02070  0.76690  Biso   1.000  H
  C21      1.0000 0.05040  0.65850  0.32693  Biso   1.000  C
  C22      1.0000 0.44960  0.15850  0.17307  Biso   1.000  C
  C23      1.0000 0.94960  0.34150  0.67307  Biso   1.000  C
  C24      1.0000 0.55040  0.84150  0.82693  Biso   1.000  C
  H41      1.0000 0.97880  0.66640  0.29850  Biso   1.000  H
  H42      1.0000 0.52120  0.16640  0.20150  Biso   1.000  H
  H43      1.0000 0.02120  0.33360  0.70150  Biso   1.000  H
  H44      1.0000 0.47880  0.83360  0.79850  Biso   1.000  H
  C25      1.0000 0.90180  0.54940  0.42355  Biso   1.000  C
  C26      1.0000 0.59820  0.04940  0.07645  Biso   1.000  C
  C27      1.0000 0.09820  0.45060  0.57645  Biso   1.000  C
  C28      1.0000 0.40180  0.95060  0.92355  Biso   1.000  C
  H45      1.0000 0.93070  0.44440  0.41440  Biso   1.000  H
  H46      1.0000 0.56930  0.94440  0.08560  Biso   1.000  H
  H47      1.0000 0.06930  0.55560  0.58560  Biso   1.000  H
  H48      1.0000 0.43070  0.05560  0.91440  Biso   1.000  H
  H49      1.0000 0.87920  0.55110  0.47050  Biso   1.000  H
  H50      1.0000 0.62080  0.05110  0.02950  Biso   1.000  H
  H51      1.0000 0.12080  0.44890  0.52950  Biso   1.000  H
  H52      1.0000 0.37920  0.94890  0.97050  Biso   1.000  H
  C29      1.0000 0.79880  0.57850  0.37833  Biso   1.000  C
  C30      1.0000 0.70120  0.07850  0.12167  Biso   1.000  C
  C31      1.0000 0.20120  0.42150  0.62167  Biso   1.000  C
  C32      1.0000 0.29880  0.92150  0.87833  Biso   1.000  C
  C33      1.0000 0.70920  0.66660  0.40025  Biso   1.000  C
  C34      1.0000 0.79080  0.16660  0.09975  Biso   1.000  C
  C35      1.0000 0.29080  0.33340  0.59975  Biso   1.000  C
  C36      1.0000 0.20920  0.83340  0.90025  Biso   1.000  C
  H53      1.0000 0.71350  0.70990  0.44390  Biso   1.000  H
  H54      1.0000 0.78650  0.20990  0.05610  Biso   1.000  H
  H55      1.0000 0.28650  0.29010  0.55610  Biso   1.000  H
  H56      1.0000 0.21350  0.79010  0.94390  Biso   1.000  H
  C37      1.0000 0.61350  0.69130  0.35842  Biso   1.000  C
  C38      1.0000 0.88650  0.19130  0.14158  Biso   1.000  C
  C39      1.0000 0.38650  0.30870  0.64158  Biso   1.000  C
  C40      1.0000 0.11350  0.80870  0.85842  Biso   1.000  C
  H57      1.0000 0.55280  0.75140  0.37370  Biso   1.000  H
  H58      1.0000 0.94720  0.25140  0.12630  Biso   1.000  H
  H59      1.0000 0.44720  0.24860  0.62630  Biso   1.000  H
  H60      1.0000 0.05280  0.74860  0.87370  Biso   1.000  H
  C41      1.0000 0.60620  0.62870  0.29444  Biso   1.000  C
  C42      1.0000 0.89380  0.12870  0.20556  Biso   1.000  C
  C43      1.0000 0.39380  0.37130  0.70556  Biso   1.000  C
  C44      1.0000 0.10620  0.87130  0.79444  Biso   1.000  C
  H61      1.0000 0.54170  0.64890  0.26570  Biso   1.000  H
  H62      1.0000 0.95830  0.14890  0.23430  Biso   1.000  H
  H63      1.0000 0.45830  0.35110  0.73430  Biso   1.000  H
  H64      1.0000 0.04170  0.85110  0.76570  Biso   1.000  H
  C45      1.0000 0.69320  0.53640  0.27233  Biso   1.000  C
  C46      1.0000 0.80680  0.03640  0.22767  Biso   1.000  C
  C47      1.0000 0.30680  0.46360  0.72767  Biso   1.000  C
  C48      1.0000 0.19320  0.96360  0.77233  Biso   1.000  C
  C49      1.0000 0.78820  0.51260  0.31444  Biso   1.000  C
  C50      1.0000 0.71180  0.01260  0.18556  Biso   1.000  C
  C51      1.0000 0.21180  0.48740  0.68556  Biso   1.000  C
  C52      1.0000 0.28820  0.98740  0.81444  Biso   1.000  C
  H65      1.0000 0.84770  0.44980  0.29950  Biso   1.000  H
  H66      1.0000 0.65230  0.94980  0.20050  Biso   1.000  H
  H67      1.0000 0.15230  0.55020  0.70050  Biso   1.000  H
  H68      1.0000 0.34770  0.05020  0.79950  Biso   1.000  H
  C53      1.0000 0.68030  0.45640  0.20483  Biso   1.000  C
  C54      1.0000 0.81970  0.95640  0.29517  Biso   1.000  C
  C55      1.0000 0.31970  0.54360  0.79517  Biso   1.000  C
  C56      1.0000 0.18030  0.04360  0.70483  Biso   1.000  C
  H69      1.0000 0.61390  0.38700  0.20520  Biso   1.000  H
  H70      1.0000 0.88610  0.88700  0.29480  Biso   1.000  H
  H71      1.0000 0.38610  0.61300  0.79480  Biso   1.000  H
  H72      1.0000 0.11390  0.11300  0.70520  Biso   1.000  H
  H73      1.0000 0.74770  0.39080  0.19920  Biso   1.000  H
  H74      1.0000 0.75230  0.89080  0.30080  Biso   1.000  H
  H75      1.0000 0.25230  0.60920  0.80080  Biso   1.000  H
  H76      1.0000 0.24770  0.10920  0.69920  Biso   1.000  H
  C57      1.0000 0.80510  0.59680  0.09920  Biso   1.000  C
  C58      1.0000 0.69490  0.09680  0.40080  Biso   1.000  C
  C59      1.0000 0.19490  0.40320  0.90080  Biso   1.000  C
  C60      1.0000 0.30510  0.90320  0.59920  Biso   1.000  C
  H77      1.0000 0.82310  0.49580  0.07780  Biso   1.000  H
  H78      1.0000 0.67690  0.99580  0.42220  Biso   1.000  H
  H79      1.0000 0.17690  0.50420  0.92220  Biso   1.000  H
  H80      1.0000 0.32310  0.00420  0.57780  Biso   1.000  H
  C61      1.0000 0.89820  0.63420  0.15251  Biso   1.000  C
  C62      1.0000 0.60180  0.13420  0.34749  Biso   1.000  C
  C63      1.0000 0.10180  0.36580  0.84749  Biso   1.000  C
  C64      1.0000 0.39820  0.86580  0.65251  Biso   1.000  C
  H81      1.0000 0.90320  0.55040  0.18630  Biso   1.000  H
  H82      1.0000 0.59680  0.05040  0.31370  Biso   1.000  H
  H83      1.0000 0.09680  0.44960  0.81370  Biso   1.000  H
  H84      1.0000 0.40320  0.94960  0.68630  Biso   1.000  H
  H85      1.0000 0.88000  0.73180  0.17550  Biso   1.000  H
  H86      1.0000 0.62000  0.23180  0.32450  Biso   1.000  H
  H87      1.0000 0.12000  0.26820  0.82450  Biso   1.000  H
  H88      1.0000 0.38000  0.76820  0.67550  Biso   1.000  H
  C65      1.0000 0.01170  0.65050  0.11960  Biso   1.000  C
  C66      1.0000 0.48830  0.15050  0.38040  Biso   1.000  C
  C67      1.0000 0.98830  0.34950  0.88040  Biso   1.000  C
  C68      1.0000 0.51170  0.84950  0.61960  Biso   1.000  C
  H89      1.0000 0.07110  0.67790  0.15400  Biso   1.000  H
  H90      1.0000 0.42890  0.17790  0.34600  Biso   1.000  H
  H91      1.0000 0.92890  0.32210  0.84600  Biso   1.000  H
  H92      1.0000 0.57110  0.82210  0.65400  Biso   1.000  H
  H93      1.0000 0.03220  0.55010  0.09970  Biso   1.000  H
  H94      1.0000 0.46780  0.05010  0.40030  Biso   1.000  H
  H95      1.0000 0.96780  0.44990  0.90030  Biso   1.000  H
  H96      1.0000 0.53220  0.94990  0.59970  Biso   1.000  H
  C69      1.0000 0.00650  0.77380  0.06550  Biso   1.000  C
  C70      1.0000 0.49350  0.27380  0.43450  Biso   1.000  C
  C71      1.0000 0.99350  0.22620  0.93450  Biso   1.000  C
  C72      1.0000 0.50650  0.72620  0.56550  Biso   1.000  C
  H97      1.0000 0.07950  0.77700  0.04350  Biso   1.000  H
  H98      1.0000 0.42050  0.27700  0.45650  Biso   1.000  H
  H99      1.0000 0.92050  0.22300  0.95650  Biso   1.000  H
  H100     1.0000 0.57950  0.72300  0.54350  Biso   1.000  H
  H101     1.0000 0.99430  0.87620  0.08610  Biso   1.000  H
  H102     1.0000 0.50570  0.37620  0.41390  Biso   1.000  H
  H103     1.0000 0.00570  0.12380  0.91390  Biso   1.000  H
  H104     1.0000 0.49430  0.62380  0.58610  Biso   1.000  H
  C73      1.0000 0.91150  0.74130  0.01322  Biso   1.000  C
  C74      1.0000 0.58850  0.24130  0.48678  Biso   1.000  C
  C75      1.0000 0.08850  0.25870  0.98678  Biso   1.000  C
  C76      1.0000 0.41150  0.75870  0.51322  Biso   1.000  C
  H105     1.0000 0.90640  0.82770  0.98070  Biso   1.000  H
  H106     1.0000 0.59360  0.32770  0.51930  Biso   1.000  H
  H107     1.0000 0.09360  0.17230  0.01930  Biso   1.000  H
  H108     1.0000 0.40640  0.67230  0.48070  Biso   1.000  H
  H109     1.0000 0.92900  0.64570  0.98850  Biso   1.000  H
  H110     1.0000 0.57100  0.14570  0.51150  Biso   1.000  H
  H111     1.0000 0.07100  0.35430  0.01150  Biso   1.000  H
  H112     1.0000 0.42900  0.85430  0.48850  Biso   1.000  H
  C77      1.0000 0.79820  0.72240  0.04514  Biso   1.000  C
  C78      1.0000 0.70180  0.22240  0.45486  Biso   1.000  C
  C79      1.0000 0.20180  0.27760  0.95486  Biso   1.000  C
  C80      1.0000 0.29820  0.77760  0.54514  Biso   1.000  C
  H113     1.0000 0.73960  0.69420  0.01030  Biso   1.000  H
  H114     1.0000 0.76040  0.19420  0.48970  Biso   1.000  H
  H115     1.0000 0.26040  0.30580  0.98970  Biso   1.000  H
  H116     1.0000 0.23960  0.80580  0.51030  Biso   1.000  H
  H117     1.0000 0.77620  0.82190  0.06530  Biso   1.000  H
  H118     1.0000 0.72380  0.32190  0.43470  Biso   1.000  H
  H119     1.0000 0.22380  0.17810  0.93470  Biso   1.000  H
  H120     1.0000 0.27620  0.67810  0.56530  Biso   1.000  H
