data_image0
_cell_length_a       11.2171
_cell_length_b       14.3433
_cell_length_c       14.8236
_cell_angle_alpha    92.217
_cell_angle_beta     90.488
_cell_angle_gamma    93.78

_symmetry_space_group_name_H-M    "P 1"
_symmetry_int_tables_number       1

loop_
  _symmetry_equiv_pos_as_xyz
  'x, y, z'

loop_
  _atom_site_label
  _atom_site_occupancy
  _atom_site_fract_x
  _atom_site_fract_y
  _atom_site_fract_z
  _atom_site_thermal_displace_type
  _atom_site_B_iso_or_equiv
  _atom_site_type_symbol
  Cu1      1.0000 0.53133  0.68052  0.32137  Biso   1.000  Cu
  Cu2      1.0000 0.46867  0.31948  0.67863  Biso   1.000  Cu
  Cu3      1.0000 0.35031  0.66802  0.19216  Biso   1.000  Cu
  Cu4      1.0000 0.64969  0.33198  0.80784  Biso   1.000  Cu
  Cu5      1.0000 0.36208  0.82067  0.31672  Biso   1.000  Cu
  Cu6      1.0000 0.63792  0.17933  0.68328  Biso   1.000  Cu
  Cu7      1.0000 0.53548  0.81119  0.18346  Biso   1.000  Cu
  Cu8      1.0000 0.46452  0.18881  0.81654  Biso   1.000  Cu
  I1       1.0000 0.30256  0.65156  0.37076  Biso   1.000  I
  I2       1.0000 0.69744  0.34844  0.62924  Biso   1.000  I
  I3       1.0000 0.57941  0.62729  0.15528  Biso   1.000  I
  I4       1.0000 0.42059  0.37271  0.84472  Biso   1.000  I
  I5       1.0000 0.59841  0.86726  0.34847  Biso   1.000  I
  I6       1.0000 0.40159  0.13274  0.65153  Biso   1.000  I
  I7       1.0000 0.30843  0.83695  0.13776  Biso   1.000  I
  I8       1.0000 0.69157  0.16305  0.86224  Biso   1.000  I
  S1       1.0000 0.61163  0.60494  0.44068  Biso   1.000  S
  S2       1.0000 0.38837  0.39506  0.55932  Biso   1.000  S
  S3       1.0000 0.78110  0.44723  0.87334  Biso   1.000  S
  S4       1.0000 0.21890  0.55277  0.12666  Biso   1.000  S
  S5       1.0000 0.24601  0.93827  0.36983  Biso   1.000  S
  S6       1.0000 0.75399  0.06173  0.63017  Biso   1.000  S
  S7       1.0000 0.38534  0.10881  0.93737  Biso   1.000  S
  S8       1.0000 0.61466  0.89119  0.06263  Biso   1.000  S
  C1       1.0000 0.77350  0.49060  0.37300  Biso   1.000  C
  C2       1.0000 0.22650  0.50940  0.62700  Biso   1.000  C
  H1       1.0000 0.72860  0.49110  0.31530  Biso   1.000  H
  H2       1.0000 0.27140  0.50890  0.68470  Biso   1.000  H
  H3       1.0000 0.73530  0.44100  0.40980  Biso   1.000  H
  H4       1.0000 0.26470  0.55900  0.59020  Biso   1.000  H
  C3       1.0000 0.90440  0.46880  0.35390  Biso   1.000  C
  C4       1.0000 0.09560  0.53120  0.64610  Biso   1.000  C
  H5       1.0000 0.94660  0.46050  0.41160  Biso   1.000  H
  H6       1.0000 0.05340  0.53950  0.58840  Biso   1.000  H
  H7       1.0000 0.90540  0.40960  0.31730  Biso   1.000  H
  H8       1.0000 0.09460  0.59040  0.68270  Biso   1.000  H
  C5       1.0000 0.96920  0.54720  0.30350  Biso   1.000  C
  C6       1.0000 0.03080  0.45280  0.69650  Biso   1.000  C
  H9       1.0000 0.05370  0.53310  0.29500  Biso   1.000  H
  H10      1.0000 0.94630  0.46690  0.70500  Biso   1.000  H
  H11      1.0000 0.93200  0.55140  0.24320  Biso   1.000  H
  H12      1.0000 0.06800  0.44860  0.75680  Biso   1.000  H
  C7       1.0000 0.96380  0.64020  0.35570  Biso   1.000  C
  C8       1.0000 0.03620  0.35980  0.64430  Biso   1.000  C
  H13      1.0000 0.00670  0.63760  0.41410  Biso   1.000  H
  H14      1.0000 0.99330  0.36240  0.58590  Biso   1.000  H
  H15      1.0000 0.00400  0.69050  0.32090  Biso   1.000  H
  H16      1.0000 0.99600  0.30950  0.67910  Biso   1.000  H
  C9       1.0000 0.83520  0.66250  0.37290  Biso   1.000  C
  C10      1.0000 0.16480  0.33750  0.62710  Biso   1.000  C
  H17      1.0000 0.79440  0.67070  0.31450  Biso   1.000  H
  H18      1.0000 0.20560  0.32930  0.68550  Biso   1.000  H
  H19      1.0000 0.83410  0.72190  0.40900  Biso   1.000  H
  H20      1.0000 0.16590  0.27810  0.59100  Biso   1.000  H
  C11      1.0000 0.76850  0.58460  0.42290  Biso   1.000  C
  C12      1.0000 0.23150  0.41540  0.57710  Biso   1.000  C
  H21      1.0000 0.80770  0.58050  0.48330  Biso   1.000  H
  H22      1.0000 0.19230  0.41950  0.51670  Biso   1.000  H
  C13      1.0000 0.62210  0.69760  0.52910  Biso   1.000  C
  C14      1.0000 0.37790  0.30240  0.47090  Biso   1.000  C
  H23      1.0000 0.68750  0.74410  0.51460  Biso   1.000  H
  H24      1.0000 0.31250  0.25590  0.48540  Biso   1.000  H
  H25      1.0000 0.54660  0.72970  0.53030  Biso   1.000  H
  H26      1.0000 0.45340  0.27030  0.46970  Biso   1.000  H
  C15      1.0000 0.64510  0.66100  0.62150  Biso   1.000  C
  C16      1.0000 0.35490  0.33900  0.37850  Biso   1.000  C
  C17      1.0000 0.55160  0.63360  0.67490  Biso   1.000  C
  C18      1.0000 0.44840  0.36640  0.32510  Biso   1.000  C
  H27      1.0000 0.47230  0.63830  0.65340  Biso   1.000  H
  H28      1.0000 0.52770  0.36170  0.34660  Biso   1.000  H
  C19      1.0000 0.56950  0.59910  0.76000  Biso   1.000  C
  C20      1.0000 0.43050  0.40090  0.24000  Biso   1.000  C
  H29      1.0000 0.50290  0.57980  0.79540  Biso   1.000  H
  H30      1.0000 0.49710  0.42020  0.20460  Biso   1.000  H
  C21      1.0000 0.68400  0.59300  0.79300  Biso   1.000  C
  C22      1.0000 0.31600  0.40700  0.20700  Biso   1.000  C
  C23      1.0000 0.78030  0.62110  0.74040  Biso   1.000  C
  C24      1.0000 0.21970  0.37890  0.25960  Biso   1.000  C
  H31      1.0000 0.85950  0.61700  0.76250  Biso   1.000  H
  H32      1.0000 0.14050  0.38300  0.23750  Biso   1.000  H
  C25      1.0000 0.76130  0.65540  0.65550  Biso   1.000  C
  C26      1.0000 0.23870  0.34460  0.34450  Biso   1.000  C
  H33      1.0000 0.82780  0.67520  0.62010  Biso   1.000  H
  H34      1.0000 0.17220  0.32480  0.37990  Biso   1.000  H
  C27      1.0000 0.70390  0.55490  0.88580  Biso   1.000  C
  C28      1.0000 0.29610  0.44510  0.11420  Biso   1.000  C
  H35      1.0000 0.62620  0.54220  0.91560  Biso   1.000  H
  H36      1.0000 0.37380  0.45780  0.08440  Biso   1.000  H
  H37      1.0000 0.75250  0.60150  0.92380  Biso   1.000  H
  H38      1.0000 0.24750  0.39850  0.07620  Biso   1.000  H
  C29      1.0000 0.81440  0.42370  0.99120  Biso   1.000  C
  C30      1.0000 0.18560  0.57630  0.00880  Biso   1.000  C
  H39      1.0000 0.84230  0.48410  0.02300  Biso   1.000  H
  H40      1.0000 0.15770  0.51590  0.97700  Biso   1.000  H
  C31      1.0000 0.70620  0.38210  0.04070  Biso   1.000  C
  C32      1.0000 0.29380  0.61790  0.95930  Biso   1.000  C
  H41      1.0000 0.67290  0.32520  0.00700  Biso   1.000  H
  H42      1.0000 0.32710  0.67480  0.99300  Biso   1.000  H
  H43      1.0000 0.64370  0.42770  0.04360  Biso   1.000  H
  H44      1.0000 0.35630  0.57230  0.95640  Biso   1.000  H
  C33      1.0000 0.74090  0.35720  0.13610  Biso   1.000  C
  C34      1.0000 0.25910  0.64280  0.86390  Biso   1.000  C
  H45      1.0000 0.76740  0.41500  0.17140  Biso   1.000  H
  H46      1.0000 0.23260  0.58500  0.82860  Biso   1.000  H
  H47      1.0000 0.67030  0.32780  0.16620  Biso   1.000  H
  H48      1.0000 0.32970  0.67220  0.83380  Biso   1.000  H
  C35      1.0000 0.84040  0.29060  0.13440  Biso   1.000  C
  C36      1.0000 0.15960  0.70940  0.86560  Biso   1.000  C
  H49      1.0000 0.81230  0.23110  0.10260  Biso   1.000  H
  H50      1.0000 0.18770  0.76890  0.89740  Biso   1.000  H
  H51      1.0000 0.86290  0.27670  0.19690  Biso   1.000  H
  H52      1.0000 0.13710  0.72330  0.80310  Biso   1.000  H
  C37      1.0000 0.94920  0.33380  0.08630  Biso   1.000  C
  C38      1.0000 0.05080  0.66620  0.91370  Biso   1.000  C
  H53      1.0000 0.01260  0.28900  0.08410  Biso   1.000  H
  H54      1.0000 0.98740  0.71100  0.91590  Biso   1.000  H
  H55      1.0000 0.98080  0.39080  0.12070  Biso   1.000  H
  H56      1.0000 0.01920  0.60920  0.87930  Biso   1.000  H
  C39      1.0000 0.91710  0.35920  0.99020  Biso   1.000  C
  C40      1.0000 0.08290  0.64080  0.00980  Biso   1.000  C
  H57      1.0000 0.98770  0.39070  0.96190  Biso   1.000  H
  H58      1.0000 0.01230  0.60930  0.03810  Biso   1.000  H
  H59      1.0000 0.89370  0.30150  0.95370  Biso   1.000  H
  H60      1.0000 0.10630  0.69850  0.04630  Biso   1.000  H
  C41      1.0000 0.27050  0.87780  0.54710  Biso   1.000  C
  C42      1.0000 0.72950  0.12220  0.45290  Biso   1.000  C
  H61      1.0000 0.34500  0.91800  0.55630  Biso   1.000  H
  H62      1.0000 0.65500  0.08200  0.44370  Biso   1.000  H
  H63      1.0000 0.29160  0.81700  0.52000  Biso   1.000  H
  H64      1.0000 0.70840  0.18300  0.48000  Biso   1.000  H
  C43      1.0000 0.20960  0.86230  0.63880  Biso   1.000  C
  C44      1.0000 0.79040  0.13770  0.36120  Biso   1.000  C
  H65      1.0000 0.26160  0.82700  0.67750  Biso   1.000  H
  H66      1.0000 0.73840  0.17300  0.32250  Biso   1.000  H
  H67      1.0000 0.19890  0.92360  0.66960  Biso   1.000  H
  H68      1.0000 0.80110  0.07640  0.33040  Biso   1.000  H
  C45      1.0000 0.08910  0.80880  0.62660  Biso   1.000  C
  C46      1.0000 0.91090  0.19120  0.37340  Biso   1.000  C
  H69      1.0000 0.10090  0.74500  0.60180  Biso   1.000  H
  H70      1.0000 0.89910  0.25500  0.39820  Biso   1.000  H
  H71      1.0000 0.05080  0.80280  0.68620  Biso   1.000  H
  H72      1.0000 0.94920  0.19720  0.31380  Biso   1.000  H
  C47      1.0000 0.00750  0.85630  0.56420  Biso   1.000  C
  C48      1.0000 0.99250  0.14370  0.43580  Biso   1.000  C
  H73      1.0000 0.98860  0.91750  0.59180  Biso   1.000  H
  H74      1.0000 0.01140  0.08250  0.40820  Biso   1.000  H
  H75      1.0000 0.93170  0.81750  0.55550  Biso   1.000  H
  H76      1.0000 0.06830  0.18250  0.44450  Biso   1.000  H
  C49      1.0000 0.06620  0.87110  0.47280  Biso   1.000  C
  C50      1.0000 0.93380  0.12890  0.52720  Biso   1.000  C
  H77      1.0000 0.07610  0.80970  0.44210  Biso   1.000  H
  H78      1.0000 0.92390  0.19030  0.55790  Biso   1.000  H
  H79      1.0000 0.01360  0.90630  0.43460  Biso   1.000  H
  H80      1.0000 0.98640  0.09370  0.56540  Biso   1.000  H
  C51      1.0000 0.18650  0.92410  0.48320  Biso   1.000  C
  C52      1.0000 0.81350  0.07590  0.51680  Biso   1.000  C
  H81      1.0000 0.17320  0.98780  0.50950  Biso   1.000  H
  H82      1.0000 0.82680  0.01220  0.49050  Biso   1.000  H
  C53      1.0000 0.34350  0.04510  0.38360  Biso   1.000  C
  C54      1.0000 0.65650  0.95490  0.61640  Biso   1.000  C
  H83      1.0000 0.30730  0.09040  0.42540  Biso   1.000  H
  H84      1.0000 0.69270  0.90960  0.57460  Biso   1.000  H
  H85      1.0000 0.42200  0.03080  0.40880  Biso   1.000  H
  H86      1.0000 0.57800  0.96920  0.59120  Biso   1.000  H
  C55      1.0000 0.35930  0.08600  0.29130  Biso   1.000  C
  C56      1.0000 0.64070  0.91400  0.70870  Biso   1.000  C
  C57      1.0000 0.26400  0.12390  0.24930  Biso   1.000  C
  C58      1.0000 0.73600  0.87610  0.75070  Biso   1.000  C
  H87      1.0000 0.18910  0.12480  0.27860  Biso   1.000  H
  H88      1.0000 0.81090  0.87520  0.72140  Biso   1.000  H
  C59      1.0000 0.27780  0.16040  0.16480  Biso   1.000  C
  C60      1.0000 0.72220  0.83960  0.83520  Biso   1.000  C
  H89      1.0000 0.21220  0.18670  0.13660  Biso   1.000  H
  H90      1.0000 0.78780  0.81330  0.86340  Biso   1.000  H
  C61      1.0000 0.38630  0.15930  0.12080  Biso   1.000  C
  C62      1.0000 0.61370  0.84070  0.87920  Biso   1.000  C
  C63      1.0000 0.48050  0.12180  0.16350  Biso   1.000  C
  C64      1.0000 0.51950  0.87820  0.83650  Biso   1.000  C
  H91      1.0000 0.55560  0.12070  0.13440  Biso   1.000  H
  H92      1.0000 0.44440  0.87930  0.86560  Biso   1.000  H
  C65      1.0000 0.46700  0.08580  0.24820  Biso   1.000  C
  C66      1.0000 0.53300  0.91420  0.75180  Biso   1.000  C
  H93      1.0000 0.53310  0.06070  0.27700  Biso   1.000  H
  H94      1.0000 0.46690  0.93930  0.72300  Biso   1.000  H
  C67      1.0000 0.40180  0.19820  0.02780  Biso   1.000  C
  C68      1.0000 0.59820  0.80180  0.97220  Biso   1.000  C
  H95      1.0000 0.48210  0.23090  0.02430  Biso   1.000  H
  H96      1.0000 0.51790  0.76910  0.97570  Biso   1.000  H
  H97      1.0000 0.34190  0.24480  0.01890  Biso   1.000  H
  H98      1.0000 0.65810  0.75520  0.98110  Biso   1.000  H
  C69      1.0000 0.22350  0.08720  0.92840  Biso   1.000  C
  C70      1.0000 0.77650  0.91280  0.07160  Biso   1.000  C
  H99      1.0000 0.19080  0.08160  0.99060  Biso   1.000  H
  H100     1.0000 0.80920  0.91840  0.00940  Biso   1.000  H
  C71      1.0000 0.16320  0.16540  0.88270  Biso   1.000  C
  C72      1.0000 0.83680  0.83460  0.11730  Biso   1.000  C
  H101     1.0000 0.20180  0.17710  0.82400  Biso   1.000  H
  H102     1.0000 0.79820  0.82290  0.17600  Biso   1.000  H
  H103     1.0000 0.17410  0.22360  0.92090  Biso   1.000  H
  H104     1.0000 0.82590  0.77640  0.07910  Biso   1.000  H
  C73      1.0000 0.02920  0.14080  0.86700  Biso   1.000  C
  C74      1.0000 0.97080  0.85920  0.13300  Biso   1.000  C
  H105     1.0000 0.99450  0.19040  0.83250  Biso   1.000  H
  H106     1.0000 0.00550  0.80960  0.16750  Biso   1.000  H
  H107     1.0000 0.98850  0.13780  0.92590  Biso   1.000  H
  H108     1.0000 0.01150  0.86220  0.07410  Biso   1.000  H
  C75      1.0000 0.00820  0.04640  0.81470  Biso   1.000  C
  C76      1.0000 0.99180  0.95360  0.18530  Biso   1.000  C
  H109     1.0000 0.92130  0.02970  0.80930  Biso   1.000  H
  H110     1.0000 0.07870  0.97030  0.19070  Biso   1.000  H
  H111     1.0000 0.04070  0.05160  0.75310  Biso   1.000  H
  H112     1.0000 0.95930  0.94840  0.24690  Biso   1.000  H
  C77      1.0000 0.06780  0.97070  0.86250  Biso   1.000  C
  C78      1.0000 0.93220  0.02930  0.13750  Biso   1.000  C
  H113     1.0000 0.02950  0.96170  0.92170  Biso   1.000  H
  H114     1.0000 0.97050  0.03830  0.07830  Biso   1.000  H
  H115     1.0000 0.05560  0.91130  0.82650  Biso   1.000  H
  H116     1.0000 0.94440  0.08870  0.17350  Biso   1.000  H
  C79      1.0000 0.19970  0.99310  0.87710  Biso   1.000  C
  C80      1.0000 0.80030  0.00690  0.12290  Biso   1.000  C
  H117     1.0000 0.23990  0.99500  0.81800  Biso   1.000  H
  H118     1.0000 0.76010  0.00500  0.18200  Biso   1.000  H
  H119     1.0000 0.23340  0.94320  0.91180  Biso   1.000  H
  H120     1.0000 0.76660  0.05680  0.08820  Biso   1.000  H
