data_image0
_cell_length_a       11.0034
_cell_length_b       18.8661
_cell_length_c       15.7613
_cell_angle_alpha    90
_cell_angle_beta     102.728
_cell_angle_gamma    90

_symmetry_space_group_name_H-M    "P 1"
_symmetry_int_tables_number       1

loop_
  _symmetry_equiv_pos_as_xyz
  'x, y, z'

loop_
  _atom_site_label
  _atom_site_occupancy
  _atom_site_fract_x
  _atom_site_fract_y
  _atom_site_fract_z
  _atom_site_thermal_displace_type
  _atom_site_B_iso_or_equiv
  _atom_site_type_symbol
  Cu1      1.0000 0.66687  0.93953  0.76799  Biso   1.000  Cu
  Cu2      1.0000 0.83313  0.43953  0.73201  Biso   1.000  Cu
  Cu3      1.0000 0.33313  0.06047  0.23201  Biso   1.000  Cu
  Cu4      1.0000 0.16687  0.56047  0.26799  Biso   1.000  Cu
  P1       1.0000 0.76091  0.04077  0.76585  Biso   1.000  P
  P2       1.0000 0.73909  0.54077  0.73415  Biso   1.000  P
  P3       1.0000 0.23909  0.95923  0.23415  Biso   1.000  P
  P4       1.0000 0.26091  0.45923  0.26585  Biso   1.000  P
  N1       1.0000 0.67900  0.09146  0.59840  Biso   1.000  N
  N2       1.0000 0.82100  0.59146  0.90160  Biso   1.000  N
  N3       1.0000 0.32100  0.90854  0.40160  Biso   1.000  N
  N4       1.0000 0.17900  0.40854  0.09840  Biso   1.000  N
  H1       1.0000 0.73190  0.10980  0.57200  Biso   1.000  H
  H2       1.0000 0.76810  0.60980  0.92800  Biso   1.000  H
  H3       1.0000 0.26810  0.89020  0.42800  Biso   1.000  H
  H4       1.0000 0.23190  0.39020  0.07200  Biso   1.000  H
  N5       1.0000 0.58270  0.87141  0.67480  Biso   1.000  N
  N6       1.0000 0.91730  0.37141  0.82520  Biso   1.000  N
  N7       1.0000 0.41730  0.12859  0.32520  Biso   1.000  N
  N8       1.0000 0.08270  0.62859  0.17480  Biso   1.000  N
  N9       1.0000 0.26590  0.62932  0.35880  Biso   1.000  N
  N10      1.0000 0.23410  0.12932  0.14120  Biso   1.000  N
  N11      1.0000 0.73410  0.37068  0.64120  Biso   1.000  N
  N12      1.0000 0.76590  0.87068  0.85880  Biso   1.000  N
  N13      1.0000 0.51750  0.96390  0.82700  Biso   1.000  N
  N14      1.0000 0.98250  0.46390  0.67300  Biso   1.000  N
  N15      1.0000 0.48250  0.03610  0.17300  Biso   1.000  N
  N16      1.0000 0.01750  0.53610  0.32700  Biso   1.000  N
  C1       1.0000 0.60950  0.01530  0.47520  Biso   1.000  C
  C2       1.0000 0.89050  0.51530  0.02480  Biso   1.000  C
  C3       1.0000 0.39050  0.98470  0.52480  Biso   1.000  C
  C4       1.0000 0.10950  0.48470  0.97520  Biso   1.000  C
  H5       1.0000 0.68270  0.02540  0.45730  Biso   1.000  H
  H6       1.0000 0.81730  0.52540  0.04270  Biso   1.000  H
  H7       1.0000 0.31730  0.97460  0.54270  Biso   1.000  H
  H8       1.0000 0.18270  0.47460  0.95730  Biso   1.000  H
  C5       1.0000 0.47760  0.02850  0.57480  Biso   1.000  C
  C6       1.0000 0.02240  0.52850  0.92520  Biso   1.000  C
  C7       1.0000 0.52240  0.97150  0.42520  Biso   1.000  C
  C8       1.0000 0.97760  0.47150  0.07480  Biso   1.000  C
  H9       1.0000 0.46080  0.04790  0.62530  Biso   1.000  H
  H10      1.0000 0.03920  0.54790  0.87470  Biso   1.000  H
  H11      1.0000 0.53920  0.95210  0.37470  Biso   1.000  H
  H12      1.0000 0.96080  0.45210  0.12530  Biso   1.000  H
  C9       1.0000 0.59020  0.04500  0.55250  Biso   1.000  C
  C10      1.0000 0.90980  0.54500  0.94750  Biso   1.000  C
  C11      1.0000 0.40980  0.95500  0.44750  Biso   1.000  C
  C12      1.0000 0.09020  0.45500  0.05250  Biso   1.000  C
  C13      1.0000 0.68690  0.11040  0.68810  Biso   1.000  C
  C14      1.0000 0.81310  0.61040  0.81190  Biso   1.000  C
  C15      1.0000 0.31310  0.88960  0.31190  Biso   1.000  C
  C16      1.0000 0.18690  0.38960  0.18810  Biso   1.000  C
  H13      1.0000 0.60360  0.11950  0.69660  Biso   1.000  H
  H14      1.0000 0.89640  0.61950  0.80340  Biso   1.000  H
  H15      1.0000 0.39640  0.88050  0.30340  Biso   1.000  H
  H16      1.0000 0.10360  0.38050  0.19660  Biso   1.000  H
  H17      1.0000 0.73440  0.15390  0.70070  Biso   1.000  H
  H18      1.0000 0.76560  0.65390  0.79930  Biso   1.000  H
  H19      1.0000 0.26560  0.84610  0.29930  Biso   1.000  H
  H20      1.0000 0.23440  0.34610  0.20070  Biso   1.000  H
  C17      1.0000 0.91880  0.03960  0.74940  Biso   1.000  C
  C18      1.0000 0.58120  0.53960  0.75060  Biso   1.000  C
  C19      1.0000 0.08120  0.96040  0.25060  Biso   1.000  C
  C20      1.0000 0.41880  0.46040  0.24940  Biso   1.000  C
  C21      1.0000 0.99280  0.09960  0.75830  Biso   1.000  C
  C22      1.0000 0.50720  0.59960  0.74170  Biso   1.000  C
  C23      1.0000 0.00720  0.90040  0.24170  Biso   1.000  C
  C24      1.0000 0.49280  0.40040  0.25830  Biso   1.000  C
  H21      1.0000 0.96400  0.14150  0.77810  Biso   1.000  H
  H22      1.0000 0.53600  0.64150  0.72190  Biso   1.000  H
  H23      1.0000 0.03600  0.85850  0.22190  Biso   1.000  H
  H24      1.0000 0.46400  0.35850  0.27810  Biso   1.000  H
  C25      1.0000 0.10910  0.09820  0.73830  Biso   1.000  C
  C26      1.0000 0.39090  0.59820  0.76170  Biso   1.000  C
  C27      1.0000 0.89090  0.90180  0.26170  Biso   1.000  C
  C28      1.0000 0.60910  0.40180  0.23830  Biso   1.000  C
  H25      1.0000 0.15760  0.13910  0.74450  Biso   1.000  H
  H26      1.0000 0.34240  0.63910  0.75550  Biso   1.000  H
  H27      1.0000 0.84240  0.86090  0.25550  Biso   1.000  H
  H28      1.0000 0.65760  0.36090  0.24450  Biso   1.000  H
  C29      1.0000 0.15360  0.03620  0.70910  Biso   1.000  C
  C30      1.0000 0.34640  0.53620  0.79090  Biso   1.000  C
  C31      1.0000 0.84640  0.96380  0.29090  Biso   1.000  C
  C32      1.0000 0.65360  0.46380  0.20910  Biso   1.000  C
  H29      1.0000 0.23160  0.03560  0.69530  Biso   1.000  H
  H30      1.0000 0.26840  0.53560  0.80470  Biso   1.000  H
  H31      1.0000 0.76840  0.96440  0.30470  Biso   1.000  H
  H32      1.0000 0.73160  0.46440  0.19530  Biso   1.000  H
  C33      1.0000 0.08230  0.97520  0.70040  Biso   1.000  C
  C34      1.0000 0.41770  0.47520  0.79960  Biso   1.000  C
  C35      1.0000 0.91770  0.02480  0.29960  Biso   1.000  C
  C36      1.0000 0.58230  0.52480  0.20040  Biso   1.000  C
  H33      1.0000 0.11200  0.93350  0.68080  Biso   1.000  H
  H34      1.0000 0.38800  0.43350  0.81920  Biso   1.000  H
  H35      1.0000 0.88800  0.06650  0.31920  Biso   1.000  H
  H36      1.0000 0.61200  0.56650  0.18080  Biso   1.000  H
  C37      1.0000 0.96570  0.97660  0.72110  Biso   1.000  C
  C38      1.0000 0.53430  0.47660  0.77890  Biso   1.000  C
  C39      1.0000 0.03430  0.02340  0.27890  Biso   1.000  C
  C40      1.0000 0.46570  0.52340  0.22110  Biso   1.000  C
  H37      1.0000 0.91820  0.93540  0.71620  Biso   1.000  H
  H38      1.0000 0.58180  0.43540  0.78380  Biso   1.000  H
  H39      1.0000 0.08180  0.06460  0.28380  Biso   1.000  H
  H40      1.0000 0.41820  0.56460  0.21620  Biso   1.000  H
  C41      1.0000 0.77550  0.08330  0.87120  Biso   1.000  C
  C42      1.0000 0.72450  0.58330  0.62880  Biso   1.000  C
  C43      1.0000 0.22450  0.91670  0.12880  Biso   1.000  C
  C44      1.0000 0.27550  0.41670  0.37120  Biso   1.000  C
  C45      1.0000 0.87080  0.06690  0.94230  Biso   1.000  C
  C46      1.0000 0.62920  0.56690  0.55770  Biso   1.000  C
  C47      1.0000 0.12920  0.93310  0.05770  Biso   1.000  C
  C48      1.0000 0.37080  0.43310  0.44230  Biso   1.000  C
  H41      1.0000 0.93460  0.03720  0.93390  Biso   1.000  H
  H42      1.0000 0.56540  0.53720  0.56610  Biso   1.000  H
  H43      1.0000 0.06540  0.96280  0.06610  Biso   1.000  H
  H44      1.0000 0.43460  0.46280  0.43390  Biso   1.000  H
  C49      1.0000 0.87490  0.09250  0.02380  Biso   1.000  C
  C50      1.0000 0.62510  0.59250  0.47620  Biso   1.000  C
  C51      1.0000 0.12510  0.90750  0.97620  Biso   1.000  C
  C52      1.0000 0.37490  0.40750  0.52380  Biso   1.000  C
  H45      1.0000 0.94010  0.07990  0.06970  Biso   1.000  H
  H46      1.0000 0.55990  0.57990  0.43030  Biso   1.000  H
  H47      1.0000 0.05990  0.92010  0.93030  Biso   1.000  H
  H48      1.0000 0.44010  0.42010  0.56970  Biso   1.000  H
  C53      1.0000 0.78300  0.13670  0.03800  Biso   1.000  C
  C54      1.0000 0.71700  0.63670  0.46200  Biso   1.000  C
  C55      1.0000 0.21700  0.86330  0.96200  Biso   1.000  C
  C56      1.0000 0.28300  0.36330  0.53800  Biso   1.000  C
  H49      1.0000 0.78590  0.15450  0.09350  Biso   1.000  H
  H50      1.0000 0.71410  0.65450  0.40650  Biso   1.000  H
  H51      1.0000 0.21410  0.84550  0.90650  Biso   1.000  H
  H52      1.0000 0.28590  0.34550  0.59350  Biso   1.000  H
  C57      1.0000 0.68800  0.15460  0.97130  Biso   1.000  C
  C58      1.0000 0.81200  0.65460  0.52870  Biso   1.000  C
  C59      1.0000 0.31200  0.84540  0.02870  Biso   1.000  C
  C60      1.0000 0.18800  0.34540  0.47130  Biso   1.000  C
  H53      1.0000 0.62530  0.18450  0.98110  Biso   1.000  H
  H54      1.0000 0.87470  0.68450  0.51890  Biso   1.000  H
  H55      1.0000 0.37470  0.81550  0.01890  Biso   1.000  H
  H56      1.0000 0.12530  0.31550  0.48110  Biso   1.000  H
  C61      1.0000 0.68360  0.12850  0.88820  Biso   1.000  C
  C62      1.0000 0.81640  0.62850  0.61180  Biso   1.000  C
  C63      1.0000 0.31640  0.87150  0.11180  Biso   1.000  C
  C64      1.0000 0.18360  0.37150  0.38820  Biso   1.000  C
  H57      1.0000 0.61780  0.14140  0.84300  Biso   1.000  H
  H58      1.0000 0.88220  0.64140  0.65700  Biso   1.000  H
  H59      1.0000 0.38220  0.85860  0.15700  Biso   1.000  H
  H60      1.0000 0.11780  0.35860  0.34300  Biso   1.000  H
  C65      1.0000 0.47880  0.83800  0.68280  Biso   1.000  C
  C66      1.0000 0.02120  0.33800  0.81720  Biso   1.000  C
  C67      1.0000 0.52120  0.16200  0.31720  Biso   1.000  C
  C68      1.0000 0.97880  0.66200  0.18280  Biso   1.000  C
  H61      1.0000 0.44640  0.84720  0.73150  Biso   1.000  H
  H62      1.0000 0.05360  0.34720  0.76850  Biso   1.000  H
  H63      1.0000 0.55360  0.15280  0.26850  Biso   1.000  H
  H64      1.0000 0.94640  0.65280  0.23150  Biso   1.000  H
  C69      1.0000 0.41790  0.79070  0.62190  Biso   1.000  C
  C70      1.0000 0.08210  0.29070  0.87810  Biso   1.000  C
  C71      1.0000 0.58210  0.20930  0.37810  Biso   1.000  C
  C72      1.0000 0.91790  0.70930  0.12190  Biso   1.000  C
  H65      1.0000 0.34450  0.76970  0.62920  Biso   1.000  H
  H66      1.0000 0.15550  0.26970  0.87080  Biso   1.000  H
  H67      1.0000 0.65550  0.23030  0.37080  Biso   1.000  H
  H68      1.0000 0.84450  0.73030  0.12920  Biso   1.000  H
  C73      1.0000 0.46390  0.77400  0.55030  Biso   1.000  C
  C74      1.0000 0.03610  0.27400  0.94970  Biso   1.000  C
  C75      1.0000 0.53610  0.22600  0.44970  Biso   1.000  C
  C76      1.0000 0.96390  0.72600  0.05030  Biso   1.000  C
  C77      1.0000 0.57270  0.80840  0.54140  Biso   1.000  C
  C78      1.0000 0.92730  0.30840  0.95860  Biso   1.000  C
  C79      1.0000 0.42730  0.19160  0.45860  Biso   1.000  C
  C80      1.0000 0.07270  0.69160  0.04140  Biso   1.000  C
  H69      1.0000 0.60790  0.79920  0.49400  Biso   1.000  H
  H70      1.0000 0.89210  0.29920  0.00600  Biso   1.000  H
  H71      1.0000 0.39210  0.20080  0.50600  Biso   1.000  H
  H72      1.0000 0.10790  0.70080  0.99400  Biso   1.000  H
  C81      1.0000 0.62640  0.85620  0.60450  Biso   1.000  C
  C82      1.0000 0.87360  0.35620  0.89550  Biso   1.000  C
  C83      1.0000 0.37360  0.14380  0.39550  Biso   1.000  C
  C84      1.0000 0.12640  0.64380  0.10450  Biso   1.000  C
  H73      1.0000 0.69810  0.87950  0.59770  Biso   1.000  H
  H74      1.0000 0.80190  0.37950  0.90230  Biso   1.000  H
  H75      1.0000 0.30190  0.12050  0.40230  Biso   1.000  H
  H76      1.0000 0.19810  0.62050  0.09770  Biso   1.000  H
  C85      1.0000 0.39740  0.72369  0.48340  Biso   1.000  C
  C86      1.0000 0.10260  0.22369  0.01660  Biso   1.000  C
  C87      1.0000 0.60260  0.27631  0.51660  Biso   1.000  C
  C88      1.0000 0.89740  0.77631  0.98340  Biso   1.000  C
  C89      1.0000 0.40450  0.72850  0.39780  Biso   1.000  C
  C90      1.0000 0.09550  0.22850  0.10220  Biso   1.000  C
  C91      1.0000 0.59550  0.27150  0.60220  Biso   1.000  C
  C92      1.0000 0.90450  0.77150  0.89780  Biso   1.000  C
  H77      1.0000 0.45410  0.76300  0.38020  Biso   1.000  H
  H78      1.0000 0.04590  0.26300  0.11980  Biso   1.000  H
  H79      1.0000 0.54590  0.23700  0.61980  Biso   1.000  H
  H80      1.0000 0.95410  0.73700  0.88020  Biso   1.000  H
  C93      1.0000 0.33690  0.68150  0.33740  Biso   1.000  C
  C94      1.0000 0.16310  0.18150  0.16260  Biso   1.000  C
  C95      1.0000 0.66310  0.31850  0.66260  Biso   1.000  C
  C96      1.0000 0.83690  0.81850  0.83740  Biso   1.000  C
  H81      1.0000 0.34090  0.68630  0.27940  Biso   1.000  H
  H82      1.0000 0.15910  0.18630  0.22060  Biso   1.000  H
  H83      1.0000 0.65910  0.31370  0.72060  Biso   1.000  H
  H84      1.0000 0.84090  0.81370  0.77940  Biso   1.000  H
  C97      1.0000 0.26620  0.62360  0.44250  Biso   1.000  C
  C98      1.0000 0.23380  0.12360  0.05750  Biso   1.000  C
  C99      1.0000 0.73380  0.37640  0.55750  Biso   1.000  C
  C100     1.0000 0.76620  0.87640  0.94250  Biso   1.000  C
  H85      1.0000 0.22190  0.58620  0.45940  Biso   1.000  H
  H86      1.0000 0.27810  0.08620  0.04060  Biso   1.000  H
  H87      1.0000 0.77810  0.41380  0.54060  Biso   1.000  H
  H88      1.0000 0.72190  0.91380  0.95940  Biso   1.000  H
  C101     1.0000 0.32690  0.66880  0.50670  Biso   1.000  C
  C102     1.0000 0.17310  0.16880  0.99330  Biso   1.000  C
  C103     1.0000 0.67310  0.33120  0.49330  Biso   1.000  C
  C104     1.0000 0.82690  0.83120  0.00670  Biso   1.000  C
  H89      1.0000 0.32090  0.66270  0.56420  Biso   1.000  H
  H90      1.0000 0.17910  0.16270  0.93580  Biso   1.000  H
  H91      1.0000 0.67910  0.33730  0.43580  Biso   1.000  H
  H92      1.0000 0.82090  0.83730  0.06420  Biso   1.000  H
  C105     1.0000 0.45280  0.99400  0.86260  Biso   1.000  C
  C106     1.0000 0.04720  0.49400  0.63740  Biso   1.000  C
  C107     1.0000 0.54720  0.00600  0.13740  Biso   1.000  C
  C108     1.0000 0.95280  0.50600  0.36260  Biso   1.000  C
  C109     1.0000 0.37190  0.03190  0.90590  Biso   1.000  C
  C110     1.0000 0.12810  0.53190  0.59410  Biso   1.000  C
  C111     1.0000 0.62810  0.96810  0.09410  Biso   1.000  C
  C112     1.0000 0.87190  0.46810  0.40590  Biso   1.000  C
  H93      1.0000 0.30580  0.00130  0.91410  Biso   1.000  H
  H94      1.0000 0.19420  0.50130  0.58590  Biso   1.000  H
  H95      1.0000 0.69420  0.99870  0.08590  Biso   1.000  H
  H96      1.0000 0.80580  0.49870  0.41410  Biso   1.000  H
  H97      1.0000 0.33720  0.07190  0.87120  Biso   1.000  H
  H98      1.0000 0.16280  0.57190  0.62880  Biso   1.000  H
  H99      1.0000 0.66280  0.92810  0.12880  Biso   1.000  H
  H100     1.0000 0.83720  0.42810  0.37120  Biso   1.000  H
  H101     1.0000 0.41810  0.04810  0.96140  Biso   1.000  H
  H102     1.0000 0.08190  0.54810  0.53860  Biso   1.000  H
  H103     1.0000 0.58190  0.95190  0.03860  Biso   1.000  H
  H104     1.0000 0.91810  0.45190  0.46140  Biso   1.000  H
  O1       1.0000 0.90490  0.09650  0.52280  Biso   1.000  O
  O2       1.0000 0.59510  0.59650  0.97720  Biso   1.000  O
  O3       1.0000 0.09510  0.90350  0.47720  Biso   1.000  O
  O4       1.0000 0.40490  0.40350  0.02280  Biso   1.000  O
  C113     1.0000 0.95720  0.21500  0.56560  Biso   1.000  C
  C114     1.0000 0.54280  0.71500  0.93440  Biso   1.000  C
  C115     1.0000 0.04280  0.78500  0.43440  Biso   1.000  C
  C116     1.0000 0.45720  0.28500  0.06560  Biso   1.000  C
  H105     1.0000 0.87720  0.21500  0.58050  Biso   1.000  H
  H106     1.0000 0.62280  0.71500  0.91950  Biso   1.000  H
  H107     1.0000 0.12280  0.78500  0.41950  Biso   1.000  H
  H108     1.0000 0.37720  0.28500  0.08050  Biso   1.000  H
  H109     1.0000 0.95900  0.25110  0.52300  Biso   1.000  H
  H110     1.0000 0.54100  0.75110  0.97700  Biso   1.000  H
  H111     1.0000 0.04100  0.74890  0.47700  Biso   1.000  H
  H112     1.0000 0.45900  0.24890  0.02300  Biso   1.000  H
  H113     1.0000 0.02090  0.22440  0.61670  Biso   1.000  H
  H114     1.0000 0.47910  0.72440  0.88330  Biso   1.000  H
  H115     1.0000 0.97910  0.77560  0.38330  Biso   1.000  H
  H116     1.0000 0.52090  0.27560  0.11670  Biso   1.000  H
  C117     1.0000 0.98000  0.14430  0.52910  Biso   1.000  C
  C118     1.0000 0.52000  0.64430  0.97090  Biso   1.000  C
  C119     1.0000 0.02000  0.85570  0.47090  Biso   1.000  C
  C120     1.0000 0.48000  0.35570  0.02910  Biso   1.000  C
  C121     1.0000 0.10050  0.13420  0.50110  Biso   1.000  C
  C122     1.0000 0.39950  0.63420  0.99890  Biso   1.000  C
  C123     1.0000 0.89950  0.86580  0.49890  Biso   1.000  C
  C124     1.0000 0.60050  0.36580  0.00110  Biso   1.000  C
  H117     1.0000 0.10380  0.08710  0.47860  Biso   1.000  H
  H118     1.0000 0.39620  0.58710  0.02140  Biso   1.000  H
  H119     1.0000 0.89620  0.91290  0.52140  Biso   1.000  H
  H120     1.0000 0.60380  0.41290  0.97860  Biso   1.000  H
  H121     1.0000 0.16890  0.14090  0.55010  Biso   1.000  H
  H122     1.0000 0.33110  0.64090  0.94990  Biso   1.000  H
  H123     1.0000 0.83110  0.85910  0.44990  Biso   1.000  H
  H124     1.0000 0.66890  0.35910  0.05010  Biso   1.000  H
  H125     1.0000 0.10620  0.16810  0.45670  Biso   1.000  H
  H126     1.0000 0.39380  0.66810  0.04330  Biso   1.000  H
  H127     1.0000 0.89380  0.83190  0.54330  Biso   1.000  H
  H128     1.0000 0.60620  0.33190  0.95670  Biso   1.000  H
  Cl1      1.0000 0.88038  0.26385  0.27466  Biso   1.000  Cl
  Cl2      1.0000 0.61962  0.76385  0.22534  Biso   1.000  Cl
  Cl3      1.0000 0.11962  0.73615  0.72534  Biso   1.000  Cl
  Cl4      1.0000 0.38038  0.23615  0.77466  Biso   1.000  Cl
  O5       1.0000 0.98620  0.21930  0.29090  Biso   1.000  O
  O6       1.0000 0.51380  0.71930  0.20910  Biso   1.000  O
  O7       1.0000 0.01380  0.78070  0.70910  Biso   1.000  O
  O8       1.0000 0.48620  0.28070  0.79090  Biso   1.000  O
  O9       1.0000 0.89940  0.31940  0.21740  Biso   1.000  O
  O10      1.0000 0.60060  0.81940  0.28260  Biso   1.000  O
  O11      1.0000 0.10060  0.68060  0.78260  Biso   1.000  O
  O12      1.0000 0.39940  0.18060  0.71740  Biso   1.000  O
  O13      1.0000 0.77140  0.22600  0.23600  Biso   1.000  O
  O14      1.0000 0.72860  0.72600  0.26400  Biso   1.000  O
  O15      1.0000 0.22860  0.77400  0.76400  Biso   1.000  O
  O16      1.0000 0.27140  0.27400  0.73600  Biso   1.000  O
  O17      1.0000 0.86380  0.29344  0.35480  Biso   1.000  O
  O18      1.0000 0.63620  0.79344  0.14520  Biso   1.000  O
  O19      1.0000 0.13620  0.70656  0.64520  Biso   1.000  O
  O20      1.0000 0.36380  0.20656  0.85480  Biso   1.000  O
