data_image0
_cell_length_a       14.2741
_cell_length_b       16.3621
_cell_length_c       19.4747
_cell_angle_alpha    90
_cell_angle_beta     94.458
_cell_angle_gamma    90

_symmetry_space_group_name_H-M    "P 1"
_symmetry_int_tables_number       1

loop_
  _symmetry_equiv_pos_as_xyz
  'x, y, z'

loop_
  _atom_site_label
  _atom_site_occupancy
  _atom_site_fract_x
  _atom_site_fract_y
  _atom_site_fract_z
  _atom_site_thermal_displace_type
  _atom_site_B_iso_or_equiv
  _atom_site_type_symbol
  Cu1      1.0000 0.68802  0.58195  0.30972  Biso   1.000  Cu
  Cu2      1.0000 0.31198  0.08195  0.19028  Biso   1.000  Cu
  Cu3      1.0000 0.31198  0.41805  0.69028  Biso   1.000  Cu
  Cu4      1.0000 0.68802  0.91805  0.80972  Biso   1.000  Cu
  P1       1.0000 0.81986  0.61443  0.25690  Biso   1.000  P
  P2       1.0000 0.18014  0.11443  0.24310  Biso   1.000  P
  P3       1.0000 0.18014  0.38557  0.74310  Biso   1.000  P
  P4       1.0000 0.81986  0.88557  0.75690  Biso   1.000  P
  P5       1.0000 0.55615  0.64696  0.27192  Biso   1.000  P
  P6       1.0000 0.44385  0.14696  0.22808  Biso   1.000  P
  P7       1.0000 0.44385  0.35304  0.72808  Biso   1.000  P
  P8       1.0000 0.55615  0.85304  0.77192  Biso   1.000  P
  O1       1.0000 0.11280  0.60280  0.16590  Biso   1.000  O
  O2       1.0000 0.88720  0.10280  0.33410  Biso   1.000  O
  O3       1.0000 0.88720  0.39720  0.83410  Biso   1.000  O
  O4       1.0000 0.11280  0.89720  0.66590  Biso   1.000  O
  N1       1.0000 0.94570  0.56440  0.35540  Biso   1.000  N
  N2       1.0000 0.05430  0.06440  0.14460  Biso   1.000  N
  N3       1.0000 0.05430  0.43560  0.64460  Biso   1.000  N
  N4       1.0000 0.94570  0.93560  0.85540  Biso   1.000  N
  N5       1.0000 0.44970  0.61870  0.38190  Biso   1.000  N
  N6       1.0000 0.55030  0.11870  0.11810  Biso   1.000  N
  N7       1.0000 0.55030  0.38130  0.61810  Biso   1.000  N
  N8       1.0000 0.44970  0.88130  0.88190  Biso   1.000  N
  N9       1.0000 0.70920  0.45670  0.32400  Biso   1.000  N
  N10      1.0000 0.29080  0.95670  0.17600  Biso   1.000  N
  N11      1.0000 0.29080  0.54330  0.67600  Biso   1.000  N
  N12      1.0000 0.70920  0.04330  0.82400  Biso   1.000  N
  N13      1.0000 0.70970  0.57690  0.41510  Biso   1.000  N
  N14      1.0000 0.29030  0.07690  0.08490  Biso   1.000  N
  N15      1.0000 0.29030  0.42310  0.58490  Biso   1.000  N
  N16      1.0000 0.70970  0.92310  0.91510  Biso   1.000  N
  C1       1.0000 0.96760  0.62910  0.56490  Biso   1.000  C
  C2       1.0000 0.03240  0.12910  0.93510  Biso   1.000  C
  C3       1.0000 0.03240  0.37090  0.43510  Biso   1.000  C
  C4       1.0000 0.96760  0.87090  0.06490  Biso   1.000  C
  H1       1.0000 0.95170  0.68160  0.57820  Biso   1.000  H
  H2       1.0000 0.04830  0.18160  0.92180  Biso   1.000  H
  H3       1.0000 0.04830  0.31840  0.42180  Biso   1.000  H
  H4       1.0000 0.95170  0.81840  0.07820  Biso   1.000  H
  C5       1.0000 0.96340  0.60950  0.49630  Biso   1.000  C
  C6       1.0000 0.03660  0.10950  0.00370  Biso   1.000  C
  C7       1.0000 0.03660  0.39050  0.50370  Biso   1.000  C
  C8       1.0000 0.96340  0.89050  0.99630  Biso   1.000  C
  H5       1.0000 0.94620  0.64930  0.46360  Biso   1.000  H
  H6       1.0000 0.05380  0.14930  0.03640  Biso   1.000  H
  H7       1.0000 0.05380  0.35070  0.53640  Biso   1.000  H
  H8       1.0000 0.94620  0.85070  0.96360  Biso   1.000  H
  C9       1.0000 0.98480  0.53050  0.47460  Biso   1.000  C
  C10      1.0000 0.01520  0.03050  0.02540  Biso   1.000  C
  C11      1.0000 0.01520  0.46950  0.52540  Biso   1.000  C
  C12      1.0000 0.98480  0.96950  0.97460  Biso   1.000  C
  C13      1.0000 0.97960  0.50570  0.40350  Biso   1.000  C
  C14      1.0000 0.02040  0.00570  0.09650  Biso   1.000  C
  C15      1.0000 0.02040  0.49430  0.59650  Biso   1.000  C
  C16      1.0000 0.97960  0.99430  0.90350  Biso   1.000  C
  C17      1.0000 0.00450  0.42920  0.38460  Biso   1.000  C
  C18      1.0000 0.99550  0.92920  0.11540  Biso   1.000  C
  C19      1.0000 0.99550  0.57080  0.61540  Biso   1.000  C
  C20      1.0000 0.00450  0.07080  0.88460  Biso   1.000  C
  H9       1.0000 0.00300  0.41540  0.33820  Biso   1.000  H
  H10      1.0000 0.99700  0.91540  0.16180  Biso   1.000  H
  H11      1.0000 0.99700  0.58460  0.66180  Biso   1.000  H
  H12      1.0000 0.00300  0.08460  0.83820  Biso   1.000  H
  C21      1.0000 0.91970  0.54510  0.28380  Biso   1.000  C
  C22      1.0000 0.08030  0.04510  0.21620  Biso   1.000  C
  C23      1.0000 0.08030  0.45490  0.71620  Biso   1.000  C
  C24      1.0000 0.91970  0.95490  0.78380  Biso   1.000  C
  H13      1.0000 0.90070  0.48840  0.27890  Biso   1.000  H
  H14      1.0000 0.09930  0.98840  0.22110  Biso   1.000  H
  H15      1.0000 0.09930  0.51160  0.72110  Biso   1.000  H
  H16      1.0000 0.90070  0.01160  0.77890  Biso   1.000  H
  H17      1.0000 0.97220  0.55460  0.25590  Biso   1.000  H
  H18      1.0000 0.02780  0.05460  0.24410  Biso   1.000  H
  H19      1.0000 0.02780  0.44540  0.74410  Biso   1.000  H
  H20      1.0000 0.97220  0.94540  0.75590  Biso   1.000  H
  C25      1.0000 0.87610  0.71220  0.27760  Biso   1.000  C
  C26      1.0000 0.12390  0.21220  0.22240  Biso   1.000  C
  C27      1.0000 0.12390  0.28780  0.72240  Biso   1.000  C
  C28      1.0000 0.87610  0.78780  0.77760  Biso   1.000  C
  C29      1.0000 0.84160  0.76030  0.32740  Biso   1.000  C
  C30      1.0000 0.15840  0.26030  0.17260  Biso   1.000  C
  C31      1.0000 0.15840  0.23970  0.67260  Biso   1.000  C
  C32      1.0000 0.84160  0.73970  0.82740  Biso   1.000  C
  H21      1.0000 0.78530  0.74620  0.34550  Biso   1.000  H
  H22      1.0000 0.21470  0.24620  0.15450  Biso   1.000  H
  H23      1.0000 0.21470  0.25380  0.65450  Biso   1.000  H
  H24      1.0000 0.78530  0.75380  0.84550  Biso   1.000  H
  C33      1.0000 0.88960  0.82970  0.35110  Biso   1.000  C
  C34      1.0000 0.11040  0.32970  0.14890  Biso   1.000  C
  C35      1.0000 0.11040  0.17030  0.64890  Biso   1.000  C
  C36      1.0000 0.88960  0.67030  0.85110  Biso   1.000  C
  H25      1.0000 0.86430  0.86260  0.38390  Biso   1.000  H
  H26      1.0000 0.13570  0.36260  0.11610  Biso   1.000  H
  H27      1.0000 0.13570  0.13740  0.61610  Biso   1.000  H
  H28      1.0000 0.86430  0.63740  0.88390  Biso   1.000  H
  C37      1.0000 0.97520  0.85040  0.32620  Biso   1.000  C
  C38      1.0000 0.02480  0.35040  0.17380  Biso   1.000  C
  C39      1.0000 0.02480  0.14960  0.67380  Biso   1.000  C
  C40      1.0000 0.97520  0.64960  0.82620  Biso   1.000  C
  H29      1.0000 0.00850  0.89560  0.34380  Biso   1.000  H
  H30      1.0000 0.99150  0.39560  0.15620  Biso   1.000  H
  H31      1.0000 0.99150  0.10440  0.65620  Biso   1.000  H
  H32      1.0000 0.00850  0.60440  0.84380  Biso   1.000  H
  C41      1.0000 0.01020  0.80370  0.27570  Biso   1.000  C
  C42      1.0000 0.98980  0.30370  0.22430  Biso   1.000  C
  C43      1.0000 0.98980  0.19630  0.72430  Biso   1.000  C
  C44      1.0000 0.01020  0.69630  0.77570  Biso   1.000  C
  H33      1.0000 0.06650  0.81820  0.25790  Biso   1.000  H
  H34      1.0000 0.93350  0.31820  0.24210  Biso   1.000  H
  H35      1.0000 0.93350  0.18180  0.74210  Biso   1.000  H
  H36      1.0000 0.06650  0.68180  0.75790  Biso   1.000  H
  C45      1.0000 0.96120  0.73430  0.25080  Biso   1.000  C
  C46      1.0000 0.03880  0.23430  0.24920  Biso   1.000  C
  C47      1.0000 0.03880  0.26570  0.74920  Biso   1.000  C
  C48      1.0000 0.96120  0.76570  0.75080  Biso   1.000  C
  H37      1.0000 0.98490  0.70280  0.21640  Biso   1.000  H
  H38      1.0000 0.01510  0.20280  0.28360  Biso   1.000  H
  H39      1.0000 0.01510  0.29720  0.78360  Biso   1.000  H
  H40      1.0000 0.98490  0.79720  0.71640  Biso   1.000  H
  C49      1.0000 0.81220  0.60480  0.16380  Biso   1.000  C
  C50      1.0000 0.18780  0.10480  0.33620  Biso   1.000  C
  C51      1.0000 0.18780  0.39520  0.83620  Biso   1.000  C
  C52      1.0000 0.81220  0.89520  0.66380  Biso   1.000  C
  C53      1.0000 0.80720  0.52590  0.13480  Biso   1.000  C
  C54      1.0000 0.19280  0.02590  0.36520  Biso   1.000  C
  C55      1.0000 0.19280  0.47410  0.86520  Biso   1.000  C
  C56      1.0000 0.80720  0.97410  0.63480  Biso   1.000  C
  H41      1.0000 0.81480  0.48030  0.16320  Biso   1.000  H
  H42      1.0000 0.18520  0.98030  0.33680  Biso   1.000  H
  H43      1.0000 0.18520  0.51970  0.83680  Biso   1.000  H
  H44      1.0000 0.81480  0.01970  0.66320  Biso   1.000  H
  C57      1.0000 0.79090  0.51560  0.06420  Biso   1.000  C
  C58      1.0000 0.20910  0.01560  0.43580  Biso   1.000  C
  C59      1.0000 0.20910  0.48440  0.93580  Biso   1.000  C
  C60      1.0000 0.79090  0.98440  0.56420  Biso   1.000  C
  H45      1.0000 0.78970  0.46330  0.04530  Biso   1.000  H
  H46      1.0000 0.21030  0.96330  0.45470  Biso   1.000  H
  H47      1.0000 0.21030  0.53670  0.95470  Biso   1.000  H
  H48      1.0000 0.78970  0.03670  0.54530  Biso   1.000  H
  C61      1.0000 0.77650  0.58250  0.02210  Biso   1.000  C
  C62      1.0000 0.22350  0.08250  0.47790  Biso   1.000  C
  C63      1.0000 0.22350  0.41750  0.97790  Biso   1.000  C
  C64      1.0000 0.77650  0.91750  0.52210  Biso   1.000  C
  H49      1.0000 0.76230  0.57570  0.97500  Biso   1.000  H
  H50      1.0000 0.23770  0.07570  0.52500  Biso   1.000  H
  H51      1.0000 0.23770  0.42430  0.02500  Biso   1.000  H
  H52      1.0000 0.76230  0.92430  0.47500  Biso   1.000  H
  C65      1.0000 0.78330  0.65960  0.05020  Biso   1.000  C
  C66      1.0000 0.21670  0.15960  0.44980  Biso   1.000  C
  C67      1.0000 0.21670  0.34040  0.94980  Biso   1.000  C
  C68      1.0000 0.78330  0.84040  0.55020  Biso   1.000  C
  H53      1.0000 0.77480  0.70470  0.02130  Biso   1.000  H
  H54      1.0000 0.22520  0.20470  0.47870  Biso   1.000  H
  H55      1.0000 0.22520  0.29530  0.97870  Biso   1.000  H
  H56      1.0000 0.77480  0.79530  0.52130  Biso   1.000  H
  C69      1.0000 0.80210  0.67190  0.11920  Biso   1.000  C
  C70      1.0000 0.19790  0.17190  0.38080  Biso   1.000  C
  C71      1.0000 0.19790  0.32810  0.88080  Biso   1.000  C
  C72      1.0000 0.80210  0.82810  0.61920  Biso   1.000  C
  H57      1.0000 0.80810  0.72480  0.13660  Biso   1.000  H
  H58      1.0000 0.19190  0.22480  0.36340  Biso   1.000  H
  H59      1.0000 0.19190  0.27520  0.86340  Biso   1.000  H
  H60      1.0000 0.80810  0.77520  0.63660  Biso   1.000  H
  C73      1.0000 0.53040  0.39330  0.47280  Biso   1.000  C
  C74      1.0000 0.46960  0.89330  0.02720  Biso   1.000  C
  C75      1.0000 0.46960  0.60670  0.52720  Biso   1.000  C
  C76      1.0000 0.53040  0.10670  0.97280  Biso   1.000  C
  H61      1.0000 0.54840  0.34340  0.49250  Biso   1.000  H
  H62      1.0000 0.45160  0.84340  0.00750  Biso   1.000  H
  H63      1.0000 0.45160  0.65660  0.50750  Biso   1.000  H
  H64      1.0000 0.54840  0.15660  0.99250  Biso   1.000  H
  C77      1.0000 0.51930  0.40180  0.40360  Biso   1.000  C
  C78      1.0000 0.48070  0.90180  0.09640  Biso   1.000  C
  C79      1.0000 0.48070  0.59820  0.59640  Biso   1.000  C
  C80      1.0000 0.51930  0.09820  0.90360  Biso   1.000  C
  H65      1.0000 0.52880  0.35660  0.37610  Biso   1.000  H
  H66      1.0000 0.47120  0.85660  0.12390  Biso   1.000  H
  H67      1.0000 0.47120  0.64340  0.62390  Biso   1.000  H
  H68      1.0000 0.52880  0.14340  0.87610  Biso   1.000  H
  C81      1.0000 0.49440  0.47560  0.37190  Biso   1.000  C
  C82      1.0000 0.50560  0.97560  0.12810  Biso   1.000  C
  C83      1.0000 0.50560  0.52440  0.62810  Biso   1.000  C
  C84      1.0000 0.49440  0.02440  0.87190  Biso   1.000  C
  H69      1.0000 0.48970  0.47910  0.32410  Biso   1.000  H
  H70      1.0000 0.51030  0.97910  0.17590  Biso   1.000  H
  H71      1.0000 0.51030  0.52090  0.67590  Biso   1.000  H
  H72      1.0000 0.48970  0.02090  0.82410  Biso   1.000  H
  C85      1.0000 0.47680  0.54330  0.41020  Biso   1.000  C
  C86      1.0000 0.52320  0.04330  0.08980  Biso   1.000  C
  C87      1.0000 0.52320  0.45670  0.58980  Biso   1.000  C
  C88      1.0000 0.47680  0.95670  0.91020  Biso   1.000  C
  C89      1.0000 0.48630  0.53730  0.48500  Biso   1.000  C
  C90      1.0000 0.51370  0.03730  0.01500  Biso   1.000  C
  C91      1.0000 0.51370  0.46270  0.51500  Biso   1.000  C
  C92      1.0000 0.48630  0.96270  0.98500  Biso   1.000  C
  C93      1.0000 0.44060  0.62930  0.30790  Biso   1.000  C
  C94      1.0000 0.55940  0.12930  0.19210  Biso   1.000  C
  C95      1.0000 0.55940  0.37070  0.69210  Biso   1.000  C
  C96      1.0000 0.44060  0.87070  0.80790  Biso   1.000  C
  H73      1.0000 0.39970  0.67540  0.29650  Biso   1.000  H
  H74      1.0000 0.60030  0.17540  0.20350  Biso   1.000  H
  H75      1.0000 0.60030  0.32460  0.70350  Biso   1.000  H
  H76      1.0000 0.39970  0.82460  0.79650  Biso   1.000  H
  H77      1.0000 0.41160  0.58100  0.28670  Biso   1.000  H
  H78      1.0000 0.58840  0.08100  0.21330  Biso   1.000  H
  H79      1.0000 0.58840  0.41900  0.71330  Biso   1.000  H
  H80      1.0000 0.41160  0.91900  0.78670  Biso   1.000  H
  C97      1.0000 0.52070  0.64060  0.18030  Biso   1.000  C
  C98      1.0000 0.47930  0.14060  0.31970  Biso   1.000  C
  C99      1.0000 0.47930  0.35940  0.81970  Biso   1.000  C
  C100     1.0000 0.52070  0.85940  0.68030  Biso   1.000  C
  C101     1.0000 0.44270  0.68670  0.15130  Biso   1.000  C
  C102     1.0000 0.55730  0.18670  0.34870  Biso   1.000  C
  C103     1.0000 0.55730  0.31330  0.84870  Biso   1.000  C
  C104     1.0000 0.44270  0.81330  0.65130  Biso   1.000  C
  H81      1.0000 0.41180  0.72260  0.17880  Biso   1.000  H
  H82      1.0000 0.58820  0.22260  0.32120  Biso   1.000  H
  H83      1.0000 0.58820  0.27740  0.82120  Biso   1.000  H
  H84      1.0000 0.41180  0.77740  0.67880  Biso   1.000  H
  C105     1.0000 0.41320  0.67820  0.08320  Biso   1.000  C
  C106     1.0000 0.58680  0.17820  0.41680  Biso   1.000  C
  C107     1.0000 0.58680  0.32180  0.91680  Biso   1.000  C
  C108     1.0000 0.41320  0.82180  0.58320  Biso   1.000  C
  H85      1.0000 0.36340  0.70960  0.06420  Biso   1.000  H
  H86      1.0000 0.63660  0.20960  0.43580  Biso   1.000  H
  H87      1.0000 0.63660  0.29040  0.93580  Biso   1.000  H
  H88      1.0000 0.36340  0.79040  0.56420  Biso   1.000  H
  C109     1.0000 0.45690  0.62350  0.04300  Biso   1.000  C
  C110     1.0000 0.54310  0.12350  0.45700  Biso   1.000  C
  C111     1.0000 0.54310  0.37650  0.95700  Biso   1.000  C
  C112     1.0000 0.45690  0.87650  0.54300  Biso   1.000  C
  H89      1.0000 0.43550  0.61710  0.99700  Biso   1.000  H
  H90      1.0000 0.56450  0.11710  0.50300  Biso   1.000  H
  H91      1.0000 0.56450  0.38290  0.00300  Biso   1.000  H
  H92      1.0000 0.43550  0.88290  0.49700  Biso   1.000  H
  C113     1.0000 0.53270  0.57760  0.07030  Biso   1.000  C
  C114     1.0000 0.46730  0.07760  0.42970  Biso   1.000  C
  C115     1.0000 0.46730  0.42240  0.92970  Biso   1.000  C
  C116     1.0000 0.53270  0.92240  0.57030  Biso   1.000  C
  H93      1.0000 0.56250  0.54160  0.04210  Biso   1.000  H
  H94      1.0000 0.43750  0.04160  0.45790  Biso   1.000  H
  H95      1.0000 0.43750  0.45840  0.95790  Biso   1.000  H
  H96      1.0000 0.56250  0.95840  0.54210  Biso   1.000  H
  C117     1.0000 0.56420  0.58490  0.13870  Biso   1.000  C
  C118     1.0000 0.43580  0.08490  0.36130  Biso   1.000  C
  C119     1.0000 0.43580  0.41510  0.86130  Biso   1.000  C
  C120     1.0000 0.56420  0.91510  0.63870  Biso   1.000  C
  H97      1.0000 0.61400  0.55300  0.15710  Biso   1.000  H
  H98      1.0000 0.38600  0.05300  0.34290  Biso   1.000  H
  H99      1.0000 0.38600  0.44700  0.84290  Biso   1.000  H
  H100     1.0000 0.61400  0.94700  0.65710  Biso   1.000  H
  C121     1.0000 0.57380  0.75680  0.28700  Biso   1.000  C
  C122     1.0000 0.42620  0.25680  0.21300  Biso   1.000  C
  C123     1.0000 0.42620  0.24320  0.71300  Biso   1.000  C
  C124     1.0000 0.57380  0.74320  0.78700  Biso   1.000  C
  C125     1.0000 0.54510  0.79530  0.34370  Biso   1.000  C
  C126     1.0000 0.45490  0.29530  0.15630  Biso   1.000  C
  C127     1.0000 0.45490  0.20470  0.65630  Biso   1.000  C
  C128     1.0000 0.54510  0.70470  0.84370  Biso   1.000  C
  H101     1.0000 0.50980  0.76680  0.37400  Biso   1.000  H
  H102     1.0000 0.49020  0.26680  0.12600  Biso   1.000  H
  H103     1.0000 0.49020  0.23320  0.62600  Biso   1.000  H
  H104     1.0000 0.50980  0.73320  0.87400  Biso   1.000  H
  C129     1.0000 0.56810  0.87760  0.35710  Biso   1.000  C
  C130     1.0000 0.43190  0.37760  0.14290  Biso   1.000  C
  C131     1.0000 0.43190  0.12240  0.64290  Biso   1.000  C
  C132     1.0000 0.56810  0.62240  0.85710  Biso   1.000  C
  H105     1.0000 0.54850  0.90230  0.39650  Biso   1.000  H
  H106     1.0000 0.45150  0.40230  0.10350  Biso   1.000  H
  H107     1.0000 0.45150  0.09770  0.60350  Biso   1.000  H
  H108     1.0000 0.54850  0.59770  0.89650  Biso   1.000  H
  C133     1.0000 0.61700  0.92080  0.31490  Biso   1.000  C
  C134     1.0000 0.38300  0.42080  0.18510  Biso   1.000  C
  C135     1.0000 0.38300  0.07920  0.68510  Biso   1.000  C
  C136     1.0000 0.61700  0.57920  0.81490  Biso   1.000  C
  H109     1.0000 0.63000  0.97570  0.32370  Biso   1.000  H
  H110     1.0000 0.37000  0.47570  0.17630  Biso   1.000  H
  H111     1.0000 0.37000  0.02430  0.67630  Biso   1.000  H
  H112     1.0000 0.63000  0.52430  0.82370  Biso   1.000  H
  C137     1.0000 0.64860  0.88290  0.25750  Biso   1.000  C
  C138     1.0000 0.35140  0.38290  0.24250  Biso   1.000  C
  C139     1.0000 0.35140  0.11710  0.74250  Biso   1.000  C
  C140     1.0000 0.64860  0.61710  0.75750  Biso   1.000  C
  H113     1.0000 0.68410  0.91220  0.22780  Biso   1.000  H
  H114     1.0000 0.31590  0.41220  0.27220  Biso   1.000  H
  H115     1.0000 0.31590  0.08780  0.77220  Biso   1.000  H
  H116     1.0000 0.68410  0.58780  0.72780  Biso   1.000  H
  C141     1.0000 0.62730  0.80120  0.24410  Biso   1.000  C
  C142     1.0000 0.37270  0.30120  0.25590  Biso   1.000  C
  C143     1.0000 0.37270  0.19880  0.75590  Biso   1.000  C
  C144     1.0000 0.62730  0.69880  0.74410  Biso   1.000  C
  H117     1.0000 0.64940  0.77610  0.20560  Biso   1.000  H
  H118     1.0000 0.35060  0.27610  0.29440  Biso   1.000  H
  H119     1.0000 0.35060  0.22390  0.79440  Biso   1.000  H
  H120     1.0000 0.64940  0.72390  0.70560  Biso   1.000  H
  C145     1.0000 0.69580  0.63550  0.46060  Biso   1.000  C
  C146     1.0000 0.30420  0.13550  0.03940  Biso   1.000  C
  C147     1.0000 0.30420  0.36450  0.53940  Biso   1.000  C
  C148     1.0000 0.69580  0.86450  0.96060  Biso   1.000  C
  H121     1.0000 0.67710  0.68660  0.44380  Biso   1.000  H
  H122     1.0000 0.32290  0.18660  0.05620  Biso   1.000  H
  H123     1.0000 0.32290  0.31340  0.55620  Biso   1.000  H
  H124     1.0000 0.67710  0.81340  0.94380  Biso   1.000  H
  C149     1.0000 0.70740  0.62510  0.53100  Biso   1.000  C
  C150     1.0000 0.29260  0.12510  0.96900  Biso   1.000  C
  C151     1.0000 0.29260  0.37490  0.46900  Biso   1.000  C
  C152     1.0000 0.70740  0.87490  0.03100  Biso   1.000  C
  H125     1.0000 0.69530  0.66750  0.56080  Biso   1.000  H
  H126     1.0000 0.30470  0.16750  0.93920  Biso   1.000  H
  H127     1.0000 0.30470  0.33250  0.43920  Biso   1.000  H
  H128     1.0000 0.69530  0.83250  0.06080  Biso   1.000  H
  C153     1.0000 0.73720  0.55050  0.55580  Biso   1.000  C
  C154     1.0000 0.26280  0.05050  0.94420  Biso   1.000  C
  C155     1.0000 0.26280  0.44950  0.44420  Biso   1.000  C
  C156     1.0000 0.73720  0.94950  0.05580  Biso   1.000  C
  H129     1.0000 0.74870  0.54230  0.60300  Biso   1.000  H
  H130     1.0000 0.25130  0.04230  0.89700  Biso   1.000  H
  H131     1.0000 0.25130  0.45770  0.39700  Biso   1.000  H
  H132     1.0000 0.74870  0.95770  0.10300  Biso   1.000  H
  C157     1.0000 0.75010  0.48810  0.51090  Biso   1.000  C
  C158     1.0000 0.24990  0.98810  0.98910  Biso   1.000  C
  C159     1.0000 0.24990  0.51190  0.48910  Biso   1.000  C
  C160     1.0000 0.75010  0.01190  0.01090  Biso   1.000  C
  H133     1.0000 0.76860  0.43680  0.52740  Biso   1.000  H
  H134     1.0000 0.23140  0.93680  0.97260  Biso   1.000  H
  H135     1.0000 0.23140  0.56320  0.47260  Biso   1.000  H
  H136     1.0000 0.76860  0.06320  0.02740  Biso   1.000  H
  C161     1.0000 0.73530  0.50190  0.44000  Biso   1.000  C
  C162     1.0000 0.26470  0.00190  0.06000  Biso   1.000  C
  C163     1.0000 0.26470  0.49810  0.56000  Biso   1.000  C
  C164     1.0000 0.73530  0.99810  0.94000  Biso   1.000  C
  C165     1.0000 0.74300  0.43650  0.38790  Biso   1.000  C
  C166     1.0000 0.25700  0.93650  0.11210  Biso   1.000  C
  C167     1.0000 0.25700  0.56350  0.61210  Biso   1.000  C
  C168     1.0000 0.74300  0.06350  0.88790  Biso   1.000  C
  C169     1.0000 0.77930  0.36000  0.40380  Biso   1.000  C
  C170     1.0000 0.22070  0.86000  0.09620  Biso   1.000  C
  C171     1.0000 0.22070  0.64000  0.59620  Biso   1.000  C
  C172     1.0000 0.77930  0.14000  0.90380  Biso   1.000  C
  H137     1.0000 0.80310  0.34810  0.44840  Biso   1.000  H
  H138     1.0000 0.19690  0.84810  0.05160  Biso   1.000  H
  H139     1.0000 0.19690  0.65190  0.55160  Biso   1.000  H
  H140     1.0000 0.80310  0.15190  0.94840  Biso   1.000  H
  C173     1.0000 0.78000  0.30190  0.35330  Biso   1.000  C
  C174     1.0000 0.22000  0.80190  0.14670  Biso   1.000  C
  C175     1.0000 0.22000  0.69810  0.64670  Biso   1.000  C
  C176     1.0000 0.78000  0.19810  0.85330  Biso   1.000  C
  H141     1.0000 0.80420  0.25010  0.36330  Biso   1.000  H
  H142     1.0000 0.19580  0.75010  0.13670  Biso   1.000  H
  H143     1.0000 0.19580  0.74990  0.63670  Biso   1.000  H
  H144     1.0000 0.80420  0.24990  0.86330  Biso   1.000  H
  C177     1.0000 0.74420  0.32150  0.28730  Biso   1.000  C
  C178     1.0000 0.25580  0.82150  0.21270  Biso   1.000  C
  C179     1.0000 0.25580  0.67850  0.71270  Biso   1.000  C
  C180     1.0000 0.74420  0.17850  0.78730  Biso   1.000  C
  H145     1.0000 0.74300  0.28290  0.25220  Biso   1.000  H
  H146     1.0000 0.25700  0.78290  0.24780  Biso   1.000  H
  H147     1.0000 0.25700  0.71710  0.74780  Biso   1.000  H
  H148     1.0000 0.74300  0.21710  0.75220  Biso   1.000  H
  C181     1.0000 0.71040  0.39920  0.27460  Biso   1.000  C
  C182     1.0000 0.28960  0.89920  0.22540  Biso   1.000  C
  C183     1.0000 0.28960  0.60080  0.72540  Biso   1.000  C
  C184     1.0000 0.71040  0.10080  0.77460  Biso   1.000  C
  H149     1.0000 0.68740  0.41270  0.23010  Biso   1.000  H
  H150     1.0000 0.31260  0.91270  0.26990  Biso   1.000  H
  H151     1.0000 0.31260  0.58730  0.76990  Biso   1.000  H
  H152     1.0000 0.68740  0.08730  0.73010  Biso   1.000  H
  C185     1.0000 0.03940  0.61760  0.05490  Biso   1.000  C
  C186     1.0000 0.96060  0.11760  0.44510  Biso   1.000  C
  C187     1.0000 0.96060  0.38240  0.94510  Biso   1.000  C
  C188     1.0000 0.03940  0.88240  0.55490  Biso   1.000  C
  H153     1.0000 0.04430  0.60230  0.00780  Biso   1.000  H
  H154     1.0000 0.95570  0.10230  0.49220  Biso   1.000  H
  H155     1.0000 0.95570  0.39770  0.99220  Biso   1.000  H
  H156     1.0000 0.04430  0.89770  0.50780  Biso   1.000  H
  H157     1.0000 0.04230  0.67610  0.05900  Biso   1.000  H
  H158     1.0000 0.95770  0.17610  0.44100  Biso   1.000  H
  H159     1.0000 0.95770  0.32390  0.94100  Biso   1.000  H
  H160     1.0000 0.04230  0.82390  0.55900  Biso   1.000  H
  H161     1.0000 0.98070  0.59840  0.06980  Biso   1.000  H
  H162     1.0000 0.01930  0.09840  0.43020  Biso   1.000  H
  H163     1.0000 0.01930  0.40160  0.93020  Biso   1.000  H
  H164     1.0000 0.98070  0.90160  0.56980  Biso   1.000  H
  C189     1.0000 0.11820  0.58050  0.09860  Biso   1.000  C
  C190     1.0000 0.88180  0.08050  0.40140  Biso   1.000  C
  C191     1.0000 0.88180  0.41950  0.90140  Biso   1.000  C
  C192     1.0000 0.11820  0.91950  0.59860  Biso   1.000  C
  H165     1.0000 0.11540  0.52150  0.09460  Biso   1.000  H
  H166     1.0000 0.88460  0.02150  0.40540  Biso   1.000  H
  H167     1.0000 0.88460  0.47850  0.90540  Biso   1.000  H
  H168     1.0000 0.11540  0.97850  0.59460  Biso   1.000  H
  H169     1.0000 0.17760  0.59870  0.08290  Biso   1.000  H
  H170     1.0000 0.82240  0.09870  0.41710  Biso   1.000  H
  H171     1.0000 0.82240  0.40130  0.91710  Biso   1.000  H
  H172     1.0000 0.17760  0.90130  0.58290  Biso   1.000  H
  C193     1.0000 0.19050  0.57310  0.20940  Biso   1.000  C
  C194     1.0000 0.80950  0.07310  0.29060  Biso   1.000  C
  C195     1.0000 0.80950  0.42690  0.79060  Biso   1.000  C
  C196     1.0000 0.19050  0.92690  0.70940  Biso   1.000  C
  H173     1.0000 0.24800  0.59720  0.19530  Biso   1.000  H
  H174     1.0000 0.75200  0.09720  0.30470  Biso   1.000  H
  H175     1.0000 0.75200  0.40280  0.80470  Biso   1.000  H
  H176     1.0000 0.24800  0.90280  0.69530  Biso   1.000  H
  H177     1.0000 0.19500  0.51430  0.20400  Biso   1.000  H
  H178     1.0000 0.80500  0.01430  0.29600  Biso   1.000  H
  H179     1.0000 0.80500  0.48570  0.79600  Biso   1.000  H
  H180     1.0000 0.19500  0.98570  0.70400  Biso   1.000  H
  C197     1.0000 0.18100  0.59240  0.28290  Biso   1.000  C
  C198     1.0000 0.81900  0.09240  0.21710  Biso   1.000  C
  C199     1.0000 0.81900  0.40760  0.71710  Biso   1.000  C
  C200     1.0000 0.18100  0.90760  0.78290  Biso   1.000  C
  H181     1.0000 0.23450  0.57170  0.31040  Biso   1.000  H
  H182     1.0000 0.76550  0.07170  0.18960  Biso   1.000  H
  H183     1.0000 0.76550  0.42830  0.68960  Biso   1.000  H
  H184     1.0000 0.23450  0.92830  0.81040  Biso   1.000  H
  H185     1.0000 0.12480  0.56760  0.29740  Biso   1.000  H
  H186     1.0000 0.87520  0.06760  0.20260  Biso   1.000  H
  H187     1.0000 0.87520  0.43240  0.70260  Biso   1.000  H
  H188     1.0000 0.12480  0.93240  0.79740  Biso   1.000  H
  H189     1.0000 0.17740  0.65060  0.28860  Biso   1.000  H
  H190     1.0000 0.82260  0.15060  0.21140  Biso   1.000  H
  H191     1.0000 0.82260  0.34940  0.71140  Biso   1.000  H
  H192     1.0000 0.17740  0.84940  0.78860  Biso   1.000  H
  F1       1.0000 0.22600  0.80790  0.48050  Biso   1.000  F
  F2       1.0000 0.77400  0.30790  0.01950  Biso   1.000  F
  F3       1.0000 0.77400  0.19210  0.51950  Biso   1.000  F
  F4       1.0000 0.22600  0.69210  0.98050  Biso   1.000  F
  F5       1.0000 0.20730  0.81830  0.36790  Biso   1.000  F
  F6       1.0000 0.79270  0.31830  0.13210  Biso   1.000  F
  F7       1.0000 0.79270  0.18170  0.63210  Biso   1.000  F
  F8       1.0000 0.20730  0.68170  0.86790  Biso   1.000  F
  B1       1.0000 0.24160  0.77260  0.41950  Biso   1.000  B
  B2       1.0000 0.75840  0.27260  0.08050  Biso   1.000  B
  B3       1.0000 0.75840  0.22740  0.58050  Biso   1.000  B
  B4       1.0000 0.24160  0.72740  0.91950  Biso   1.000  B
  F9       1.0000 0.31810  0.73720  0.42330  Biso   1.000  F
  F10      1.0000 0.68190  0.23720  0.07670  Biso   1.000  F
  F11      1.0000 0.68190  0.26280  0.57670  Biso   1.000  F
  F12      1.0000 0.31810  0.76280  0.92330  Biso   1.000  F
  F13      1.0000 0.18450  0.70040  0.41740  Biso   1.000  F
  F14      1.0000 0.81550  0.20040  0.08260  Biso   1.000  F
  F15      1.0000 0.81550  0.29960  0.58260  Biso   1.000  F
  F16      1.0000 0.18450  0.79960  0.91740  Biso   1.000  F
  F17      1.0000 0.33310  0.80600  0.40700  Biso   1.000  F
  F18      1.0000 0.66690  0.30600  0.09300  Biso   1.000  F
  F19      1.0000 0.66690  0.19400  0.59300  Biso   1.000  F
  F20      1.0000 0.33310  0.69400  0.90700  Biso   1.000  F
