data_image0
_cell_length_a       13.523
_cell_length_b       18.277
_cell_length_c       18.648
_cell_angle_alpha    90
_cell_angle_beta     90
_cell_angle_gamma    90

_symmetry_space_group_name_H-M    "P 1"
_symmetry_int_tables_number       1

loop_
  _symmetry_equiv_pos_as_xyz
  'x, y, z'

loop_
  _atom_site_label
  _atom_site_occupancy
  _atom_site_fract_x
  _atom_site_fract_y
  _atom_site_fract_z
  _atom_site_thermal_displace_type
  _atom_site_B_iso_or_equiv
  _atom_site_type_symbol
  Cu1      1.0000 0.18414  0.67029  0.30942  Biso   1.000  Cu
  Cu2      1.0000 0.31586  0.32971  0.80942  Biso   1.000  Cu
  Cu3      1.0000 0.68414  0.82971  0.69058  Biso   1.000  Cu
  Cu4      1.0000 0.81586  0.17029  0.19058  Biso   1.000  Cu
  P1       1.0000 0.05750  0.60899  0.26009  Biso   1.000  P
  P2       1.0000 0.44250  0.39101  0.76009  Biso   1.000  P
  P3       1.0000 0.55750  0.89101  0.73991  Biso   1.000  P
  P4       1.0000 0.94250  0.10899  0.23991  Biso   1.000  P
  P5       1.0000 0.83151  0.85615  0.74313  Biso   1.000  P
  P6       1.0000 0.66849  0.14385  0.24313  Biso   1.000  P
  P7       1.0000 0.33151  0.64385  0.25687  Biso   1.000  P
  P8       1.0000 0.16849  0.35615  0.75687  Biso   1.000  P
  N1       1.0000 0.92970  0.60900  0.37450  Biso   1.000  N
  N2       1.0000 0.57030  0.39100  0.87450  Biso   1.000  N
  N3       1.0000 0.42970  0.89100  0.62550  Biso   1.000  N
  N4       1.0000 0.07030  0.10900  0.12550  Biso   1.000  N
  H1       1.0000 0.92510  0.56610  0.39570  Biso   1.000  H
  H2       1.0000 0.57490  0.43390  0.89570  Biso   1.000  H
  H3       1.0000 0.42510  0.93390  0.60430  Biso   1.000  H
  H4       1.0000 0.07490  0.06610  0.10430  Biso   1.000  H
  N5       1.0000 0.94620  0.77590  0.65710  Biso   1.000  N
  N6       1.0000 0.55380  0.22410  0.15710  Biso   1.000  N
  N7       1.0000 0.44620  0.72410  0.34290  Biso   1.000  N
  N8       1.0000 0.05380  0.27590  0.84290  Biso   1.000  N
  H5       1.0000 0.96800  0.81630  0.63700  Biso   1.000  H
  H6       1.0000 0.53200  0.18370  0.13700  Biso   1.000  H
  H7       1.0000 0.46800  0.68370  0.36300  Biso   1.000  H
  H8       1.0000 0.03200  0.31630  0.86300  Biso   1.000  H
  N9       1.0000 0.18690  0.66880  0.42060  Biso   1.000  N
  N10      1.0000 0.31310  0.33120  0.92060  Biso   1.000  N
  N11      1.0000 0.68690  0.83120  0.57940  Biso   1.000  N
  N12      1.0000 0.81310  0.16880  0.07940  Biso   1.000  N
  N13      1.0000 0.18250  0.78240  0.32940  Biso   1.000  N
  N14      1.0000 0.31750  0.21760  0.82940  Biso   1.000  N
  N15      1.0000 0.68250  0.71760  0.67060  Biso   1.000  N
  N16      1.0000 0.81750  0.28240  0.17060  Biso   1.000  N
  C1       1.0000 0.94140  0.71370  0.61440  Biso   1.000  C
  C2       1.0000 0.55860  0.28630  0.11440  Biso   1.000  C
  C3       1.0000 0.44140  0.78630  0.38560  Biso   1.000  C
  C4       1.0000 0.05860  0.21370  0.88560  Biso   1.000  C
  C5       1.0000 0.93980  0.64480  0.64270  Biso   1.000  C
  C6       1.0000 0.56020  0.35520  0.14270  Biso   1.000  C
  C7       1.0000 0.43980  0.85520  0.35730  Biso   1.000  C
  C8       1.0000 0.06020  0.14480  0.85730  Biso   1.000  C
  H9       1.0000 0.94160  0.63830  0.69330  Biso   1.000  H
  H10      1.0000 0.55840  0.36170  0.19330  Biso   1.000  H
  H11      1.0000 0.44160  0.86170  0.30670  Biso   1.000  H
  H12      1.0000 0.05840  0.13830  0.80670  Biso   1.000  H
  C9       1.0000 0.93540  0.58400  0.59770  Biso   1.000  C
  C10      1.0000 0.56460  0.41600  0.09770  Biso   1.000  C
  C11      1.0000 0.43540  0.91600  0.40230  Biso   1.000  C
  C12      1.0000 0.06460  0.08400  0.90230  Biso   1.000  C
  H13      1.0000 0.93320  0.53640  0.61820  Biso   1.000  H
  H14      1.0000 0.56680  0.46360  0.11820  Biso   1.000  H
  H15      1.0000 0.43320  0.96360  0.38180  Biso   1.000  H
  H16      1.0000 0.06680  0.03640  0.88180  Biso   1.000  H
  C13      1.0000 0.93410  0.59110  0.52610  Biso   1.000  C
  C14      1.0000 0.56590  0.40890  0.02610  Biso   1.000  C
  C15      1.0000 0.43410  0.90890  0.47390  Biso   1.000  C
  C16      1.0000 0.06590  0.09110  0.97390  Biso   1.000  C
  H17      1.0000 0.93120  0.54870  0.49680  Biso   1.000  H
  H18      1.0000 0.56880  0.45130  0.99680  Biso   1.000  H
  H19      1.0000 0.43120  0.95130  0.50320  Biso   1.000  H
  H20      1.0000 0.06880  0.04870  0.00320  Biso   1.000  H
  C17      1.0000 0.93710  0.66080  0.49370  Biso   1.000  C
  C18      1.0000 0.56290  0.33920  0.99370  Biso   1.000  C
  C19      1.0000 0.43710  0.83920  0.50630  Biso   1.000  C
  C20      1.0000 0.06290  0.16080  0.00630  Biso   1.000  C
  C21      1.0000 0.94030  0.72420  0.53790  Biso   1.000  C
  C22      1.0000 0.55970  0.27580  0.03790  Biso   1.000  C
  C23      1.0000 0.44030  0.77580  0.46210  Biso   1.000  C
  C24      1.0000 0.05970  0.22420  0.96210  Biso   1.000  C
  C25      1.0000 0.94250  0.79400  0.50510  Biso   1.000  C
  C26      1.0000 0.55750  0.20600  0.00510  Biso   1.000  C
  C27      1.0000 0.44250  0.70600  0.49490  Biso   1.000  C
  C28      1.0000 0.05750  0.29400  0.99490  Biso   1.000  C
  H21      1.0000 0.94200  0.83670  0.53410  Biso   1.000  H
  H22      1.0000 0.55800  0.16330  0.03410  Biso   1.000  H
  H23      1.0000 0.44200  0.66330  0.46590  Biso   1.000  H
  H24      1.0000 0.05800  0.33670  0.96590  Biso   1.000  H
  C29      1.0000 0.94540  0.80040  0.43280  Biso   1.000  C
  C30      1.0000 0.55460  0.19960  0.93280  Biso   1.000  C
  C31      1.0000 0.44540  0.69960  0.56720  Biso   1.000  C
  C32      1.0000 0.05460  0.30040  0.06720  Biso   1.000  C
  H25      1.0000 0.94870  0.84780  0.41210  Biso   1.000  H
  H26      1.0000 0.55130  0.15220  0.91210  Biso   1.000  H
  H27      1.0000 0.44870  0.65220  0.58790  Biso   1.000  H
  H28      1.0000 0.05130  0.34780  0.08790  Biso   1.000  H
  C33      1.0000 0.94370  0.73920  0.38790  Biso   1.000  C
  C34      1.0000 0.55630  0.26080  0.88790  Biso   1.000  C
  C35      1.0000 0.44370  0.76080  0.61210  Biso   1.000  C
  C36      1.0000 0.05630  0.23920  0.11210  Biso   1.000  C
  H29      1.0000 0.94770  0.74530  0.33740  Biso   1.000  H
  H30      1.0000 0.55230  0.25470  0.83740  Biso   1.000  H
  H31      1.0000 0.44770  0.75470  0.66260  Biso   1.000  H
  H32      1.0000 0.05230  0.24530  0.16260  Biso   1.000  H
  C37      1.0000 0.93640  0.67040  0.41640  Biso   1.000  C
  C38      1.0000 0.56360  0.32960  0.91640  Biso   1.000  C
  C39      1.0000 0.43640  0.82960  0.58360  Biso   1.000  C
  C40      1.0000 0.06360  0.17040  0.08360  Biso   1.000  C
  C41      1.0000 0.92980  0.61160  0.29750  Biso   1.000  C
  C42      1.0000 0.57020  0.38840  0.79750  Biso   1.000  C
  C43      1.0000 0.42980  0.88840  0.70250  Biso   1.000  C
  C44      1.0000 0.07020  0.11160  0.20250  Biso   1.000  C
  H33      1.0000 0.89650  0.65700  0.28140  Biso   1.000  H
  H34      1.0000 0.60350  0.34300  0.78140  Biso   1.000  H
  H35      1.0000 0.39650  0.84300  0.71860  Biso   1.000  H
  H36      1.0000 0.10350  0.15700  0.21860  Biso   1.000  H
  H37      1.0000 0.89170  0.56950  0.27860  Biso   1.000  H
  H38      1.0000 0.60830  0.43050  0.77860  Biso   1.000  H
  H39      1.0000 0.39170  0.93050  0.72140  Biso   1.000  H
  H40      1.0000 0.10830  0.06950  0.22140  Biso   1.000  H
  C45      1.0000 0.02820  0.62830  0.16710  Biso   1.000  C
  C46      1.0000 0.47180  0.37170  0.66710  Biso   1.000  C
  C47      1.0000 0.52820  0.87170  0.83290  Biso   1.000  C
  C48      1.0000 0.97180  0.12830  0.33290  Biso   1.000  C
  C49      1.0000 0.03470  0.69870  0.14300  Biso   1.000  C
  C50      1.0000 0.46530  0.30130  0.64300  Biso   1.000  C
  C51      1.0000 0.53470  0.80130  0.85700  Biso   1.000  C
  C52      1.0000 0.96530  0.19870  0.35700  Biso   1.000  C
  H41      1.0000 0.06030  0.73550  0.17390  Biso   1.000  H
  H42      1.0000 0.43970  0.26450  0.67390  Biso   1.000  H
  H43      1.0000 0.56030  0.76450  0.82610  Biso   1.000  H
  H44      1.0000 0.93970  0.23550  0.32610  Biso   1.000  H
  C53      1.0000 0.00460  0.71760  0.07450  Biso   1.000  C
  C54      1.0000 0.49540  0.28240  0.57450  Biso   1.000  C
  C55      1.0000 0.50460  0.78240  0.92550  Biso   1.000  C
  C56      1.0000 0.99540  0.21760  0.42550  Biso   1.000  C
  H45      1.0000 0.00890  0.76700  0.05890  Biso   1.000  H
  H46      1.0000 0.49110  0.23300  0.55890  Biso   1.000  H
  H47      1.0000 0.50890  0.73300  0.94110  Biso   1.000  H
  H48      1.0000 0.99110  0.26700  0.44110  Biso   1.000  H
  C57      1.0000 0.96830  0.66470  0.02890  Biso   1.000  C
  C58      1.0000 0.53170  0.33530  0.52890  Biso   1.000  C
  C59      1.0000 0.46830  0.83530  0.97110  Biso   1.000  C
  C60      1.0000 0.03170  0.16470  0.47110  Biso   1.000  C
  H49      1.0000 0.94580  0.67770  0.98240  Biso   1.000  H
  H50      1.0000 0.55420  0.32230  0.48240  Biso   1.000  H
  H51      1.0000 0.44580  0.82230  0.01760  Biso   1.000  H
  H52      1.0000 0.05420  0.17770  0.51760  Biso   1.000  H
  C61      1.0000 0.96500  0.59340  0.05080  Biso   1.000  C
  C62      1.0000 0.53500  0.40660  0.55080  Biso   1.000  C
  C63      1.0000 0.46500  0.90660  0.94920  Biso   1.000  C
  C64      1.0000 0.03500  0.09340  0.44920  Biso   1.000  C
  H53      1.0000 0.94230  0.55630  0.01920  Biso   1.000  H
  H54      1.0000 0.55770  0.44370  0.51920  Biso   1.000  H
  H55      1.0000 0.44230  0.94370  0.98080  Biso   1.000  H
  H56      1.0000 0.05770  0.05630  0.48080  Biso   1.000  H
  C65      1.0000 0.99460  0.57610  0.11900  Biso   1.000  C
  C66      1.0000 0.50540  0.42390  0.61900  Biso   1.000  C
  C67      1.0000 0.49460  0.92390  0.88100  Biso   1.000  C
  C68      1.0000 0.00540  0.07610  0.38100  Biso   1.000  C
  H57      1.0000 0.99200  0.52650  0.13390  Biso   1.000  H
  H58      1.0000 0.50800  0.47350  0.63390  Biso   1.000  H
  H59      1.0000 0.49200  0.97350  0.86610  Biso   1.000  H
  H60      1.0000 0.00800  0.02650  0.36610  Biso   1.000  H
  C69      1.0000 0.08730  0.51110  0.26130  Biso   1.000  C
  C70      1.0000 0.41270  0.48890  0.76130  Biso   1.000  C
  C71      1.0000 0.58730  0.98890  0.73870  Biso   1.000  C
  C72      1.0000 0.91270  0.01110  0.23870  Biso   1.000  C
  C73      1.0000 0.04470  0.46420  0.30900  Biso   1.000  C
  C74      1.0000 0.45530  0.53580  0.80900  Biso   1.000  C
  C75      1.0000 0.54470  0.03580  0.69100  Biso   1.000  C
  C76      1.0000 0.95530  0.96420  0.19100  Biso   1.000  C
  H61      1.0000 0.99650  0.48170  0.34180  Biso   1.000  H
  H62      1.0000 0.50350  0.51830  0.84180  Biso   1.000  H
  H63      1.0000 0.49650  0.01830  0.65820  Biso   1.000  H
  H64      1.0000 0.00350  0.98170  0.15820  Biso   1.000  H
  C77      1.0000 0.07130  0.39120  0.30970  Biso   1.000  C
  C78      1.0000 0.42870  0.60880  0.80970  Biso   1.000  C
  C79      1.0000 0.57130  0.10880  0.69030  Biso   1.000  C
  C80      1.0000 0.92870  0.89120  0.19030  Biso   1.000  C
  H65      1.0000 0.03950  0.35870  0.34210  Biso   1.000  H
  H66      1.0000 0.46050  0.64130  0.84210  Biso   1.000  H
  H67      1.0000 0.53950  0.14130  0.65790  Biso   1.000  H
  H68      1.0000 0.96050  0.85870  0.15790  Biso   1.000  H
  C81      1.0000 0.14080  0.36580  0.26600  Biso   1.000  C
  C82      1.0000 0.35920  0.63420  0.76600  Biso   1.000  C
  C83      1.0000 0.64080  0.13420  0.73400  Biso   1.000  C
  C84      1.0000 0.85920  0.86580  0.23400  Biso   1.000  C
  H69      1.0000 0.16160  0.31630  0.26890  Biso   1.000  H
  H70      1.0000 0.33840  0.68370  0.76890  Biso   1.000  H
  H71      1.0000 0.66160  0.18370  0.73110  Biso   1.000  H
  H72      1.0000 0.83840  0.81630  0.23110  Biso   1.000  H
  C85      1.0000 0.18170  0.41190  0.21690  Biso   1.000  C
  C86      1.0000 0.31830  0.58810  0.71690  Biso   1.000  C
  C87      1.0000 0.68170  0.08810  0.78310  Biso   1.000  C
  C88      1.0000 0.81830  0.91190  0.28310  Biso   1.000  C
  H73      1.0000 0.22850  0.39360  0.18350  Biso   1.000  H
  H74      1.0000 0.27150  0.60640  0.68350  Biso   1.000  H
  H75      1.0000 0.72850  0.10640  0.81650  Biso   1.000  H
  H76      1.0000 0.77150  0.89360  0.31650  Biso   1.000  H
  C89      1.0000 0.15610  0.48410  0.21530  Biso   1.000  C
  C90      1.0000 0.34390  0.51590  0.71530  Biso   1.000  C
  C91      1.0000 0.65610  0.01590  0.78470  Biso   1.000  C
  C92      1.0000 0.84390  0.98410  0.28470  Biso   1.000  C
  H77      1.0000 0.18670  0.51590  0.18170  Biso   1.000  H
  H78      1.0000 0.31330  0.48410  0.68170  Biso   1.000  H
  H79      1.0000 0.68670  0.98410  0.81830  Biso   1.000  H
  H80      1.0000 0.81330  0.01590  0.31830  Biso   1.000  H
  C93      1.0000 0.91870  0.77970  0.73090  Biso   1.000  C
  C94      1.0000 0.58130  0.22030  0.23090  Biso   1.000  C
  C95      1.0000 0.41870  0.72030  0.26910  Biso   1.000  C
  C96      1.0000 0.08130  0.27970  0.76910  Biso   1.000  C
  H81      1.0000 0.97810  0.78750  0.76090  Biso   1.000  H
  H82      1.0000 0.52190  0.21250  0.26090  Biso   1.000  H
  H83      1.0000 0.47810  0.71250  0.23910  Biso   1.000  H
  H84      1.0000 0.02190  0.28750  0.73910  Biso   1.000  H
  H85      1.0000 0.88720  0.73320  0.74570  Biso   1.000  H
  H86      1.0000 0.61280  0.26680  0.24570  Biso   1.000  H
  H87      1.0000 0.38720  0.76680  0.25430  Biso   1.000  H
  H88      1.0000 0.11280  0.23320  0.75430  Biso   1.000  H
  C97      1.0000 0.83830  0.86620  0.84030  Biso   1.000  C
  C98      1.0000 0.66170  0.13380  0.34030  Biso   1.000  C
  C99      1.0000 0.33830  0.63380  0.15970  Biso   1.000  C
  C100     1.0000 0.16170  0.36620  0.65970  Biso   1.000  C
  C101     1.0000 0.88340  0.92380  0.87580  Biso   1.000  C
  C102     1.0000 0.61660  0.07620  0.37580  Biso   1.000  C
  C103     1.0000 0.38340  0.57620  0.12420  Biso   1.000  C
  C104     1.0000 0.11660  0.42380  0.62420  Biso   1.000  C
  H89      1.0000 0.91280  0.96200  0.84870  Biso   1.000  H
  H90      1.0000 0.58720  0.03800  0.34870  Biso   1.000  H
  H91      1.0000 0.41280  0.53800  0.15130  Biso   1.000  H
  H92      1.0000 0.08720  0.46200  0.65130  Biso   1.000  H
  C105     1.0000 0.88650  0.92680  0.95010  Biso   1.000  C
  C106     1.0000 0.61350  0.07320  0.45010  Biso   1.000  C
  C107     1.0000 0.38650  0.57320  0.04990  Biso   1.000  C
  C108     1.0000 0.11350  0.42680  0.54990  Biso   1.000  C
  H93      1.0000 0.91860  0.96620  0.97370  Biso   1.000  H
  H94      1.0000 0.58140  0.03380  0.47370  Biso   1.000  H
  H95      1.0000 0.41860  0.53380  0.02630  Biso   1.000  H
  H96      1.0000 0.08140  0.46620  0.52630  Biso   1.000  H
  C109     1.0000 0.84260  0.87220  0.98880  Biso   1.000  C
  C110     1.0000 0.65740  0.12780  0.48880  Biso   1.000  C
  C111     1.0000 0.34260  0.62780  0.01120  Biso   1.000  C
  C112     1.0000 0.15740  0.37220  0.51120  Biso   1.000  C
  H97      1.0000 0.84260  0.87440  0.03970  Biso   1.000  H
  H98      1.0000 0.65740  0.12560  0.53970  Biso   1.000  H
  H99      1.0000 0.34260  0.62560  0.96030  Biso   1.000  H
  H100     1.0000 0.15740  0.37440  0.46030  Biso   1.000  H
  C113     1.0000 0.79820  0.81400  0.95420  Biso   1.000  C
  C114     1.0000 0.70180  0.18600  0.45420  Biso   1.000  C
  C115     1.0000 0.29820  0.68600  0.04580  Biso   1.000  C
  C116     1.0000 0.20180  0.31400  0.54580  Biso   1.000  C
  H101     1.0000 0.76990  0.77530  0.98140  Biso   1.000  H
  H102     1.0000 0.73010  0.22470  0.48140  Biso   1.000  H
  H103     1.0000 0.26990  0.72470  0.01860  Biso   1.000  H
  H104     1.0000 0.23010  0.27530  0.51860  Biso   1.000  H
  C117     1.0000 0.79490  0.81170  0.88070  Biso   1.000  C
  C118     1.0000 0.70510  0.18830  0.38070  Biso   1.000  C
  C119     1.0000 0.29490  0.68830  0.11930  Biso   1.000  C
  C120     1.0000 0.20510  0.31170  0.61930  Biso   1.000  C
  H105     1.0000 0.76250  0.77220  0.85730  Biso   1.000  H
  H106     1.0000 0.73750  0.22780  0.35730  Biso   1.000  H
  H107     1.0000 0.26250  0.72780  0.14270  Biso   1.000  H
  H108     1.0000 0.23750  0.27220  0.64270  Biso   1.000  H
  C121     1.0000 0.90380  0.93260  0.70790  Biso   1.000  C
  C122     1.0000 0.59620  0.06740  0.20790  Biso   1.000  C
  C123     1.0000 0.40380  0.56740  0.29210  Biso   1.000  C
  C124     1.0000 0.09620  0.43260  0.79210  Biso   1.000  C
  C125     1.0000 0.00480  0.93950  0.71600  Biso   1.000  C
  C126     1.0000 0.49520  0.06050  0.21600  Biso   1.000  C
  C127     1.0000 0.50480  0.56050  0.28400  Biso   1.000  C
  C128     1.0000 0.99520  0.43950  0.78400  Biso   1.000  C
  H109     1.0000 0.04030  0.90360  0.74230  Biso   1.000  H
  H110     1.0000 0.45970  0.09640  0.24230  Biso   1.000  H
  H111     1.0000 0.54030  0.59640  0.25770  Biso   1.000  H
  H112     1.0000 0.95970  0.40360  0.75770  Biso   1.000  H
  C129     1.0000 0.05420  0.99700  0.68670  Biso   1.000  C
  C130     1.0000 0.44580  0.00300  0.18670  Biso   1.000  C
  C131     1.0000 0.55420  0.50300  0.31330  Biso   1.000  C
  C132     1.0000 0.94580  0.49700  0.81330  Biso   1.000  C
  H113     1.0000 0.12400  0.00000  0.69200  Biso   1.000  H
  H114     1.0000 0.37600  0.00000  0.19200  Biso   1.000  H
  H115     1.0000 0.62400  0.50000  0.30800  Biso   1.000  H
  H116     1.0000 0.87600  0.50000  0.80800  Biso   1.000  H
  C133     1.0000 0.00660  0.04940  0.65060  Biso   1.000  C
  C134     1.0000 0.49340  0.95060  0.15060  Biso   1.000  C
  C135     1.0000 0.50660  0.45060  0.34940  Biso   1.000  C
  C136     1.0000 0.99340  0.54940  0.84940  Biso   1.000  C
  H117     1.0000 0.04220  0.09030  0.63250  Biso   1.000  H
  H118     1.0000 0.45780  0.90970  0.13250  Biso   1.000  H
  H119     1.0000 0.54220  0.40970  0.36750  Biso   1.000  H
  H120     1.0000 0.95780  0.59030  0.86750  Biso   1.000  H
  C137     1.0000 0.90620  0.04440  0.63950  Biso   1.000  C
  C138     1.0000 0.59380  0.95560  0.13950  Biso   1.000  C
  C139     1.0000 0.40620  0.45560  0.36050  Biso   1.000  C
  C140     1.0000 0.09380  0.54440  0.86050  Biso   1.000  C
  H121     1.0000 0.87270  0.08060  0.61220  Biso   1.000  H
  H122     1.0000 0.62730  0.91940  0.11220  Biso   1.000  H
  H123     1.0000 0.37270  0.41940  0.38780  Biso   1.000  H
  H124     1.0000 0.12730  0.58060  0.88780  Biso   1.000  H
  C141     1.0000 0.85440  0.98610  0.66850  Biso   1.000  C
  C142     1.0000 0.64560  0.01390  0.16850  Biso   1.000  C
  C143     1.0000 0.35440  0.51390  0.33150  Biso   1.000  C
  C144     1.0000 0.14560  0.48610  0.83150  Biso   1.000  C
  H125     1.0000 0.78490  0.98260  0.66150  Biso   1.000  H
  H126     1.0000 0.71510  0.01740  0.16150  Biso   1.000  H
  H127     1.0000 0.28490  0.51740  0.33850  Biso   1.000  H
  H128     1.0000 0.21510  0.48260  0.83850  Biso   1.000  H
  C145     1.0000 0.18140  0.83850  0.28460  Biso   1.000  C
  C146     1.0000 0.31860  0.16150  0.78460  Biso   1.000  C
  C147     1.0000 0.68140  0.66150  0.71540  Biso   1.000  C
  C148     1.0000 0.81860  0.33850  0.21540  Biso   1.000  C
  H129     1.0000 0.17860  0.82900  0.23460  Biso   1.000  H
  H130     1.0000 0.32140  0.17100  0.73460  Biso   1.000  H
  H131     1.0000 0.67860  0.67100  0.76540  Biso   1.000  H
  H132     1.0000 0.82140  0.32900  0.26540  Biso   1.000  H
  C149     1.0000 0.18420  0.91160  0.30780  Biso   1.000  C
  C150     1.0000 0.31580  0.08840  0.80780  Biso   1.000  C
  C151     1.0000 0.68420  0.58840  0.69220  Biso   1.000  C
  C152     1.0000 0.81580  0.41160  0.19220  Biso   1.000  C
  H133     1.0000 0.18350  0.95030  0.27370  Biso   1.000  H
  H134     1.0000 0.31650  0.04970  0.77370  Biso   1.000  H
  H135     1.0000 0.68350  0.54970  0.72630  Biso   1.000  H
  H136     1.0000 0.81650  0.45030  0.22630  Biso   1.000  H
  C153     1.0000 0.18800  0.92680  0.37820  Biso   1.000  C
  C154     1.0000 0.31200  0.07320  0.87820  Biso   1.000  C
  C155     1.0000 0.68800  0.57320  0.62180  Biso   1.000  C
  C156     1.0000 0.81200  0.42680  0.12180  Biso   1.000  C
  H137     1.0000 0.19080  0.97610  0.39410  Biso   1.000  H
  H138     1.0000 0.30920  0.02390  0.89410  Biso   1.000  H
  H139     1.0000 0.69080  0.52390  0.60590  Biso   1.000  H
  H140     1.0000 0.80920  0.47610  0.10590  Biso   1.000  H
  C157     1.0000 0.18760  0.86980  0.42800  Biso   1.000  C
  C158     1.0000 0.31240  0.13020  0.92800  Biso   1.000  C
  C159     1.0000 0.68760  0.63020  0.57200  Biso   1.000  C
  C160     1.0000 0.81240  0.36980  0.07200  Biso   1.000  C
  C161     1.0000 0.18640  0.79780  0.40030  Biso   1.000  C
  C162     1.0000 0.31360  0.20220  0.90030  Biso   1.000  C
  C163     1.0000 0.68640  0.70220  0.59970  Biso   1.000  C
  C164     1.0000 0.81360  0.29780  0.09970  Biso   1.000  C
  C165     1.0000 0.19000  0.88100  0.50430  Biso   1.000  C
  C166     1.0000 0.31000  0.11900  0.00430  Biso   1.000  C
  C167     1.0000 0.69000  0.61900  0.49570  Biso   1.000  C
  C168     1.0000 0.81000  0.38100  0.99570  Biso   1.000  C
  H141     1.0000 0.19170  0.92930  0.52290  Biso   1.000  H
  H142     1.0000 0.30830  0.07070  0.02290  Biso   1.000  H
  H143     1.0000 0.69170  0.57070  0.47710  Biso   1.000  H
  H144     1.0000 0.80830  0.42930  0.97710  Biso   1.000  H
  C169     1.0000 0.18980  0.82350  0.54960  Biso   1.000  C
  C170     1.0000 0.31020  0.17650  0.04960  Biso   1.000  C
  C171     1.0000 0.68980  0.67650  0.45040  Biso   1.000  C
  C172     1.0000 0.81020  0.32350  0.95040  Biso   1.000  C
  H145     1.0000 0.19090  0.83220  0.59980  Biso   1.000  H
  H146     1.0000 0.30910  0.16780  0.09980  Biso   1.000  H
  H147     1.0000 0.69090  0.66780  0.40020  Biso   1.000  H
  H148     1.0000 0.80910  0.33220  0.90020  Biso   1.000  H
  C173     1.0000 0.18810  0.74950  0.52410  Biso   1.000  C
  C174     1.0000 0.31190  0.25050  0.02410  Biso   1.000  C
  C175     1.0000 0.68810  0.75050  0.47590  Biso   1.000  C
  C176     1.0000 0.81190  0.24950  0.97590  Biso   1.000  C
  C177     1.0000 0.18720  0.73780  0.44950  Biso   1.000  C
  C178     1.0000 0.31280  0.26220  0.94950  Biso   1.000  C
  C179     1.0000 0.68720  0.76220  0.55050  Biso   1.000  C
  C180     1.0000 0.81280  0.23780  0.05050  Biso   1.000  C
  C181     1.0000 0.18700  0.68880  0.56950  Biso   1.000  C
  C182     1.0000 0.31300  0.31120  0.06950  Biso   1.000  C
  C183     1.0000 0.68700  0.81120  0.43050  Biso   1.000  C
  C184     1.0000 0.81300  0.18880  0.93050  Biso   1.000  C
  H149     1.0000 0.18670  0.69490  0.62010  Biso   1.000  H
  H150     1.0000 0.31330  0.30510  0.12010  Biso   1.000  H
  H151     1.0000 0.68670  0.80510  0.37990  Biso   1.000  H
  H152     1.0000 0.81330  0.19490  0.87990  Biso   1.000  H
  C185     1.0000 0.18640  0.62050  0.54000  Biso   1.000  C
  C186     1.0000 0.31360  0.37950  0.04000  Biso   1.000  C
  C187     1.0000 0.68640  0.87950  0.46000  Biso   1.000  C
  C188     1.0000 0.81360  0.12050  0.96000  Biso   1.000  C
  H153     1.0000 0.18620  0.57850  0.57000  Biso   1.000  H
  H154     1.0000 0.31380  0.42150  0.07000  Biso   1.000  H
  H155     1.0000 0.68620  0.92150  0.43000  Biso   1.000  H
  H156     1.0000 0.81380  0.07850  0.93000  Biso   1.000  H
  C189     1.0000 0.18600  0.61260  0.46530  Biso   1.000  C
  C190     1.0000 0.31400  0.38740  0.96530  Biso   1.000  C
  C191     1.0000 0.68600  0.88740  0.53470  Biso   1.000  C
  C192     1.0000 0.81400  0.11260  0.03470  Biso   1.000  C
  H157     1.0000 0.18510  0.56460  0.44580  Biso   1.000  H
  H158     1.0000 0.31490  0.43540  0.94580  Biso   1.000  H
  H159     1.0000 0.68510  0.93540  0.55420  Biso   1.000  H
  H160     1.0000 0.81490  0.06460  0.05420  Biso   1.000  H
  N17      1.0000 0.66450  0.69310  0.15850  Biso   1.000  N
  N18      1.0000 0.83550  0.30690  0.65850  Biso   1.000  N
  N19      1.0000 0.16450  0.80690  0.84150  Biso   1.000  N
  N20      1.0000 0.33550  0.19310  0.34150  Biso   1.000  N
  C193     1.0000 0.60660  0.71770  0.09630  Biso   1.000  C
  C194     1.0000 0.89340  0.28230  0.59630  Biso   1.000  C
  C195     1.0000 0.10660  0.78230  0.90370  Biso   1.000  C
  C196     1.0000 0.39340  0.21770  0.40370  Biso   1.000  C
  H161     1.0000 0.60260  0.77120  0.09640  Biso   1.000  H
  H162     1.0000 0.89740  0.22880  0.59640  Biso   1.000  H
  H163     1.0000 0.10260  0.72880  0.90360  Biso   1.000  H
  H164     1.0000 0.39740  0.27120  0.40360  Biso   1.000  H
  H165     1.0000 0.53990  0.69700  0.09890  Biso   1.000  H
  H166     1.0000 0.96010  0.30300  0.59890  Biso   1.000  H
  H167     1.0000 0.03990  0.80300  0.90110  Biso   1.000  H
  H168     1.0000 0.46010  0.19700  0.40110  Biso   1.000  H
  H169     1.0000 0.63890  0.70120  0.05210  Biso   1.000  H
  H170     1.0000 0.86110  0.29880  0.55210  Biso   1.000  H
  H171     1.0000 0.13890  0.79880  0.94790  Biso   1.000  H
  H172     1.0000 0.36110  0.20120  0.44790  Biso   1.000  H
  C197     1.0000 0.70950  0.62600  0.14970  Biso   1.000  C
  C198     1.0000 0.79050  0.37400  0.64970  Biso   1.000  C
  C199     1.0000 0.20950  0.87400  0.85030  Biso   1.000  C
  C200     1.0000 0.29050  0.12600  0.35030  Biso   1.000  C
  H173     1.0000 0.72870  0.60660  0.19660  Biso   1.000  H
  H174     1.0000 0.77130  0.39340  0.69660  Biso   1.000  H
  H175     1.0000 0.22870  0.89340  0.80340  Biso   1.000  H
  H176     1.0000 0.27130  0.10660  0.30340  Biso   1.000  H
  H177     1.0000 0.76850  0.63170  0.11960  Biso   1.000  H
  H178     1.0000 0.73150  0.36830  0.61960  Biso   1.000  H
  H179     1.0000 0.26850  0.86830  0.88040  Biso   1.000  H
  H180     1.0000 0.23150  0.13170  0.38040  Biso   1.000  H
  H181     1.0000 0.66330  0.59210  0.12650  Biso   1.000  H
  H182     1.0000 0.83670  0.40790  0.62650  Biso   1.000  H
  H183     1.0000 0.16330  0.90790  0.87350  Biso   1.000  H
  H184     1.0000 0.33670  0.09210  0.37350  Biso   1.000  H
  C201     1.0000 0.67170  0.73240  0.21550  Biso   1.000  C
  C202     1.0000 0.82830  0.26760  0.71550  Biso   1.000  C
  C203     1.0000 0.17170  0.76760  0.78450  Biso   1.000  C
  C204     1.0000 0.32830  0.23240  0.28450  Biso   1.000  C
  H185     1.0000 0.63950  0.77860  0.21550  Biso   1.000  H
  H186     1.0000 0.86050  0.22140  0.71550  Biso   1.000  H
  H187     1.0000 0.13950  0.72140  0.78450  Biso   1.000  H
  H188     1.0000 0.36050  0.27860  0.28450  Biso   1.000  H
  Cl1      1.0000 0.79791  0.41480  0.42041  Biso   1.000  Cl
  Cl2      1.0000 0.70209  0.58520  0.92041  Biso   1.000  Cl
  Cl3      1.0000 0.29791  0.08520  0.57959  Biso   1.000  Cl
  Cl4      1.0000 0.20209  0.91480  0.07959  Biso   1.000  Cl
  O1       1.0000 0.74870  0.36040  0.39110  Biso   1.000  O
  O2       1.0000 0.75130  0.63960  0.89110  Biso   1.000  O
  O3       1.0000 0.24870  0.13960  0.60890  Biso   1.000  O
  O4       1.0000 0.25130  0.86040  0.10890  Biso   1.000  O
  O5       1.0000 0.74990  0.43330  0.48230  Biso   1.000  O
  O6       1.0000 0.75010  0.56670  0.98230  Biso   1.000  O
  O7       1.0000 0.24990  0.06670  0.51770  Biso   1.000  O
  O8       1.0000 0.25010  0.93330  0.01770  Biso   1.000  O
  O9       1.0000 0.80090  0.47570  0.37270  Biso   1.000  O
  O10      1.0000 0.69910  0.52430  0.87270  Biso   1.000  O
  O11      1.0000 0.30090  0.02430  0.62730  Biso   1.000  O
  O12      1.0000 0.19910  0.97570  0.12730  Biso   1.000  O
  O13      1.0000 0.88810  0.39270  0.43330  Biso   1.000  O
  O14      1.0000 0.61190  0.60730  0.93330  Biso   1.000  O
  O15      1.0000 0.38810  0.10730  0.56670  Biso   1.000  O
  O16      1.0000 0.11190  0.89270  0.06670  Biso   1.000  O
  O17      1.0000 0.71520  0.71570  0.26760  Biso   1.000  O
  O18      1.0000 0.78480  0.28430  0.76760  Biso   1.000  O
  O19      1.0000 0.21520  0.78430  0.73240  Biso   1.000  O
  O20      1.0000 0.28480  0.21570  0.23240  Biso   1.000  O
