data_image0
_cell_length_a       9.99
_cell_length_b       15.153
_cell_length_c       20.307
_cell_angle_alpha    90
_cell_angle_beta     94.152
_cell_angle_gamma    90

_symmetry_space_group_name_H-M    "P 1"
_symmetry_int_tables_number       1

loop_
  _symmetry_equiv_pos_as_xyz
  'x, y, z'

loop_
  _atom_site_label
  _atom_site_occupancy
  _atom_site_fract_x
  _atom_site_fract_y
  _atom_site_fract_z
  _atom_site_thermal_displace_type
  _atom_site_B_iso_or_equiv
  _atom_site_type_symbol
  C1       1.0000 0.03040  0.14840  0.21100  Biso   1.000  C
  C2       1.0000 0.46960  0.64840  0.28900  Biso   1.000  C
  C3       1.0000 0.96960  0.85160  0.78900  Biso   1.000  C
  C4       1.0000 0.53040  0.35160  0.71100  Biso   1.000  C
  C5       1.0000 0.96250  0.14280  0.27770  Biso   1.000  C
  C6       1.0000 0.53750  0.64280  0.22230  Biso   1.000  C
  C7       1.0000 0.03750  0.85720  0.72230  Biso   1.000  C
  C8       1.0000 0.46250  0.35720  0.77770  Biso   1.000  C
  C9       1.0000 0.22750  0.87160  0.20590  Biso   1.000  C
  C10      1.0000 0.27250  0.37160  0.29410  Biso   1.000  C
  C11      1.0000 0.77250  0.12840  0.79410  Biso   1.000  C
  C12      1.0000 0.72750  0.62840  0.70590  Biso   1.000  C
  C13      1.0000 0.26420  0.92170  0.27030  Biso   1.000  C
  C14      1.0000 0.23580  0.42170  0.22970  Biso   1.000  C
  C15      1.0000 0.73580  0.07830  0.72970  Biso   1.000  C
  C16      1.0000 0.76420  0.57830  0.77030  Biso   1.000  C
  C17      1.0000 0.76830  0.87020  0.27400  Biso   1.000  C
  C18      1.0000 0.73170  0.37020  0.22600  Biso   1.000  C
  C19      1.0000 0.23170  0.12980  0.72600  Biso   1.000  C
  C20      1.0000 0.26830  0.62980  0.77400  Biso   1.000  C
  C21      1.0000 0.72340  0.91550  0.20800  Biso   1.000  C
  C22      1.0000 0.77660  0.41550  0.29200  Biso   1.000  C
  C23      1.0000 0.27660  0.08450  0.79200  Biso   1.000  C
  C24      1.0000 0.22340  0.58450  0.70800  Biso   1.000  C
  C25      1.0000 0.27750  0.04560  0.09000  Biso   1.000  C
  C26      1.0000 0.22250  0.54560  0.41000  Biso   1.000  C
  C27      1.0000 0.72250  0.95440  0.91000  Biso   1.000  C
  C28      1.0000 0.77750  0.45440  0.59000  Biso   1.000  C
  H1       1.0000 0.25810  0.04780  0.13400  Biso   1.000  H
  H2       1.0000 0.24190  0.54780  0.36600  Biso   1.000  H
  H3       1.0000 0.74190  0.95220  0.86600  Biso   1.000  H
  H4       1.0000 0.75810  0.45220  0.63400  Biso   1.000  H
  C29      1.0000 0.40080  0.01750  0.07500  Biso   1.000  C
  C30      1.0000 0.09920  0.51750  0.42500  Biso   1.000  C
  C31      1.0000 0.59920  0.98250  0.92500  Biso   1.000  C
  C32      1.0000 0.90080  0.48250  0.57500  Biso   1.000  C
  H5       1.0000 0.46390  0.00050  0.10860  Biso   1.000  H
  H6       1.0000 0.03610  0.50050  0.39140  Biso   1.000  H
  H7       1.0000 0.53610  0.99950  0.89140  Biso   1.000  H
  H8       1.0000 0.96390  0.49950  0.60860  Biso   1.000  H
  C33      1.0000 0.43290  0.01420  0.00900  Biso   1.000  C
  C34      1.0000 0.06710  0.51420  0.49100  Biso   1.000  C
  C35      1.0000 0.56710  0.98580  0.99100  Biso   1.000  C
  C36      1.0000 0.93290  0.48580  0.50900  Biso   1.000  C
  C37      1.0000 0.33390  0.04040  0.96190  Biso   1.000  C
  C38      1.0000 0.16610  0.54040  0.53810  Biso   1.000  C
  C39      1.0000 0.66610  0.95960  0.03810  Biso   1.000  C
  C40      1.0000 0.83390  0.45960  0.46190  Biso   1.000  C
  H9       1.0000 0.35040  0.04020  0.91740  Biso   1.000  H
  H10      1.0000 0.14960  0.54020  0.58260  Biso   1.000  H
  H11      1.0000 0.64960  0.95980  0.08260  Biso   1.000  H
  H12      1.0000 0.85040  0.45980  0.41740  Biso   1.000  H
  C41      1.0000 0.21240  0.06650  0.98090  Biso   1.000  C
  C42      1.0000 0.28760  0.56650  0.51910  Biso   1.000  C
  C43      1.0000 0.78760  0.93350  0.01910  Biso   1.000  C
  C44      1.0000 0.71240  0.43350  0.48090  Biso   1.000  C
  H13      1.0000 0.14680  0.08240  0.94820  Biso   1.000  H
  H14      1.0000 0.35320  0.58240  0.55180  Biso   1.000  H
  H15      1.0000 0.85320  0.91760  0.05180  Biso   1.000  H
  H16      1.0000 0.64680  0.41760  0.44820  Biso   1.000  H
  C45      1.0000 0.78240  0.17700  0.99030  Biso   1.000  C
  C46      1.0000 0.71760  0.67700  0.50970  Biso   1.000  C
  C47      1.0000 0.21760  0.82300  0.00970  Biso   1.000  C
  C48      1.0000 0.28240  0.32300  0.49030  Biso   1.000  C
  H17      1.0000 0.83460  0.16600  0.95510  Biso   1.000  H
  H18      1.0000 0.66540  0.66600  0.54490  Biso   1.000  H
  H19      1.0000 0.16540  0.83400  0.04490  Biso   1.000  H
  H20      1.0000 0.33460  0.33400  0.45510  Biso   1.000  H
  C49      1.0000 0.65550  0.21180  0.97710  Biso   1.000  C
  C50      1.0000 0.84450  0.71180  0.52290  Biso   1.000  C
  C51      1.0000 0.34450  0.78820  0.02290  Biso   1.000  C
  C52      1.0000 0.15550  0.28820  0.47710  Biso   1.000  C
  H21      1.0000 0.62380  0.22520  0.93410  Biso   1.000  H
  H22      1.0000 0.87620  0.72520  0.56590  Biso   1.000  H
  H23      1.0000 0.37620  0.77480  0.06590  Biso   1.000  H
  H24      1.0000 0.12380  0.27480  0.43410  Biso   1.000  H
  C53      1.0000 0.57490  0.22660  0.03050  Biso   1.000  C
  C54      1.0000 0.92510  0.72660  0.46950  Biso   1.000  C
  C55      1.0000 0.42510  0.77340  0.96950  Biso   1.000  C
  C56      1.0000 0.07490  0.27340  0.53050  Biso   1.000  C
  C57      1.0000 0.63010  0.20590  0.09240  Biso   1.000  C
  C58      1.0000 0.86990  0.70590  0.40760  Biso   1.000  C
  C59      1.0000 0.36990  0.79410  0.90760  Biso   1.000  C
  C60      1.0000 0.13010  0.29410  0.59240  Biso   1.000  C
  H25      1.0000 0.58030  0.21520  0.12870  Biso   1.000  H
  H26      1.0000 0.91970  0.71520  0.37130  Biso   1.000  H
  H27      1.0000 0.41970  0.78480  0.87130  Biso   1.000  H
  H28      1.0000 0.08030  0.28480  0.62870  Biso   1.000  H
  C61      1.0000 0.75660  0.17210  0.10190  Biso   1.000  C
  C62      1.0000 0.74340  0.67210  0.39810  Biso   1.000  C
  C63      1.0000 0.24340  0.82790  0.89810  Biso   1.000  C
  C64      1.0000 0.25660  0.32790  0.60190  Biso   1.000  C
  H29      1.0000 0.79010  0.15820  0.14460  Biso   1.000  H
  H30      1.0000 0.70990  0.65820  0.35540  Biso   1.000  H
  H31      1.0000 0.20990  0.84180  0.85540  Biso   1.000  H
  H32      1.0000 0.29010  0.34180  0.64460  Biso   1.000  H
  C65      1.0000 0.23280  0.31610  0.05820  Biso   1.000  C
  C66      1.0000 0.26720  0.81610  0.44180  Biso   1.000  C
  C67      1.0000 0.76720  0.68390  0.94180  Biso   1.000  C
  C68      1.0000 0.73280  0.18390  0.55820  Biso   1.000  C
  H33      1.0000 0.18330  0.33050  0.09370  Biso   1.000  H
  H34      1.0000 0.31670  0.83050  0.40630  Biso   1.000  H
  H35      1.0000 0.81670  0.66950  0.90630  Biso   1.000  H
  H36      1.0000 0.68330  0.16950  0.59370  Biso   1.000  H
  C69      1.0000 0.36080  0.28510  0.07080  Biso   1.000  C
  C70      1.0000 0.13920  0.78510  0.42920  Biso   1.000  C
  C71      1.0000 0.63920  0.71490  0.92920  Biso   1.000  C
  C72      1.0000 0.86080  0.21490  0.57080  Biso   1.000  C
  H37      1.0000 0.39660  0.27960  0.11420  Biso   1.000  H
  H38      1.0000 0.10340  0.77960  0.38580  Biso   1.000  H
  H39      1.0000 0.60340  0.72040  0.88580  Biso   1.000  H
  H40      1.0000 0.89660  0.22040  0.61420  Biso   1.000  H
  C73      1.0000 0.43800  0.26170  0.01880  Biso   1.000  C
  C74      1.0000 0.06200  0.76170  0.48120  Biso   1.000  C
  C75      1.0000 0.56200  0.73830  0.98120  Biso   1.000  C
  C76      1.0000 0.93800  0.23830  0.51880  Biso   1.000  C
  C77      1.0000 0.38090  0.27340  0.95660  Biso   1.000  C
  C78      1.0000 0.11910  0.77340  0.54340  Biso   1.000  C
  C79      1.0000 0.61910  0.72660  0.04340  Biso   1.000  C
  C80      1.0000 0.88090  0.22660  0.45660  Biso   1.000  C
  H41      1.0000 0.42870  0.25970  0.92040  Biso   1.000  H
  H42      1.0000 0.07130  0.75970  0.57960  Biso   1.000  H
  H43      1.0000 0.57130  0.74030  0.07960  Biso   1.000  H
  H44      1.0000 0.92870  0.24030  0.42040  Biso   1.000  H
  C81      1.0000 0.25090  0.30580  0.94740  Biso   1.000  C
  C82      1.0000 0.24910  0.80580  0.55260  Biso   1.000  C
  C83      1.0000 0.74910  0.69420  0.05260  Biso   1.000  C
  C84      1.0000 0.75090  0.19420  0.44740  Biso   1.000  C
  H45      1.0000 0.21400  0.31360  0.90440  Biso   1.000  H
  H46      1.0000 0.28600  0.81360  0.59560  Biso   1.000  H
  H47      1.0000 0.78600  0.68640  0.09560  Biso   1.000  H
  H48      1.0000 0.71400  0.18640  0.40440  Biso   1.000  H
  C85      1.0000 0.74710  0.43390  0.93350  Biso   1.000  C
  C86      1.0000 0.75290  0.93390  0.56650  Biso   1.000  C
  C87      1.0000 0.25290  0.56610  0.06650  Biso   1.000  C
  C88      1.0000 0.24710  0.06610  0.43350  Biso   1.000  C
  H49      1.0000 0.77950  0.42420  0.89240  Biso   1.000  H
  H50      1.0000 0.72050  0.92420  0.60760  Biso   1.000  H
  H51      1.0000 0.22050  0.57580  0.10760  Biso   1.000  H
  H52      1.0000 0.27950  0.07580  0.39240  Biso   1.000  H
  C89      1.0000 0.61870  0.46710  0.93660  Biso   1.000  C
  C90      1.0000 0.88130  0.96710  0.56340  Biso   1.000  C
  C91      1.0000 0.38130  0.53290  0.06340  Biso   1.000  C
  C92      1.0000 0.11870  0.03290  0.43660  Biso   1.000  C
  H53      1.0000 0.56630  0.47930  0.89790  Biso   1.000  H
  H54      1.0000 0.93370  0.97930  0.60210  Biso   1.000  H
  H55      1.0000 0.43370  0.52070  0.10210  Biso   1.000  H
  H56      1.0000 0.06630  0.02070  0.39790  Biso   1.000  H
  C93      1.0000 0.56800  0.48200  0.99790  Biso   1.000  C
  C94      1.0000 0.93200  0.98200  0.50210  Biso   1.000  C
  C95      1.0000 0.43200  0.51800  0.00210  Biso   1.000  C
  C96      1.0000 0.06800  0.01800  0.49790  Biso   1.000  C
  C97      1.0000 0.65230  0.46150  0.05390  Biso   1.000  C
  C98      1.0000 0.84770  0.96150  0.44610  Biso   1.000  C
  C99      1.0000 0.34770  0.53850  0.94610  Biso   1.000  C
  C100     1.0000 0.15230  0.03850  0.55390  Biso   1.000  C
  H57      1.0000 0.62390  0.47000  0.09600  Biso   1.000  H
  H58      1.0000 0.87610  0.97000  0.40400  Biso   1.000  H
  H59      1.0000 0.37610  0.53000  0.90400  Biso   1.000  H
  H60      1.0000 0.12390  0.03000  0.59600  Biso   1.000  H
  C101     1.0000 0.77790  0.42850  0.04530  Biso   1.000  C
  C102     1.0000 0.72210  0.92850  0.45470  Biso   1.000  C
  C103     1.0000 0.22210  0.57150  0.95470  Biso   1.000  C
  C104     1.0000 0.27790  0.07150  0.54530  Biso   1.000  C
  H61      1.0000 0.83240  0.41450  0.08290  Biso   1.000  H
  H62      1.0000 0.66760  0.91450  0.41710  Biso   1.000  H
  H63      1.0000 0.16760  0.58550  0.91710  Biso   1.000  H
  H64      1.0000 0.33240  0.08550  0.58290  Biso   1.000  H
  C105     1.0000 0.95730  0.33130  0.79850  Biso   1.000  C
  C106     1.0000 0.54270  0.83130  0.70150  Biso   1.000  C
  C107     1.0000 0.04270  0.66870  0.20150  Biso   1.000  C
  C108     1.0000 0.45730  0.16870  0.29850  Biso   1.000  C
  H65      1.0000 0.87020  0.35970  0.79280  Biso   1.000  H
  H66      1.0000 0.62980  0.85970  0.70720  Biso   1.000  H
  H67      1.0000 0.12980  0.64030  0.20720  Biso   1.000  H
  H68      1.0000 0.37020  0.14030  0.29280  Biso   1.000  H
  H69      1.0000 0.96370  0.28770  0.76390  Biso   1.000  H
  H70      1.0000 0.53630  0.78770  0.73610  Biso   1.000  H
  H71      1.0000 0.03630  0.71230  0.23610  Biso   1.000  H
  H72      1.0000 0.46370  0.21230  0.26390  Biso   1.000  H
  C109     1.0000 0.06760  0.39810  0.79640  Biso   1.000  C
  C110     1.0000 0.43240  0.89810  0.70360  Biso   1.000  C
  C111     1.0000 0.93240  0.60190  0.20360  Biso   1.000  C
  C112     1.0000 0.56760  0.10190  0.29640  Biso   1.000  C
  H73      1.0000 0.15570  0.37110  0.80160  Biso   1.000  H
  H74      1.0000 0.34430  0.87110  0.69840  Biso   1.000  H
  H75      1.0000 0.84430  0.62890  0.19840  Biso   1.000  H
  H76      1.0000 0.65570  0.12890  0.30160  Biso   1.000  H
  H77      1.0000 0.05970  0.43280  0.75620  Biso   1.000  H
  H78      1.0000 0.44030  0.93280  0.74380  Biso   1.000  H
  H79      1.0000 0.94030  0.56720  0.24380  Biso   1.000  H
  H80      1.0000 0.55970  0.06720  0.25620  Biso   1.000  H
  Cu1      1.0000 0.01062  0.11160  0.06484  Biso   1.000  Cu
  Cu2      1.0000 0.48938  0.61160  0.43516  Biso   1.000  Cu
  Cu3      1.0000 0.98938  0.88840  0.93516  Biso   1.000  Cu
  Cu4      1.0000 0.51062  0.38840  0.56484  Biso   1.000  Cu
  Cu5      1.0000 0.00038  0.37070  0.98112  Biso   1.000  Cu
  Cu6      1.0000 0.49962  0.87070  0.51888  Biso   1.000  Cu
  Cu7      1.0000 0.99962  0.62930  0.01888  Biso   1.000  Cu
  Cu8      1.0000 0.50038  0.12930  0.48112  Biso   1.000  Cu
  N1       1.0000 0.18200  0.07060  0.04311  Biso   1.000  N
  N2       1.0000 0.31800  0.57060  0.45689  Biso   1.000  N
  N3       1.0000 0.81800  0.92940  0.95689  Biso   1.000  N
  N4       1.0000 0.68200  0.42940  0.54311  Biso   1.000  N
  N5       1.0000 0.83410  0.15820  0.05170  Biso   1.000  N
  N6       1.0000 0.66590  0.65820  0.44830  Biso   1.000  N
  N7       1.0000 0.16590  0.84180  0.94830  Biso   1.000  N
  N8       1.0000 0.33410  0.34180  0.55170  Biso   1.000  N
  N9       1.0000 0.17600  0.32660  0.99720  Biso   1.000  N
  N10      1.0000 0.32400  0.82660  0.50280  Biso   1.000  N
  N11      1.0000 0.82400  0.67340  0.00280  Biso   1.000  N
  N12      1.0000 0.67600  0.17340  0.49720  Biso   1.000  N
  N13      1.0000 0.82650  0.41530  0.98790  Biso   1.000  N
  N14      1.0000 0.67350  0.91530  0.51210  Biso   1.000  N
  N15      1.0000 0.17350  0.58470  0.01210  Biso   1.000  N
  N16      1.0000 0.32650  0.08470  0.48790  Biso   1.000  N
  O1       1.0000 0.04320  0.07730  0.18013  Biso   1.000  O
  O2       1.0000 0.45680  0.57730  0.31987  Biso   1.000  O
  O3       1.0000 0.95680  0.92270  0.81987  Biso   1.000  O
  O4       1.0000 0.54320  0.42270  0.68013  Biso   1.000  O
  O5       1.0000 0.06520  0.22180  0.19229  Biso   1.000  O
  O6       1.0000 0.43480  0.72180  0.30771  Biso   1.000  O
  O7       1.0000 0.93480  0.77820  0.80771  Biso   1.000  O
  O8       1.0000 0.56520  0.27820  0.69229  Biso   1.000  O
  O9       1.0000 0.92830  0.06800  0.29549  Biso   1.000  O
  O10      1.0000 0.57170  0.56800  0.20451  Biso   1.000  O
  O11      1.0000 0.07170  0.93200  0.70451  Biso   1.000  O
  O12      1.0000 0.42830  0.43200  0.79549  Biso   1.000  O
  O13      1.0000 0.94210  0.21330  0.30523  Biso   1.000  O
  O14      1.0000 0.55790  0.71330  0.19477  Biso   1.000  O
  O15      1.0000 0.05790  0.78670  0.69477  Biso   1.000  O
  O16      1.0000 0.44210  0.28670  0.80523  Biso   1.000  O
  O17      1.0000 0.31580  0.82760  0.18165  Biso   1.000  O
  O18      1.0000 0.18420  0.32760  0.31835  Biso   1.000  O
  O19      1.0000 0.68420  0.17240  0.81835  Biso   1.000  O
  O20      1.0000 0.81580  0.67240  0.68165  Biso   1.000  O
  O21      1.0000 0.10840  0.88070  0.18079  Biso   1.000  O
  O22      1.0000 0.39160  0.38070  0.31921  Biso   1.000  O
  O23      1.0000 0.89160  0.11930  0.81921  Biso   1.000  O
  O24      1.0000 0.60840  0.61930  0.68079  Biso   1.000  O
  O25      1.0000 0.38100  0.91330  0.29482  Biso   1.000  O
  O26      1.0000 0.11900  0.41330  0.20518  Biso   1.000  O
  O27      1.0000 0.61900  0.08670  0.70518  Biso   1.000  O
  O28      1.0000 0.88100  0.58670  0.79482  Biso   1.000  O
  O29      1.0000 0.17490  0.96540  0.29450  Biso   1.000  O
  O30      1.0000 0.32510  0.46540  0.20550  Biso   1.000  O
  O31      1.0000 0.82510  0.03460  0.70550  Biso   1.000  O
  O32      1.0000 0.67490  0.53460  0.79450  Biso   1.000  O
  O33      1.0000 0.67950  0.83210  0.30378  Biso   1.000  O
  O34      1.0000 0.82050  0.33210  0.19622  Biso   1.000  O
  O35      1.0000 0.32050  0.16790  0.69622  Biso   1.000  O
  O36      1.0000 0.17950  0.66790  0.80378  Biso   1.000  O
  O37      1.0000 0.88990  0.87460  0.29312  Biso   1.000  O
  O38      1.0000 0.61010  0.37460  0.20688  Biso   1.000  O
  O39      1.0000 0.11010  0.12540  0.70688  Biso   1.000  O
  O40      1.0000 0.38990  0.62540  0.79312  Biso   1.000  O
  O41      1.0000 0.60350  0.90870  0.18904  Biso   1.000  O
  O42      1.0000 0.89650  0.40870  0.31096  Biso   1.000  O
  O43      1.0000 0.39650  0.09130  0.81096  Biso   1.000  O
  O44      1.0000 0.10350  0.59130  0.68904  Biso   1.000  O
  O45      1.0000 0.81140  0.95550  0.17962  Biso   1.000  O
  O46      1.0000 0.68860  0.45550  0.32038  Biso   1.000  O
  O47      1.0000 0.18860  0.04450  0.82038  Biso   1.000  O
  O48      1.0000 0.31140  0.54450  0.67962  Biso   1.000  O
  O49      1.0000 0.97510  0.29070  0.86230  Biso   1.000  O
  O50      1.0000 0.52490  0.79070  0.63770  Biso   1.000  O
  O51      1.0000 0.02490  0.70930  0.13770  Biso   1.000  O
  O52      1.0000 0.47510  0.20930  0.36230  Biso   1.000  O
  H81      1.0000 0.91440  0.25200  0.86580  Biso   1.000  H
  H82      1.0000 0.58560  0.75200  0.63420  Biso   1.000  H
  H83      1.0000 0.08560  0.74800  0.13420  Biso   1.000  H
  H84      1.0000 0.41440  0.24800  0.36580  Biso   1.000  H
  O53      1.0000 0.03900  0.44750  0.85170  Biso   1.000  O
  O54      1.0000 0.46100  0.94750  0.64830  Biso   1.000  O
  O55      1.0000 0.96100  0.55250  0.14830  Biso   1.000  O
  O56      1.0000 0.53900  0.05250  0.35170  Biso   1.000  O
  H85      1.0000 0.03490  0.50180  0.84120  Biso   1.000  H
  H86      1.0000 0.46510  0.00180  0.65880  Biso   1.000  H
  H87      1.0000 0.96510  0.49820  0.15880  Biso   1.000  H
  H88      1.0000 0.53490  0.99820  0.34120  Biso   1.000  H
  Zn1      1.0000 0.99150  0.96454  0.23616  Biso   1.000  Zn
  Zn2      1.0000 0.50850  0.46454  0.26384  Biso   1.000  Zn
  Zn3      1.0000 0.00850  0.03546  0.76384  Biso   1.000  Zn
  Zn4      1.0000 0.49150  0.53546  0.73616  Biso   1.000  Zn
  Zn5      1.0000 0.00402  0.32358  0.25493  Biso   1.000  Zn
  Zn6      1.0000 0.49598  0.82358  0.24507  Biso   1.000  Zn
  Zn7      1.0000 0.99598  0.67642  0.74507  Biso   1.000  Zn
  Zn8      1.0000 0.50402  0.17642  0.75493  Biso   1.000  Zn
