data_image0
_cell_length_a       6.944
_cell_length_b       13.76
_cell_length_c       12.733
_cell_angle_alpha    90
_cell_angle_beta     97.28
_cell_angle_gamma    90

_symmetry_space_group_name_H-M    "P 1"
_symmetry_int_tables_number       1

loop_
  _symmetry_equiv_pos_as_xyz
  'x, y, z'

loop_
  _atom_site_label
  _atom_site_occupancy
  _atom_site_fract_x
  _atom_site_fract_y
  _atom_site_fract_z
  _atom_site_thermal_displace_type
  _atom_site_B_iso_or_equiv
  _atom_site_type_symbol
  Cu1      1.0000 0.08687  0.88405  0.03705  Biso   1.000  Cu
  Cu2      1.0000 0.41313  0.38405  0.46295  Biso   1.000  Cu
  Cu3      1.0000 0.91313  0.11595  0.96295  Biso   1.000  Cu
  Cu4      1.0000 0.58687  0.61595  0.53705  Biso   1.000  Cu
  Cu5      1.0000 0.26367  0.16874  0.08951  Biso   1.000  Cu
  Cu6      1.0000 0.23633  0.66874  0.41049  Biso   1.000  Cu
  Cu7      1.0000 0.73633  0.83126  0.91049  Biso   1.000  Cu
  Cu8      1.0000 0.76367  0.33126  0.58951  Biso   1.000  Cu
  S1       1.0000 0.12940  0.02589  0.13774  Biso   1.000  S
  S2       1.0000 0.37060  0.52589  0.36226  Biso   1.000  S
  S3       1.0000 0.87060  0.97411  0.86226  Biso   1.000  S
  S4       1.0000 0.62940  0.47411  0.63774  Biso   1.000  S
  N1       1.0000 0.48510  0.85340  0.95880  Biso   1.000  N
  N2       1.0000 0.01490  0.35340  0.54120  Biso   1.000  N
  N3       1.0000 0.51490  0.14660  0.04120  Biso   1.000  N
  N4       1.0000 0.98510  0.64660  0.45880  Biso   1.000  N
  N5       1.0000 0.85300  0.72030  0.12240  Biso   1.000  N
  N6       1.0000 0.64700  0.22030  0.37760  Biso   1.000  N
  N7       1.0000 0.14700  0.27970  0.87760  Biso   1.000  N
  N8       1.0000 0.35300  0.77970  0.62240  Biso   1.000  N
  N9       1.0000 0.93740  0.12530  0.27240  Biso   1.000  N
  N10      1.0000 0.56260  0.62530  0.22760  Biso   1.000  N
  N11      1.0000 0.06260  0.87470  0.72760  Biso   1.000  N
  N12      1.0000 0.43740  0.37470  0.77240  Biso   1.000  N
  N13      1.0000 0.80010  0.98140  0.21070  Biso   1.000  N
  N14      1.0000 0.69990  0.48140  0.28930  Biso   1.000  N
  N15      1.0000 0.19990  0.01860  0.78930  Biso   1.000  N
  N16      1.0000 0.30010  0.51860  0.71070  Biso   1.000  N
  C1       1.0000 0.33460  0.86650  0.98570  Biso   1.000  C
  C2       1.0000 0.16540  0.36650  0.51430  Biso   1.000  C
  C3       1.0000 0.66540  0.13350  0.01430  Biso   1.000  C
  C4       1.0000 0.83460  0.63350  0.48570  Biso   1.000  C
  C5       1.0000 0.92470  0.78220  0.08260  Biso   1.000  C
  C6       1.0000 0.57530  0.28220  0.41740  Biso   1.000  C
  C7       1.0000 0.07530  0.21780  0.91740  Biso   1.000  C
  C8       1.0000 0.42470  0.71780  0.58260  Biso   1.000  C
  C9       1.0000 0.26320  0.30570  0.16520  Biso   1.000  C
  C10      1.0000 0.23680  0.80570  0.33480  Biso   1.000  C
  C11      1.0000 0.73680  0.69430  0.83480  Biso   1.000  C
  C12      1.0000 0.76320  0.19430  0.66520  Biso   1.000  C
  C13      1.0000 0.10220  0.25640  0.18420  Biso   1.000  C
  C14      1.0000 0.39780  0.75640  0.31580  Biso   1.000  C
  C15      1.0000 0.89780  0.74360  0.81580  Biso   1.000  C
  C16      1.0000 0.60220  0.24360  0.68420  Biso   1.000  C
  C17      1.0000 0.08650  0.20140  0.28480  Biso   1.000  C
  C18      1.0000 0.41350  0.70140  0.21520  Biso   1.000  C
  C19      1.0000 0.91350  0.79860  0.71520  Biso   1.000  C
  C20      1.0000 0.58650  0.29860  0.78480  Biso   1.000  C
  C21      1.0000 0.94080  0.04710  0.21350  Biso   1.000  C
  C22      1.0000 0.55920  0.54710  0.28650  Biso   1.000  C
  C23      1.0000 0.05920  0.95290  0.78650  Biso   1.000  C
  C24      1.0000 0.44080  0.45290  0.71350  Biso   1.000  C
  C25      1.0000 0.62580  0.99260  0.26340  Biso   1.000  C
  C26      1.0000 0.87420  0.49260  0.23660  Biso   1.000  C
  C27      1.0000 0.37420  0.00740  0.73660  Biso   1.000  C
  C28      1.0000 0.12580  0.50740  0.76340  Biso   1.000  C
  C29      1.0000 0.64760  0.97410  0.37850  Biso   1.000  C
  C30      1.0000 0.85240  0.47410  0.12150  Biso   1.000  C
  C31      1.0000 0.35240  0.02590  0.62150  Biso   1.000  C
  C32      1.0000 0.14760  0.52590  0.87850  Biso   1.000  C
  C33      1.0000 0.79470  0.93570  0.43490  Biso   1.000  C
  C34      1.0000 0.70530  0.43570  0.06510  Biso   1.000  C
  C35      1.0000 0.20530  0.06430  0.56510  Biso   1.000  C
  C36      1.0000 0.29470  0.56430  0.93490  Biso   1.000  C
  H1       1.0000 0.36800  0.30700  0.21600  Biso   1.000  H
  H2       1.0000 0.13200  0.80700  0.28400  Biso   1.000  H
  H3       1.0000 0.63200  0.69300  0.78400  Biso   1.000  H
  H4       1.0000 0.86800  0.19300  0.71600  Biso   1.000  H
  H5       1.0000 0.25400  0.35000  0.11000  Biso   1.000  H
  H6       1.0000 0.24600  0.85000  0.39000  Biso   1.000  H
  H7       1.0000 0.74600  0.65000  0.89000  Biso   1.000  H
  H8       1.0000 0.75400  0.15000  0.61000  Biso   1.000  H
  H9       1.0000 0.98500  0.26200  0.14200  Biso   1.000  H
  H10      1.0000 0.51500  0.76200  0.35800  Biso   1.000  H
  H11      1.0000 0.01500  0.73800  0.85800  Biso   1.000  H
  H12      1.0000 0.48500  0.23800  0.64200  Biso   1.000  H
  H13      1.0000 0.21900  0.17300  0.31300  Biso   1.000  H
  H14      1.0000 0.28100  0.67300  0.18700  Biso   1.000  H
  H15      1.0000 0.78100  0.82700  0.68700  Biso   1.000  H
  H16      1.0000 0.71900  0.32700  0.81300  Biso   1.000  H
  H17      1.0000 0.04700  0.24800  0.34100  Biso   1.000  H
  H18      1.0000 0.45300  0.74800  0.15900  Biso   1.000  H
  H19      1.0000 0.95300  0.75200  0.65900  Biso   1.000  H
  H20      1.0000 0.54700  0.25200  0.84100  Biso   1.000  H
  H21      1.0000 0.83600  0.13500  0.30300  Biso   1.000  H
  H22      1.0000 0.66400  0.63500  0.19700  Biso   1.000  H
  H23      1.0000 0.16400  0.86500  0.69700  Biso   1.000  H
  H24      1.0000 0.33600  0.36500  0.80300  Biso   1.000  H
  H25      1.0000 0.79700  0.93500  0.16800  Biso   1.000  H
  H26      1.0000 0.70300  0.43500  0.33200  Biso   1.000  H
  H27      1.0000 0.20300  0.06500  0.83200  Biso   1.000  H
  H28      1.0000 0.29700  0.56500  0.66800  Biso   1.000  H
  H29      1.0000 0.53900  0.95400  0.23200  Biso   1.000  H
  H30      1.0000 0.96100  0.45400  0.26800  Biso   1.000  H
  H31      1.0000 0.46100  0.04600  0.76800  Biso   1.000  H
  H32      1.0000 0.03900  0.54600  0.73200  Biso   1.000  H
  H33      1.0000 0.57100  0.06700  0.24900  Biso   1.000  H
  H34      1.0000 0.92900  0.56700  0.25100  Biso   1.000  H
  H35      1.0000 0.42900  0.93300  0.75100  Biso   1.000  H
  H36      1.0000 0.07100  0.43300  0.74900  Biso   1.000  H
  H37      1.0000 0.52000  0.99000  0.41500  Biso   1.000  H
  H38      1.0000 0.98000  0.49000  0.08500  Biso   1.000  H
  H39      1.0000 0.48000  0.01000  0.58500  Biso   1.000  H
  H40      1.0000 0.02000  0.51000  0.91500  Biso   1.000  H
  H41      1.0000 0.89600  0.91700  0.40600  Biso   1.000  H
  H42      1.0000 0.60400  0.41700  0.09400  Biso   1.000  H
  H43      1.0000 0.10400  0.08300  0.59400  Biso   1.000  H
  H44      1.0000 0.39600  0.58300  0.90600  Biso   1.000  H
  H45      1.0000 0.78200  0.93600  0.50800  Biso   1.000  H
  H46      1.0000 0.71800  0.43600  0.99200  Biso   1.000  H
  H47      1.0000 0.21800  0.06400  0.49200  Biso   1.000  H
  H48      1.0000 0.28200  0.56400  0.00800  Biso   1.000  H
