data_image0
_cell_length_a       37.91
_cell_length_b       15.11
_cell_length_c       9.95
_cell_angle_alpha    90
_cell_angle_beta     90
_cell_angle_gamma    90

_symmetry_space_group_name_H-M    "P 1"
_symmetry_int_tables_number       1

loop_
  _symmetry_equiv_pos_as_xyz
  'x, y, z'

loop_
  _atom_site_label
  _atom_site_occupancy
  _atom_site_fract_x
  _atom_site_fract_y
  _atom_site_fract_z
  _atom_site_thermal_displace_type
  _atom_site_B_iso_or_equiv
  _atom_site_type_symbol
  Br1      1.0000 0.77920  0.36110  0.68890  Biso   1.000  Br
  Br2      1.0000 0.77920  0.86110  0.18890  Biso   1.000  Br
  Br3      1.0000 0.27920  0.36110  0.18890  Biso   1.000  Br
  Br4      1.0000 0.27920  0.86110  0.68890  Biso   1.000  Br
  Br5      1.0000 0.47080  0.61110  0.93890  Biso   1.000  Br
  Br6      1.0000 0.47080  0.11110  0.43890  Biso   1.000  Br
  Br7      1.0000 0.97080  0.61110  0.43890  Biso   1.000  Br
  Br8      1.0000 0.97080  0.11110  0.93890  Biso   1.000  Br
  Br9      1.0000 0.02920  0.88890  0.93890  Biso   1.000  Br
  Br10     1.0000 0.02920  0.38890  0.43890  Biso   1.000  Br
  Br11     1.0000 0.52920  0.88890  0.43890  Biso   1.000  Br
  Br12     1.0000 0.52920  0.38890  0.93890  Biso   1.000  Br
  Br13     1.0000 0.72080  0.63890  0.18890  Biso   1.000  Br
  Br14     1.0000 0.72080  0.13890  0.68890  Biso   1.000  Br
  Br15     1.0000 0.22080  0.63890  0.68890  Biso   1.000  Br
  Br16     1.0000 0.22080  0.13890  0.18890  Biso   1.000  Br
  Br17     1.0000 0.71920  0.13170  0.18450  Biso   1.000  Br
  Br18     1.0000 0.71920  0.63170  0.68450  Biso   1.000  Br
  Br19     1.0000 0.21920  0.13170  0.68450  Biso   1.000  Br
  Br20     1.0000 0.21920  0.63170  0.18450  Biso   1.000  Br
  Br21     1.0000 0.53080  0.38170  0.43450  Biso   1.000  Br
  Br22     1.0000 0.53080  0.88170  0.93450  Biso   1.000  Br
  Br23     1.0000 0.03080  0.38170  0.93450  Biso   1.000  Br
  Br24     1.0000 0.03080  0.88170  0.43450  Biso   1.000  Br
  Br25     1.0000 0.96920  0.11830  0.43450  Biso   1.000  Br
  Br26     1.0000 0.96920  0.61830  0.93450  Biso   1.000  Br
  Br27     1.0000 0.46920  0.11830  0.93450  Biso   1.000  Br
  Br28     1.0000 0.46920  0.61830  0.43450  Biso   1.000  Br
  Br29     1.0000 0.78080  0.86830  0.68450  Biso   1.000  Br
  Br30     1.0000 0.78080  0.36830  0.18450  Biso   1.000  Br
  Br31     1.0000 0.28080  0.86830  0.18450  Biso   1.000  Br
  Br32     1.0000 0.28080  0.36830  0.68450  Biso   1.000  Br
  Cu1      1.0000 0.71940  0.29850  0.19240  Biso   1.000  Cu
  Cu2      1.0000 0.71940  0.79850  0.69240  Biso   1.000  Cu
  Cu3      1.0000 0.21940  0.29850  0.69240  Biso   1.000  Cu
  Cu4      1.0000 0.21940  0.79850  0.19240  Biso   1.000  Cu
  Cu5      1.0000 0.53060  0.54850  0.44240  Biso   1.000  Cu
  Cu6      1.0000 0.53060  0.04850  0.94240  Biso   1.000  Cu
  Cu7      1.0000 0.03060  0.54850  0.94240  Biso   1.000  Cu
  Cu8      1.0000 0.03060  0.04850  0.44240  Biso   1.000  Cu
  Cu9      1.0000 0.96940  0.95150  0.44240  Biso   1.000  Cu
  Cu10     1.0000 0.96940  0.45150  0.94240  Biso   1.000  Cu
  Cu11     1.0000 0.46940  0.95150  0.94240  Biso   1.000  Cu
  Cu12     1.0000 0.46940  0.45150  0.44240  Biso   1.000  Cu
  Cu13     1.0000 0.78060  0.70150  0.69240  Biso   1.000  Cu
  Cu14     1.0000 0.78060  0.20150  0.19240  Biso   1.000  Cu
  Cu15     1.0000 0.28060  0.70150  0.19240  Biso   1.000  Cu
  Cu16     1.0000 0.28060  0.20150  0.69240  Biso   1.000  Cu
  Cu17     1.0000 0.75000  0.25000  0.54980  Biso   1.000  Cu
  Cu18     1.0000 0.75000  0.75000  0.04980  Biso   1.000  Cu
  Cu19     1.0000 0.25000  0.25000  0.04980  Biso   1.000  Cu
  Cu20     1.0000 0.25000  0.75000  0.54980  Biso   1.000  Cu
  Cu21     1.0000 0.50000  0.50000  0.79980  Biso   1.000  Cu
  Cu22     1.0000 0.50000  0.00000  0.29980  Biso   1.000  Cu
  Cu23     1.0000 0.00000  0.50000  0.29980  Biso   1.000  Cu
  Cu24     1.0000 0.00000  0.00000  0.79980  Biso   1.000  Cu
  Cu25     1.0000 0.75000  0.25000  0.83780  Biso   1.000  Cu
  Cu26     1.0000 0.75000  0.75000  0.33780  Biso   1.000  Cu
  Cu27     1.0000 0.25000  0.25000  0.33780  Biso   1.000  Cu
  Cu28     1.0000 0.25000  0.75000  0.83780  Biso   1.000  Cu
  Cu29     1.0000 0.50000  0.50000  0.08780  Biso   1.000  Cu
  Cu30     1.0000 0.50000  0.00000  0.58780  Biso   1.000  Cu
  Cu31     1.0000 0.00000  0.50000  0.58780  Biso   1.000  Cu
  Cu32     1.0000 0.00000  0.00000  0.08780  Biso   1.000  Cu
  S1       1.0000 0.70720  0.31800  0.41360  Biso   1.000  S
  S2       1.0000 0.70720  0.81800  0.91360  Biso   1.000  S
  S3       1.0000 0.20720  0.31800  0.91360  Biso   1.000  S
  S4       1.0000 0.20720  0.81800  0.41360  Biso   1.000  S
  S5       1.0000 0.54280  0.56800  0.66360  Biso   1.000  S
  S6       1.0000 0.54280  0.06800  0.16360  Biso   1.000  S
  S7       1.0000 0.04280  0.56800  0.16360  Biso   1.000  S
  S8       1.0000 0.04280  0.06800  0.66360  Biso   1.000  S
  S9       1.0000 0.95720  0.93200  0.66360  Biso   1.000  S
  S10      1.0000 0.95720  0.43200  0.16360  Biso   1.000  S
  S11      1.0000 0.45720  0.93200  0.16360  Biso   1.000  S
  S12      1.0000 0.45720  0.43200  0.66360  Biso   1.000  S
  S13      1.0000 0.79280  0.68200  0.91360  Biso   1.000  S
  S14      1.0000 0.79280  0.18200  0.41360  Biso   1.000  S
  S15      1.0000 0.29280  0.68200  0.41360  Biso   1.000  S
  S16      1.0000 0.29280  0.18200  0.91360  Biso   1.000  S
  C1       1.0000 0.70450  0.43090  0.46850  Biso   1.000  C
  C2       1.0000 0.70450  0.93090  0.96850  Biso   1.000  C
  C3       1.0000 0.20450  0.43090  0.96850  Biso   1.000  C
  C4       1.0000 0.20450  0.93090  0.46850  Biso   1.000  C
  C5       1.0000 0.54550  0.68090  0.71850  Biso   1.000  C
  C6       1.0000 0.54550  0.18090  0.21850  Biso   1.000  C
  C7       1.0000 0.04550  0.68090  0.21850  Biso   1.000  C
  C8       1.0000 0.04550  0.18090  0.71850  Biso   1.000  C
  C9       1.0000 0.95450  0.81910  0.71850  Biso   1.000  C
  C10      1.0000 0.95450  0.31910  0.21850  Biso   1.000  C
  C11      1.0000 0.45450  0.81910  0.21850  Biso   1.000  C
  C12      1.0000 0.45450  0.31910  0.71850  Biso   1.000  C
  C13      1.0000 0.79550  0.56910  0.96850  Biso   1.000  C
  C14      1.0000 0.79550  0.06910  0.46850  Biso   1.000  C
  C15      1.0000 0.29550  0.56910  0.46850  Biso   1.000  C
  C16      1.0000 0.29550  0.06910  0.96850  Biso   1.000  C
  C17      1.0000 0.67150  0.47650  0.41020  Biso   1.000  C
  C18      1.0000 0.67150  0.97650  0.91020  Biso   1.000  C
  C19      1.0000 0.17150  0.47650  0.91020  Biso   1.000  C
  C20      1.0000 0.17150  0.97650  0.41020  Biso   1.000  C
  C21      1.0000 0.57850  0.72650  0.66020  Biso   1.000  C
  C22      1.0000 0.57850  0.22650  0.16020  Biso   1.000  C
  C23      1.0000 0.07850  0.72650  0.16020  Biso   1.000  C
  C24      1.0000 0.07850  0.22650  0.66020  Biso   1.000  C
  C25      1.0000 0.92150  0.77350  0.66020  Biso   1.000  C
  C26      1.0000 0.92150  0.27350  0.16020  Biso   1.000  C
  C27      1.0000 0.42150  0.77350  0.16020  Biso   1.000  C
  C28      1.0000 0.42150  0.27350  0.66020  Biso   1.000  C
  C29      1.0000 0.82850  0.52350  0.91020  Biso   1.000  C
  C30      1.0000 0.82850  0.02350  0.41020  Biso   1.000  C
  C31      1.0000 0.32850  0.52350  0.41020  Biso   1.000  C
  C32      1.0000 0.32850  0.02350  0.91020  Biso   1.000  C
  O1       1.0000 0.64090  0.43130  0.46250  Biso   1.000  O
  O2       1.0000 0.64090  0.93130  0.96250  Biso   1.000  O
  O3       1.0000 0.14090  0.43130  0.96250  Biso   1.000  O
  O4       1.0000 0.14090  0.93130  0.46250  Biso   1.000  O
  O5       1.0000 0.60910  0.68130  0.71250  Biso   1.000  O
  O6       1.0000 0.60910  0.18130  0.21250  Biso   1.000  O
  O7       1.0000 0.10910  0.68130  0.21250  Biso   1.000  O
  O8       1.0000 0.10910  0.18130  0.71250  Biso   1.000  O
  O9       1.0000 0.89090  0.81870  0.71250  Biso   1.000  O
  O10      1.0000 0.89090  0.31870  0.21250  Biso   1.000  O
  O11      1.0000 0.39090  0.81870  0.21250  Biso   1.000  O
  O12      1.0000 0.39090  0.31870  0.71250  Biso   1.000  O
  O13      1.0000 0.85910  0.56870  0.96250  Biso   1.000  O
  O14      1.0000 0.85910  0.06870  0.46250  Biso   1.000  O
  O15      1.0000 0.35910  0.56870  0.46250  Biso   1.000  O
  O16      1.0000 0.35910  0.06870  0.96250  Biso   1.000  O
  C33      1.0000 0.63310  0.34510  0.42510  Biso   1.000  C
  C34      1.0000 0.63310  0.84510  0.92510  Biso   1.000  C
  C35      1.0000 0.13310  0.34510  0.92510  Biso   1.000  C
  C36      1.0000 0.13310  0.84510  0.42510  Biso   1.000  C
  C37      1.0000 0.61690  0.59510  0.67510  Biso   1.000  C
  C38      1.0000 0.61690  0.09510  0.17510  Biso   1.000  C
  C39      1.0000 0.11690  0.59510  0.17510  Biso   1.000  C
  C40      1.0000 0.11690  0.09510  0.67510  Biso   1.000  C
  C41      1.0000 0.88310  0.90490  0.67510  Biso   1.000  C
  C42      1.0000 0.88310  0.40490  0.17510  Biso   1.000  C
  C43      1.0000 0.38310  0.90490  0.17510  Biso   1.000  C
  C44      1.0000 0.38310  0.40490  0.67510  Biso   1.000  C
  C45      1.0000 0.86690  0.65490  0.92510  Biso   1.000  C
  C46      1.0000 0.86690  0.15490  0.42510  Biso   1.000  C
  C47      1.0000 0.36690  0.65490  0.42510  Biso   1.000  C
  C48      1.0000 0.36690  0.15490  0.92510  Biso   1.000  C
  C49      1.0000 0.66290  0.28170  0.45640  Biso   1.000  C
  C50      1.0000 0.66290  0.78170  0.95640  Biso   1.000  C
  C51      1.0000 0.16290  0.28170  0.95640  Biso   1.000  C
  C52      1.0000 0.16290  0.78170  0.45640  Biso   1.000  C
  C53      1.0000 0.58710  0.53170  0.70640  Biso   1.000  C
  C54      1.0000 0.58710  0.03170  0.20640  Biso   1.000  C
  C55      1.0000 0.08710  0.53170  0.20640  Biso   1.000  C
  C56      1.0000 0.08710  0.03170  0.70640  Biso   1.000  C
  C57      1.0000 0.91290  0.96830  0.70640  Biso   1.000  C
  C58      1.0000 0.91290  0.46830  0.20640  Biso   1.000  C
  C59      1.0000 0.41290  0.96830  0.20640  Biso   1.000  C
  C60      1.0000 0.41290  0.46830  0.70640  Biso   1.000  C
  C61      1.0000 0.83710  0.71830  0.95640  Biso   1.000  C
  C62      1.0000 0.83710  0.21830  0.45640  Biso   1.000  C
  C63      1.0000 0.33710  0.71830  0.45640  Biso   1.000  C
  C64      1.0000 0.33710  0.21830  0.95640  Biso   1.000  C
  S17      1.0000 0.70780  0.32150  0.96910  Biso   1.000  S
  S18      1.0000 0.70780  0.82150  0.46910  Biso   1.000  S
  S19      1.0000 0.20780  0.32150  0.46910  Biso   1.000  S
  S20      1.0000 0.20780  0.82150  0.96910  Biso   1.000  S
  S21      1.0000 0.54220  0.57150  0.21910  Biso   1.000  S
  S22      1.0000 0.54220  0.07150  0.71910  Biso   1.000  S
  S23      1.0000 0.04220  0.57150  0.71910  Biso   1.000  S
  S24      1.0000 0.04220  0.07150  0.21910  Biso   1.000  S
  S25      1.0000 0.95780  0.92850  0.21910  Biso   1.000  S
  S26      1.0000 0.95780  0.42850  0.71910  Biso   1.000  S
  S27      1.0000 0.45780  0.92850  0.71910  Biso   1.000  S
  S28      1.0000 0.45780  0.42850  0.21910  Biso   1.000  S
  S29      1.0000 0.79220  0.67850  0.46910  Biso   1.000  S
  S30      1.0000 0.79220  0.17850  0.96910  Biso   1.000  S
  S31      1.0000 0.29220  0.67850  0.96910  Biso   1.000  S
  S32      1.0000 0.29220  0.17850  0.46910  Biso   1.000  S
  C65      1.0000 0.70670  0.43560  0.91730  Biso   1.000  C
  C66      1.0000 0.70670  0.93560  0.41730  Biso   1.000  C
  C67      1.0000 0.20670  0.43560  0.41730  Biso   1.000  C
  C68      1.0000 0.20670  0.93560  0.91730  Biso   1.000  C
  C69      1.0000 0.54330  0.68560  0.16730  Biso   1.000  C
  C70      1.0000 0.54330  0.18560  0.66730  Biso   1.000  C
  C71      1.0000 0.04330  0.68560  0.66730  Biso   1.000  C
  C72      1.0000 0.04330  0.18560  0.16730  Biso   1.000  C
  C73      1.0000 0.95670  0.81440  0.16730  Biso   1.000  C
  C74      1.0000 0.95670  0.31440  0.66730  Biso   1.000  C
  C75      1.0000 0.45670  0.81440  0.66730  Biso   1.000  C
  C76      1.0000 0.45670  0.31440  0.16730  Biso   1.000  C
  C77      1.0000 0.79330  0.56440  0.41730  Biso   1.000  C
  C78      1.0000 0.79330  0.06440  0.91730  Biso   1.000  C
  C79      1.0000 0.29330  0.56440  0.91730  Biso   1.000  C
  C80      1.0000 0.29330  0.06440  0.41730  Biso   1.000  C
  C81      1.0000 0.67620  0.48720  0.96740  Biso   1.000  C
  C82      1.0000 0.67620  0.98720  0.46740  Biso   1.000  C
  C83      1.0000 0.17620  0.48720  0.46740  Biso   1.000  C
  C84      1.0000 0.17620  0.98720  0.96740  Biso   1.000  C
  C85      1.0000 0.57380  0.73720  0.21740  Biso   1.000  C
  C86      1.0000 0.57380  0.23720  0.71740  Biso   1.000  C
  C87      1.0000 0.07380  0.73720  0.71740  Biso   1.000  C
  C88      1.0000 0.07380  0.23720  0.21740  Biso   1.000  C
  C89      1.0000 0.92620  0.76280  0.21740  Biso   1.000  C
  C90      1.0000 0.92620  0.26280  0.71740  Biso   1.000  C
  C91      1.0000 0.42620  0.76280  0.71740  Biso   1.000  C
  C92      1.0000 0.42620  0.26280  0.21740  Biso   1.000  C
  C93      1.0000 0.82380  0.51280  0.46740  Biso   1.000  C
  C94      1.0000 0.82380  0.01280  0.96740  Biso   1.000  C
  C95      1.0000 0.32380  0.51280  0.96740  Biso   1.000  C
  C96      1.0000 0.32380  0.01280  0.46740  Biso   1.000  C
  O17      1.0000 0.64230  0.44690  0.91380  Biso   1.000  O
  O18      1.0000 0.64230  0.94690  0.41380  Biso   1.000  O
  O19      1.0000 0.14230  0.44690  0.41380  Biso   1.000  O
  O20      1.0000 0.14230  0.94690  0.91380  Biso   1.000  O
  O21      1.0000 0.60770  0.69690  0.16380  Biso   1.000  O
  O22      1.0000 0.60770  0.19690  0.66380  Biso   1.000  O
  O23      1.0000 0.10770  0.69690  0.66380  Biso   1.000  O
  O24      1.0000 0.10770  0.19690  0.16380  Biso   1.000  O
  O25      1.0000 0.89230  0.80310  0.16380  Biso   1.000  O
  O26      1.0000 0.89230  0.30310  0.66380  Biso   1.000  O
  O27      1.0000 0.39230  0.80310  0.66380  Biso   1.000  O
  O28      1.0000 0.39230  0.30310  0.16380  Biso   1.000  O
  O29      1.0000 0.85770  0.55310  0.41380  Biso   1.000  O
  O30      1.0000 0.85770  0.05310  0.91380  Biso   1.000  O
  O31      1.0000 0.35770  0.55310  0.91380  Biso   1.000  O
  O32      1.0000 0.35770  0.05310  0.41380  Biso   1.000  O
  C97      1.0000 0.63800  0.35800  0.97060  Biso   1.000  C
  C98      1.0000 0.63800  0.85800  0.47060  Biso   1.000  C
  C99      1.0000 0.13800  0.35800  0.47060  Biso   1.000  C
  C100     1.0000 0.13800  0.85800  0.97060  Biso   1.000  C
  C101     1.0000 0.61200  0.60800  0.22060  Biso   1.000  C
  C102     1.0000 0.61200  0.10800  0.72060  Biso   1.000  C
  C103     1.0000 0.11200  0.60800  0.72060  Biso   1.000  C
  C104     1.0000 0.11200  0.10800  0.22060  Biso   1.000  C
  C105     1.0000 0.88800  0.89200  0.22060  Biso   1.000  C
  C106     1.0000 0.88800  0.39200  0.72060  Biso   1.000  C
  C107     1.0000 0.38800  0.89200  0.72060  Biso   1.000  C
  C108     1.0000 0.38800  0.39200  0.22060  Biso   1.000  C
  C109     1.0000 0.86200  0.64200  0.47060  Biso   1.000  C
  C110     1.0000 0.86200  0.14200  0.97060  Biso   1.000  C
  C111     1.0000 0.36200  0.64200  0.97060  Biso   1.000  C
  C112     1.0000 0.36200  0.14200  0.47060  Biso   1.000  C
  C113     1.0000 0.66480  0.29130  0.91190  Biso   1.000  C
  C114     1.0000 0.66480  0.79130  0.41190  Biso   1.000  C
  C115     1.0000 0.16480  0.29130  0.41190  Biso   1.000  C
  C116     1.0000 0.16480  0.79130  0.91190  Biso   1.000  C
  C117     1.0000 0.58520  0.54130  0.16190  Biso   1.000  C
  C118     1.0000 0.58520  0.04130  0.66190  Biso   1.000  C
  C119     1.0000 0.08520  0.54130  0.66190  Biso   1.000  C
  C120     1.0000 0.08520  0.04130  0.16190  Biso   1.000  C
  C121     1.0000 0.91480  0.95870  0.16190  Biso   1.000  C
  C122     1.0000 0.91480  0.45870  0.66190  Biso   1.000  C
  C123     1.0000 0.41480  0.95870  0.66190  Biso   1.000  C
  C124     1.0000 0.41480  0.45870  0.16190  Biso   1.000  C
  C125     1.0000 0.83520  0.70870  0.41190  Biso   1.000  C
  C126     1.0000 0.83520  0.20870  0.91190  Biso   1.000  C
  C127     1.0000 0.33520  0.70870  0.91190  Biso   1.000  C
  C128     1.0000 0.33520  0.20870  0.41190  Biso   1.000  C
