data_image0
_cell_length_a       19.6891
_cell_length_b       19.6891
_cell_length_c       14.1971
_cell_angle_alpha    90
_cell_angle_beta     90
_cell_angle_gamma    120

_symmetry_space_group_name_H-M    "P 1"
_symmetry_int_tables_number       1

loop_
  _symmetry_equiv_pos_as_xyz
  'x, y, z'

loop_
  _atom_site_label
  _atom_site_occupancy
  _atom_site_fract_x
  _atom_site_fract_y
  _atom_site_fract_z
  _atom_site_thermal_displace_type
  _atom_site_B_iso_or_equiv
  _atom_site_type_symbol
  Cu1      1.0000 0.58471  0.54850  0.43773  Biso   1.000  Cu
  Cu2      1.0000 0.45150  0.03621  0.43773  Biso   1.000  Cu
  Cu3      1.0000 0.96379  0.41529  0.43773  Biso   1.000  Cu
  Cu4      1.0000 0.25138  0.88183  0.77106  Biso   1.000  Cu
  Cu5      1.0000 0.11817  0.36954  0.77106  Biso   1.000  Cu
  Cu6      1.0000 0.63046  0.74862  0.77106  Biso   1.000  Cu
  Cu7      1.0000 0.91804  0.21517  0.10440  Biso   1.000  Cu
  Cu8      1.0000 0.78483  0.70288  0.10440  Biso   1.000  Cu
  Cu9      1.0000 0.29712  0.08196  0.10440  Biso   1.000  Cu
  Cu10     1.0000 0.41529  0.45150  0.56227  Biso   1.000  Cu
  Cu11     1.0000 0.54850  0.96379  0.56227  Biso   1.000  Cu
  Cu12     1.0000 0.03621  0.58471  0.56227  Biso   1.000  Cu
  Cu13     1.0000 0.08196  0.78483  0.89560  Biso   1.000  Cu
  Cu14     1.0000 0.21517  0.29712  0.89560  Biso   1.000  Cu
  Cu15     1.0000 0.70288  0.91804  0.89560  Biso   1.000  Cu
  Cu16     1.0000 0.74862  0.11817  0.22894  Biso   1.000  Cu
  Cu17     1.0000 0.88183  0.63046  0.22894  Biso   1.000  Cu
  Cu18     1.0000 0.36954  0.25138  0.22894  Biso   1.000  Cu
  N1       1.0000 0.50592  0.54674  0.61296  Biso   1.000  N
  N2       1.0000 0.45326  0.95918  0.61296  Biso   1.000  N
  N3       1.0000 0.04082  0.49408  0.61296  Biso   1.000  N
  N4       1.0000 0.17259  0.88007  0.94629  Biso   1.000  N
  N5       1.0000 0.11993  0.29251  0.94629  Biso   1.000  N
  N6       1.0000 0.70749  0.82741  0.94629  Biso   1.000  N
  N7       1.0000 0.83925  0.21341  0.27963  Biso   1.000  N
  N8       1.0000 0.78659  0.62585  0.27963  Biso   1.000  N
  N9       1.0000 0.37415  0.16075  0.27963  Biso   1.000  N
  N10      1.0000 0.49408  0.45326  0.38704  Biso   1.000  N
  N11      1.0000 0.54674  0.04082  0.38704  Biso   1.000  N
  N12      1.0000 0.95918  0.50592  0.38704  Biso   1.000  N
  N13      1.0000 0.16075  0.78659  0.72037  Biso   1.000  N
  N14      1.0000 0.21341  0.37415  0.72037  Biso   1.000  N
  N15      1.0000 0.62585  0.83925  0.72037  Biso   1.000  N
  N16      1.0000 0.82741  0.11993  0.05371  Biso   1.000  N
  N17      1.0000 0.88007  0.70749  0.05371  Biso   1.000  N
  N18      1.0000 0.29251  0.17259  0.05371  Biso   1.000  N
  N19      1.0000 0.57483  0.58578  0.56074  Biso   1.000  N
  N20      1.0000 0.41422  0.98905  0.56074  Biso   1.000  N
  N21      1.0000 0.01095  0.42517  0.56074  Biso   1.000  N
  N22      1.0000 0.24150  0.91911  0.89407  Biso   1.000  N
  N23      1.0000 0.08089  0.32238  0.89407  Biso   1.000  N
  N24      1.0000 0.67762  0.75850  0.89407  Biso   1.000  N
  N25      1.0000 0.90816  0.25245  0.22741  Biso   1.000  N
  N26      1.0000 0.74755  0.65572  0.22741  Biso   1.000  N
  N27      1.0000 0.34428  0.09184  0.22741  Biso   1.000  N
  N28      1.0000 0.42517  0.41422  0.43926  Biso   1.000  N
  N29      1.0000 0.58578  0.01095  0.43926  Biso   1.000  N
  N30      1.0000 0.98905  0.57483  0.43926  Biso   1.000  N
  N31      1.0000 0.09184  0.74755  0.77259  Biso   1.000  N
  N32      1.0000 0.25245  0.34428  0.77259  Biso   1.000  N
  N33      1.0000 0.65572  0.90816  0.77259  Biso   1.000  N
  N34      1.0000 0.75850  0.08089  0.10593  Biso   1.000  N
  N35      1.0000 0.91911  0.67762  0.10593  Biso   1.000  N
  N36      1.0000 0.32238  0.24150  0.10593  Biso   1.000  N
  N37      1.0000 0.58931  0.65539  0.68979  Biso   1.000  N
  N38      1.0000 0.34461  0.93392  0.68979  Biso   1.000  N
  N39      1.0000 0.06608  0.41069  0.68979  Biso   1.000  N
  N40      1.0000 0.25598  0.98872  0.02312  Biso   1.000  N
  N41      1.0000 0.01128  0.26725  0.02312  Biso   1.000  N
  N42      1.0000 0.73275  0.74402  0.02312  Biso   1.000  N
  N43      1.0000 0.92264  0.32206  0.35646  Biso   1.000  N
  N44      1.0000 0.67794  0.60059  0.35646  Biso   1.000  N
  N45      1.0000 0.39941  0.07736  0.35646  Biso   1.000  N
  N46      1.0000 0.41069  0.34461  0.31021  Biso   1.000  N
  N47      1.0000 0.65539  0.06608  0.31021  Biso   1.000  N
  N48      1.0000 0.93392  0.58931  0.31021  Biso   1.000  N
  N49      1.0000 0.07736  0.67794  0.64354  Biso   1.000  N
  N50      1.0000 0.32206  0.39941  0.64354  Biso   1.000  N
  N51      1.0000 0.60059  0.92264  0.64354  Biso   1.000  N
  N52      1.0000 0.74402  0.01128  0.97688  Biso   1.000  N
  N53      1.0000 0.98872  0.73275  0.97688  Biso   1.000  N
  N54      1.0000 0.26725  0.25598  0.97688  Biso   1.000  N
  C1       1.0000 0.51759  0.59026  0.68947  Biso   1.000  C
  C2       1.0000 0.40974  0.92733  0.68947  Biso   1.000  C
  C3       1.0000 0.07267  0.48241  0.68947  Biso   1.000  C
  C4       1.0000 0.18426  0.92359  0.02280  Biso   1.000  C
  C5       1.0000 0.07641  0.26066  0.02280  Biso   1.000  C
  C6       1.0000 0.73934  0.81574  0.02280  Biso   1.000  C
  C7       1.0000 0.85092  0.25693  0.35614  Biso   1.000  C
  C8       1.0000 0.74307  0.59400  0.35614  Biso   1.000  C
  C9       1.0000 0.40600  0.14908  0.35614  Biso   1.000  C
  C10      1.0000 0.48241  0.40974  0.31053  Biso   1.000  C
  C11      1.0000 0.59026  0.07267  0.31053  Biso   1.000  C
  C12      1.0000 0.92733  0.51759  0.31053  Biso   1.000  C
  C13      1.0000 0.14908  0.74307  0.64386  Biso   1.000  C
  C14      1.0000 0.25693  0.40600  0.64386  Biso   1.000  C
  C15      1.0000 0.59400  0.85092  0.64386  Biso   1.000  C
  C16      1.0000 0.81574  0.07641  0.97720  Biso   1.000  C
  C17      1.0000 0.92359  0.73934  0.97720  Biso   1.000  C
  C18      1.0000 0.26066  0.18426  0.97720  Biso   1.000  C
  C19      1.0000 0.45900  0.56970  0.76660  Biso   1.000  C
  C20      1.0000 0.43030  0.88930  0.76660  Biso   1.000  C
  C21      1.0000 0.11070  0.54100  0.76660  Biso   1.000  C
  C22      1.0000 0.12567  0.90303  0.09993  Biso   1.000  C
  C23      1.0000 0.09697  0.22263  0.09993  Biso   1.000  C
  C24      1.0000 0.77737  0.87433  0.09993  Biso   1.000  C
  C25      1.0000 0.79233  0.23637  0.43327  Biso   1.000  C
  C26      1.0000 0.76363  0.55597  0.43327  Biso   1.000  C
  C27      1.0000 0.44403  0.20767  0.43327  Biso   1.000  C
  C28      1.0000 0.54100  0.43030  0.23340  Biso   1.000  C
  C29      1.0000 0.56970  0.11070  0.23340  Biso   1.000  C
  C30      1.0000 0.88930  0.45900  0.23340  Biso   1.000  C
  C31      1.0000 0.20767  0.76363  0.56673  Biso   1.000  C
  C32      1.0000 0.23637  0.44403  0.56673  Biso   1.000  C
  C33      1.0000 0.55597  0.79233  0.56673  Biso   1.000  C
  C34      1.0000 0.87433  0.09697  0.90007  Biso   1.000  C
  C35      1.0000 0.90303  0.77737  0.90007  Biso   1.000  C
  C36      1.0000 0.22263  0.12567  0.90007  Biso   1.000  C
  H1       1.0000 0.48090  0.56120  0.82530  Biso   1.000  H
  H2       1.0000 0.43880  0.91970  0.82530  Biso   1.000  H
  H3       1.0000 0.08030  0.51910  0.82530  Biso   1.000  H
  H4       1.0000 0.14757  0.89453  0.15863  Biso   1.000  H
  H5       1.0000 0.10547  0.25303  0.15863  Biso   1.000  H
  H6       1.0000 0.74697  0.85243  0.15863  Biso   1.000  H
  H7       1.0000 0.81423  0.22787  0.49197  Biso   1.000  H
  H8       1.0000 0.77213  0.58637  0.49197  Biso   1.000  H
  H9       1.0000 0.41363  0.18577  0.49197  Biso   1.000  H
  H10      1.0000 0.51910  0.43880  0.17470  Biso   1.000  H
  H11      1.0000 0.56120  0.08030  0.17470  Biso   1.000  H
  H12      1.0000 0.91970  0.48090  0.17470  Biso   1.000  H
  H13      1.0000 0.18577  0.77213  0.50803  Biso   1.000  H
  H14      1.0000 0.22787  0.41363  0.50803  Biso   1.000  H
  H15      1.0000 0.58637  0.81423  0.50803  Biso   1.000  H
  H16      1.0000 0.85243  0.10547  0.84137  Biso   1.000  H
  H17      1.0000 0.89453  0.74697  0.84137  Biso   1.000  H
  H18      1.0000 0.25303  0.14757  0.84137  Biso   1.000  H
  H19      1.0000 0.41130  0.51960  0.75050  Biso   1.000  H
  H20      1.0000 0.48040  0.89170  0.75050  Biso   1.000  H
  H21      1.0000 0.10830  0.58870  0.75050  Biso   1.000  H
  H22      1.0000 0.07797  0.85293  0.08383  Biso   1.000  H
  H23      1.0000 0.14707  0.22503  0.08383  Biso   1.000  H
  H24      1.0000 0.77497  0.92203  0.08383  Biso   1.000  H
  H25      1.0000 0.74463  0.18627  0.41717  Biso   1.000  H
  H26      1.0000 0.81373  0.55837  0.41717  Biso   1.000  H
  H27      1.0000 0.44163  0.25537  0.41717  Biso   1.000  H
  H28      1.0000 0.58870  0.48040  0.24950  Biso   1.000  H
  H29      1.0000 0.51960  0.10830  0.24950  Biso   1.000  H
  H30      1.0000 0.89170  0.41130  0.24950  Biso   1.000  H
  H31      1.0000 0.25537  0.81373  0.58283  Biso   1.000  H
  H32      1.0000 0.18627  0.44163  0.58283  Biso   1.000  H
  H33      1.0000 0.55837  0.74463  0.58283  Biso   1.000  H
  H34      1.0000 0.92203  0.14707  0.91617  Biso   1.000  H
  H35      1.0000 0.85293  0.77497  0.91617  Biso   1.000  H
  H36      1.0000 0.22503  0.07797  0.91617  Biso   1.000  H
  C37      1.0000 0.43600  0.63090  0.78480  Biso   1.000  C
  C38      1.0000 0.36910  0.80510  0.78480  Biso   1.000  C
  C39      1.0000 0.19490  0.56400  0.78480  Biso   1.000  C
  C40      1.0000 0.10267  0.96423  0.11813  Biso   1.000  C
  C41      1.0000 0.03577  0.13843  0.11813  Biso   1.000  C
  C42      1.0000 0.86157  0.89733  0.11813  Biso   1.000  C
  C43      1.0000 0.76933  0.29757  0.45147  Biso   1.000  C
  C44      1.0000 0.70243  0.47177  0.45147  Biso   1.000  C
  C45      1.0000 0.52823  0.23067  0.45147  Biso   1.000  C
  C46      1.0000 0.56400  0.36910  0.21520  Biso   1.000  C
  C47      1.0000 0.63090  0.19490  0.21520  Biso   1.000  C
  C48      1.0000 0.80510  0.43600  0.21520  Biso   1.000  C
  C49      1.0000 0.23067  0.70243  0.54853  Biso   1.000  C
  C50      1.0000 0.29757  0.52823  0.54853  Biso   1.000  C
  C51      1.0000 0.47177  0.76933  0.54853  Biso   1.000  C
  C52      1.0000 0.89733  0.03577  0.88187  Biso   1.000  C
  C53      1.0000 0.96423  0.86157  0.88187  Biso   1.000  C
  C54      1.0000 0.13843  0.10267  0.88187  Biso   1.000  C
  H37      1.0000 0.39910  0.61430  0.83760  Biso   1.000  H
  H38      1.0000 0.38570  0.78480  0.83760  Biso   1.000  H
  H39      1.0000 0.21520  0.60090  0.83760  Biso   1.000  H
  H40      1.0000 0.06577  0.94763  0.17093  Biso   1.000  H
  H41      1.0000 0.05237  0.11813  0.17093  Biso   1.000  H
  H42      1.0000 0.88187  0.93423  0.17093  Biso   1.000  H
  H43      1.0000 0.73243  0.28097  0.50427  Biso   1.000  H
  H44      1.0000 0.71903  0.45147  0.50427  Biso   1.000  H
  H45      1.0000 0.54853  0.26757  0.50427  Biso   1.000  H
  H46      1.0000 0.60090  0.38570  0.16240  Biso   1.000  H
  H47      1.0000 0.61430  0.21520  0.16240  Biso   1.000  H
  H48      1.0000 0.78480  0.39910  0.16240  Biso   1.000  H
  H49      1.0000 0.26757  0.71903  0.49573  Biso   1.000  H
  H50      1.0000 0.28097  0.54853  0.49573  Biso   1.000  H
  H51      1.0000 0.45147  0.73243  0.49573  Biso   1.000  H
  H52      1.0000 0.93423  0.05237  0.82907  Biso   1.000  H
  H53      1.0000 0.94763  0.88187  0.82907  Biso   1.000  H
  H54      1.0000 0.11813  0.06577  0.82907  Biso   1.000  H
  H55      1.0000 0.41120  0.63740  0.72840  Biso   1.000  H
  H56      1.0000 0.36260  0.77380  0.72840  Biso   1.000  H
  H57      1.0000 0.22620  0.58880  0.72840  Biso   1.000  H
  H58      1.0000 0.07787  0.97073  0.06173  Biso   1.000  H
  H59      1.0000 0.02927  0.10713  0.06173  Biso   1.000  H
  H60      1.0000 0.89287  0.92213  0.06173  Biso   1.000  H
  H61      1.0000 0.74453  0.30407  0.39507  Biso   1.000  H
  H62      1.0000 0.69593  0.44047  0.39507  Biso   1.000  H
  H63      1.0000 0.55953  0.25547  0.39507  Biso   1.000  H
  H64      1.0000 0.58880  0.36260  0.27160  Biso   1.000  H
  H65      1.0000 0.63740  0.22620  0.27160  Biso   1.000  H
  H66      1.0000 0.77380  0.41120  0.27160  Biso   1.000  H
  H67      1.0000 0.25547  0.69593  0.60493  Biso   1.000  H
  H68      1.0000 0.30407  0.55953  0.60493  Biso   1.000  H
  H69      1.0000 0.44047  0.74453  0.60493  Biso   1.000  H
  H70      1.0000 0.92213  0.02927  0.93827  Biso   1.000  H
  H71      1.0000 0.97073  0.89287  0.93827  Biso   1.000  H
  H72      1.0000 0.10713  0.07787  0.93827  Biso   1.000  H
  H73      1.0000 0.48290  0.68090  0.80030  Biso   1.000  H
  H74      1.0000 0.31910  0.80200  0.80030  Biso   1.000  H
  H75      1.0000 0.19800  0.51710  0.80030  Biso   1.000  H
  H76      1.0000 0.14957  0.01423  0.13363  Biso   1.000  H
  H77      1.0000 0.98577  0.13533  0.13363  Biso   1.000  H
  H78      1.0000 0.86467  0.85043  0.13363  Biso   1.000  H
  H79      1.0000 0.81623  0.34757  0.46697  Biso   1.000  H
  H80      1.0000 0.65243  0.46867  0.46697  Biso   1.000  H
  H81      1.0000 0.53133  0.18377  0.46697  Biso   1.000  H
  H82      1.0000 0.51710  0.31910  0.19970  Biso   1.000  H
  H83      1.0000 0.68090  0.19800  0.19970  Biso   1.000  H
  H84      1.0000 0.80200  0.48290  0.19970  Biso   1.000  H
  H85      1.0000 0.18377  0.65243  0.53303  Biso   1.000  H
  H86      1.0000 0.34757  0.53133  0.53303  Biso   1.000  H
  H87      1.0000 0.46867  0.81623  0.53303  Biso   1.000  H
  H88      1.0000 0.85043  0.98577  0.86637  Biso   1.000  H
  H89      1.0000 0.01423  0.86467  0.86637  Biso   1.000  H
  H90      1.0000 0.13533  0.14957  0.86637  Biso   1.000  H
  C55      1.0000 0.62218  0.64973  0.60906  Biso   1.000  C
  C56      1.0000 0.35027  0.97245  0.60906  Biso   1.000  C
  C57      1.0000 0.02755  0.37782  0.60906  Biso   1.000  C
  C58      1.0000 0.28885  0.98306  0.94239  Biso   1.000  C
  C59      1.0000 0.01694  0.30578  0.94239  Biso   1.000  C
  C60      1.0000 0.69422  0.71115  0.94239  Biso   1.000  C
  C61      1.0000 0.95551  0.31640  0.27573  Biso   1.000  C
  C62      1.0000 0.68360  0.63912  0.27573  Biso   1.000  C
  C63      1.0000 0.36088  0.04449  0.27573  Biso   1.000  C
  C64      1.0000 0.37782  0.35027  0.39094  Biso   1.000  C
  C65      1.0000 0.64973  0.02755  0.39094  Biso   1.000  C
  C66      1.0000 0.97245  0.62218  0.39094  Biso   1.000  C
  C67      1.0000 0.04449  0.68360  0.72427  Biso   1.000  C
  C68      1.0000 0.31640  0.36088  0.72427  Biso   1.000  C
  C69      1.0000 0.63912  0.95551  0.72427  Biso   1.000  C
  C70      1.0000 0.71115  0.01694  0.05761  Biso   1.000  C
  C71      1.0000 0.98306  0.69422  0.05761  Biso   1.000  C
  C72      1.0000 0.30578  0.28885  0.05761  Biso   1.000  C
  C73      1.0000 0.70332  0.70859  0.57890  Biso   1.000  C
  C74      1.0000 0.29141  0.99473  0.57890  Biso   1.000  C
  C75      1.0000 0.00527  0.29668  0.57890  Biso   1.000  C
  C76      1.0000 0.36999  0.04192  0.91223  Biso   1.000  C
  C77      1.0000 0.95808  0.32806  0.91223  Biso   1.000  C
  C78      1.0000 0.67194  0.63001  0.91223  Biso   1.000  C
  C79      1.0000 0.03665  0.37526  0.24557  Biso   1.000  C
  C80      1.0000 0.62474  0.66140  0.24557  Biso   1.000  C
  C81      1.0000 0.33860  0.96335  0.24557  Biso   1.000  C
  C82      1.0000 0.29668  0.29141  0.42110  Biso   1.000  C
  C83      1.0000 0.70859  0.00527  0.42110  Biso   1.000  C
  C84      1.0000 0.99473  0.70332  0.42110  Biso   1.000  C
  C85      1.0000 0.96335  0.62474  0.75443  Biso   1.000  C
  C86      1.0000 0.37526  0.33860  0.75443  Biso   1.000  C
  C87      1.0000 0.66140  0.03665  0.75443  Biso   1.000  C
  C88      1.0000 0.63001  0.95808  0.08777  Biso   1.000  C
  C89      1.0000 0.04192  0.67194  0.08777  Biso   1.000  C
  C90      1.0000 0.32806  0.36999  0.08777  Biso   1.000  C
  H91      1.0000 0.70730  0.76060  0.57360  Biso   1.000  H
  H92      1.0000 0.23940  0.94670  0.57360  Biso   1.000  H
  H93      1.0000 0.05330  0.29270  0.57360  Biso   1.000  H
  H94      1.0000 0.37397  0.09393  0.90693  Biso   1.000  H
  H95      1.0000 0.90607  0.28003  0.90693  Biso   1.000  H
  H96      1.0000 0.71997  0.62603  0.90693  Biso   1.000  H
  H97      1.0000 0.04063  0.42727  0.24027  Biso   1.000  H
  H98      1.0000 0.57273  0.61337  0.24027  Biso   1.000  H
  H99      1.0000 0.38663  0.95937  0.24027  Biso   1.000  H
  H100     1.0000 0.29270  0.23940  0.42640  Biso   1.000  H
  H101     1.0000 0.76060  0.05330  0.42640  Biso   1.000  H
  H102     1.0000 0.94670  0.70730  0.42640  Biso   1.000  H
  H103     1.0000 0.95937  0.57273  0.75973  Biso   1.000  H
  H104     1.0000 0.42727  0.38663  0.75973  Biso   1.000  H
  H105     1.0000 0.61337  0.04063  0.75973  Biso   1.000  H
  H106     1.0000 0.62603  0.90607  0.09307  Biso   1.000  H
  H107     1.0000 0.09393  0.71997  0.09307  Biso   1.000  H
  H108     1.0000 0.28003  0.37397  0.09307  Biso   1.000  H
  H109     1.0000 0.71330  0.69410  0.51580  Biso   1.000  H
  H110     1.0000 0.30590  0.01920  0.51580  Biso   1.000  H
  H111     1.0000 0.98080  0.28670  0.51580  Biso   1.000  H
  H112     1.0000 0.37997  0.02743  0.84913  Biso   1.000  H
  H113     1.0000 0.97257  0.35253  0.84913  Biso   1.000  H
  H114     1.0000 0.64747  0.62003  0.84913  Biso   1.000  H
  H115     1.0000 0.04663  0.36077  0.18247  Biso   1.000  H
  H116     1.0000 0.63923  0.68587  0.18247  Biso   1.000  H
  H117     1.0000 0.31413  0.95337  0.18247  Biso   1.000  H
  H118     1.0000 0.28670  0.30590  0.48420  Biso   1.000  H
  H119     1.0000 0.69410  0.98080  0.48420  Biso   1.000  H
  H120     1.0000 0.01920  0.71330  0.48420  Biso   1.000  H
  H121     1.0000 0.95337  0.63923  0.81753  Biso   1.000  H
  H122     1.0000 0.36077  0.31413  0.81753  Biso   1.000  H
  H123     1.0000 0.68587  0.04663  0.81753  Biso   1.000  H
  H124     1.0000 0.62003  0.97257  0.15087  Biso   1.000  H
  H125     1.0000 0.02743  0.64747  0.15087  Biso   1.000  H
  H126     1.0000 0.35253  0.37997  0.15087  Biso   1.000  H
  C91      1.0000 0.76590  0.71480  0.64630  Biso   1.000  C
  C92      1.0000 0.28520  0.05110  0.64630  Biso   1.000  C
  C93      1.0000 0.94890  0.23410  0.64630  Biso   1.000  C
  C94      1.0000 0.43257  0.04813  0.97963  Biso   1.000  C
  C95      1.0000 0.95187  0.38443  0.97963  Biso   1.000  C
  C96      1.0000 0.61557  0.56743  0.97963  Biso   1.000  C
  C97      1.0000 0.09923  0.38147  0.31297  Biso   1.000  C
  C98      1.0000 0.61853  0.71777  0.31297  Biso   1.000  C
  C99      1.0000 0.28223  0.90077  0.31297  Biso   1.000  C
  C100     1.0000 0.23410  0.28520  0.35370  Biso   1.000  C
  C101     1.0000 0.71480  0.94890  0.35370  Biso   1.000  C
  C102     1.0000 0.05110  0.76590  0.35370  Biso   1.000  C
  C103     1.0000 0.90077  0.61853  0.68703  Biso   1.000  C
  C104     1.0000 0.38147  0.28223  0.68703  Biso   1.000  C
  C105     1.0000 0.71777  0.09923  0.68703  Biso   1.000  C
  C106     1.0000 0.56743  0.95187  0.02037  Biso   1.000  C
  C107     1.0000 0.04813  0.61557  0.02037  Biso   1.000  C
  C108     1.0000 0.38443  0.43257  0.02037  Biso   1.000  C
  H127     1.0000 0.81770  0.75440  0.62310  Biso   1.000  H
  H128     1.0000 0.24560  0.06330  0.62310  Biso   1.000  H
  H129     1.0000 0.93670  0.18230  0.62310  Biso   1.000  H
  H130     1.0000 0.48437  0.08773  0.95643  Biso   1.000  H
  H131     1.0000 0.91227  0.39663  0.95643  Biso   1.000  H
  H132     1.0000 0.60337  0.51563  0.95643  Biso   1.000  H
  H133     1.0000 0.15103  0.42107  0.28977  Biso   1.000  H
  H134     1.0000 0.57893  0.72997  0.28977  Biso   1.000  H
  H135     1.0000 0.27003  0.84897  0.28977  Biso   1.000  H
  H136     1.0000 0.18230  0.24560  0.37690  Biso   1.000  H
  H137     1.0000 0.75440  0.93670  0.37690  Biso   1.000  H
  H138     1.0000 0.06330  0.81770  0.37690  Biso   1.000  H
  H139     1.0000 0.84897  0.57893  0.71023  Biso   1.000  H
  H140     1.0000 0.42107  0.27003  0.71023  Biso   1.000  H
  H141     1.0000 0.72997  0.15103  0.71023  Biso   1.000  H
  H142     1.0000 0.51563  0.91227  0.04357  Biso   1.000  H
  H143     1.0000 0.08773  0.60337  0.04357  Biso   1.000  H
  H144     1.0000 0.39663  0.48437  0.04357  Biso   1.000  H
  H145     1.0000 0.76340  0.66390  0.65050  Biso   1.000  H
  H146     1.0000 0.33610  0.09950  0.65050  Biso   1.000  H
  H147     1.0000 0.90050  0.23660  0.65050  Biso   1.000  H
  H148     1.0000 0.43007  0.99723  0.98383  Biso   1.000  H
  H149     1.0000 0.00277  0.43283  0.98383  Biso   1.000  H
  H150     1.0000 0.56717  0.56993  0.98383  Biso   1.000  H
  H151     1.0000 0.09673  0.33057  0.31717  Biso   1.000  H
  H152     1.0000 0.66943  0.76617  0.31717  Biso   1.000  H
  H153     1.0000 0.23383  0.90327  0.31717  Biso   1.000  H
  H154     1.0000 0.23660  0.33610  0.34950  Biso   1.000  H
  H155     1.0000 0.66390  0.90050  0.34950  Biso   1.000  H
  H156     1.0000 0.09950  0.76340  0.34950  Biso   1.000  H
  H157     1.0000 0.90327  0.66943  0.68283  Biso   1.000  H
  H158     1.0000 0.33057  0.23383  0.68283  Biso   1.000  H
  H159     1.0000 0.76617  0.09673  0.68283  Biso   1.000  H
  H160     1.0000 0.56993  0.00277  0.01617  Biso   1.000  H
  H161     1.0000 0.99723  0.56717  0.01617  Biso   1.000  H
  H162     1.0000 0.43283  0.43007  0.01617  Biso   1.000  H
  H163     1.0000 0.75700  0.73010  0.70870  Biso   1.000  H
  H164     1.0000 0.26990  0.02690  0.70870  Biso   1.000  H
  H165     1.0000 0.97310  0.24300  0.70870  Biso   1.000  H
  H166     1.0000 0.42367  0.06343  0.04203  Biso   1.000  H
  H167     1.0000 0.93657  0.36023  0.04203  Biso   1.000  H
  H168     1.0000 0.63977  0.57633  0.04203  Biso   1.000  H
  H169     1.0000 0.09033  0.39677  0.37537  Biso   1.000  H
  H170     1.0000 0.60323  0.69357  0.37537  Biso   1.000  H
  H171     1.0000 0.30643  0.90967  0.37537  Biso   1.000  H
  H172     1.0000 0.24300  0.26990  0.29130  Biso   1.000  H
  H173     1.0000 0.73010  0.97310  0.29130  Biso   1.000  H
  H174     1.0000 0.02690  0.75700  0.29130  Biso   1.000  H
  H175     1.0000 0.90967  0.60323  0.62463  Biso   1.000  H
  H176     1.0000 0.39677  0.30643  0.62463  Biso   1.000  H
  H177     1.0000 0.69357  0.09033  0.62463  Biso   1.000  H
  H178     1.0000 0.57633  0.93657  0.95797  Biso   1.000  H
  H179     1.0000 0.06343  0.63977  0.95797  Biso   1.000  H
  H180     1.0000 0.36023  0.42367  0.95797  Biso   1.000  H
