data_image0
_cell_length_a       19.429
_cell_length_b       19.429
_cell_length_c       14.321
_cell_angle_alpha    90
_cell_angle_beta     90
_cell_angle_gamma    120

_symmetry_space_group_name_H-M    "P 1"
_symmetry_int_tables_number       1

loop_
  _symmetry_equiv_pos_as_xyz
  'x, y, z'

loop_
  _atom_site_label
  _atom_site_occupancy
  _atom_site_fract_x
  _atom_site_fract_y
  _atom_site_fract_z
  _atom_site_thermal_displace_type
  _atom_site_B_iso_or_equiv
  _atom_site_type_symbol
  Cu1      1.0000 0.58578  0.54990  0.43953  Biso   1.000  Cu
  Cu2      1.0000 0.45010  0.03588  0.43953  Biso   1.000  Cu
  Cu3      1.0000 0.96412  0.41422  0.43953  Biso   1.000  Cu
  Cu4      1.0000 0.25245  0.88323  0.77286  Biso   1.000  Cu
  Cu5      1.0000 0.11677  0.36921  0.77286  Biso   1.000  Cu
  Cu6      1.0000 0.63079  0.74755  0.77286  Biso   1.000  Cu
  Cu7      1.0000 0.91911  0.21657  0.10620  Biso   1.000  Cu
  Cu8      1.0000 0.78343  0.70255  0.10620  Biso   1.000  Cu
  Cu9      1.0000 0.29745  0.08089  0.10620  Biso   1.000  Cu
  Cu10     1.0000 0.41422  0.45010  0.56047  Biso   1.000  Cu
  Cu11     1.0000 0.54990  0.96412  0.56047  Biso   1.000  Cu
  Cu12     1.0000 0.03588  0.58578  0.56047  Biso   1.000  Cu
  Cu13     1.0000 0.08089  0.78343  0.89380  Biso   1.000  Cu
  Cu14     1.0000 0.21657  0.29745  0.89380  Biso   1.000  Cu
  Cu15     1.0000 0.70255  0.91911  0.89380  Biso   1.000  Cu
  Cu16     1.0000 0.74755  0.11677  0.22714  Biso   1.000  Cu
  Cu17     1.0000 0.88323  0.63079  0.22714  Biso   1.000  Cu
  Cu18     1.0000 0.36921  0.25245  0.22714  Biso   1.000  Cu
  N1       1.0000 0.50598  0.54499  0.61422  Biso   1.000  N
  N2       1.0000 0.45501  0.96099  0.61422  Biso   1.000  N
  N3       1.0000 0.03901  0.49402  0.61422  Biso   1.000  N
  N4       1.0000 0.17265  0.87832  0.94755  Biso   1.000  N
  N5       1.0000 0.12168  0.29432  0.94755  Biso   1.000  N
  N6       1.0000 0.70568  0.82735  0.94755  Biso   1.000  N
  N7       1.0000 0.83931  0.21166  0.28089  Biso   1.000  N
  N8       1.0000 0.78834  0.62766  0.28089  Biso   1.000  N
  N9       1.0000 0.37234  0.16069  0.28089  Biso   1.000  N
  N10      1.0000 0.49402  0.45501  0.38578  Biso   1.000  N
  N11      1.0000 0.54499  0.03901  0.38578  Biso   1.000  N
  N12      1.0000 0.96099  0.50598  0.38578  Biso   1.000  N
  N13      1.0000 0.16069  0.78834  0.71911  Biso   1.000  N
  N14      1.0000 0.21166  0.37234  0.71911  Biso   1.000  N
  N15      1.0000 0.62766  0.83931  0.71911  Biso   1.000  N
  N16      1.0000 0.82735  0.12168  0.05245  Biso   1.000  N
  N17      1.0000 0.87832  0.70568  0.05245  Biso   1.000  N
  N18      1.0000 0.29432  0.17265  0.05245  Biso   1.000  N
  N19      1.0000 0.57589  0.58486  0.56306  Biso   1.000  N
  N20      1.0000 0.41514  0.99103  0.56306  Biso   1.000  N
  N21      1.0000 0.00897  0.42411  0.56306  Biso   1.000  N
  N22      1.0000 0.24256  0.91819  0.89639  Biso   1.000  N
  N23      1.0000 0.08181  0.32436  0.89639  Biso   1.000  N
  N24      1.0000 0.67564  0.75744  0.89639  Biso   1.000  N
  N25      1.0000 0.90922  0.25153  0.22973  Biso   1.000  N
  N26      1.0000 0.74847  0.65770  0.22973  Biso   1.000  N
  N27      1.0000 0.34230  0.09078  0.22973  Biso   1.000  N
  N28      1.0000 0.42411  0.41514  0.43694  Biso   1.000  N
  N29      1.0000 0.58486  0.00897  0.43694  Biso   1.000  N
  N30      1.0000 0.99103  0.57589  0.43694  Biso   1.000  N
  N31      1.0000 0.09078  0.74847  0.77027  Biso   1.000  N
  N32      1.0000 0.25153  0.34230  0.77027  Biso   1.000  N
  N33      1.0000 0.65770  0.90922  0.77027  Biso   1.000  N
  N34      1.0000 0.75744  0.08181  0.10361  Biso   1.000  N
  N35      1.0000 0.91819  0.67564  0.10361  Biso   1.000  N
  N36      1.0000 0.32436  0.24256  0.10361  Biso   1.000  N
  N37      1.0000 0.59042  0.65345  0.69235  Biso   1.000  N
  N38      1.0000 0.34655  0.93697  0.69235  Biso   1.000  N
  N39      1.0000 0.06303  0.40958  0.69235  Biso   1.000  N
  N40      1.0000 0.25709  0.98678  0.02568  Biso   1.000  N
  N41      1.0000 0.01322  0.27030  0.02568  Biso   1.000  N
  N42      1.0000 0.72970  0.74291  0.02568  Biso   1.000  N
  N43      1.0000 0.92375  0.32012  0.35902  Biso   1.000  N
  N44      1.0000 0.67988  0.60364  0.35902  Biso   1.000  N
  N45      1.0000 0.39636  0.07625  0.35902  Biso   1.000  N
  N46      1.0000 0.40958  0.34655  0.30765  Biso   1.000  N
  N47      1.0000 0.65345  0.06303  0.30765  Biso   1.000  N
  N48      1.0000 0.93697  0.59042  0.30765  Biso   1.000  N
  N49      1.0000 0.07625  0.67988  0.64098  Biso   1.000  N
  N50      1.0000 0.32012  0.39636  0.64098  Biso   1.000  N
  N51      1.0000 0.60364  0.92375  0.64098  Biso   1.000  N
  N52      1.0000 0.74291  0.01322  0.97432  Biso   1.000  N
  N53      1.0000 0.98678  0.72970  0.97432  Biso   1.000  N
  N54      1.0000 0.27030  0.25709  0.97432  Biso   1.000  N
  C1       1.0000 0.51750  0.58779  0.69094  Biso   1.000  C
  C2       1.0000 0.41221  0.92971  0.69094  Biso   1.000  C
  C3       1.0000 0.07029  0.48250  0.69094  Biso   1.000  C
  C4       1.0000 0.18417  0.92112  0.02427  Biso   1.000  C
  C5       1.0000 0.07888  0.26304  0.02427  Biso   1.000  C
  C6       1.0000 0.73696  0.81583  0.02427  Biso   1.000  C
  C7       1.0000 0.85083  0.25446  0.35761  Biso   1.000  C
  C8       1.0000 0.74554  0.59638  0.35761  Biso   1.000  C
  C9       1.0000 0.40362  0.14917  0.35761  Biso   1.000  C
  C10      1.0000 0.48250  0.41221  0.30906  Biso   1.000  C
  C11      1.0000 0.58779  0.07029  0.30906  Biso   1.000  C
  C12      1.0000 0.92971  0.51750  0.30906  Biso   1.000  C
  C13      1.0000 0.14917  0.74554  0.64239  Biso   1.000  C
  C14      1.0000 0.25446  0.40362  0.64239  Biso   1.000  C
  C15      1.0000 0.59638  0.85083  0.64239  Biso   1.000  C
  C16      1.0000 0.81583  0.07888  0.97573  Biso   1.000  C
  C17      1.0000 0.92112  0.73696  0.97573  Biso   1.000  C
  C18      1.0000 0.26304  0.18417  0.97573  Biso   1.000  C
  C19      1.0000 0.45784  0.56611  0.76727  Biso   1.000  C
  C20      1.0000 0.43389  0.89173  0.76727  Biso   1.000  C
  C21      1.0000 0.10827  0.54216  0.76727  Biso   1.000  C
  C22      1.0000 0.12451  0.89944  0.10060  Biso   1.000  C
  C23      1.0000 0.10056  0.22506  0.10060  Biso   1.000  C
  C24      1.0000 0.77494  0.87549  0.10060  Biso   1.000  C
  C25      1.0000 0.79117  0.23278  0.43394  Biso   1.000  C
  C26      1.0000 0.76722  0.55840  0.43394  Biso   1.000  C
  C27      1.0000 0.44160  0.20883  0.43394  Biso   1.000  C
  C28      1.0000 0.54216  0.43389  0.23273  Biso   1.000  C
  C29      1.0000 0.56611  0.10827  0.23273  Biso   1.000  C
  C30      1.0000 0.89173  0.45784  0.23273  Biso   1.000  C
  C31      1.0000 0.20883  0.76722  0.56606  Biso   1.000  C
  C32      1.0000 0.23278  0.44160  0.56606  Biso   1.000  C
  C33      1.0000 0.55840  0.79117  0.56606  Biso   1.000  C
  C34      1.0000 0.87549  0.10056  0.89940  Biso   1.000  C
  C35      1.0000 0.89944  0.77494  0.89940  Biso   1.000  C
  C36      1.0000 0.22506  0.12451  0.89940  Biso   1.000  C
  H1       1.0000 0.48020  0.55800  0.82560  Biso   1.000  H
  H2       1.0000 0.44200  0.92220  0.82560  Biso   1.000  H
  H3       1.0000 0.07780  0.51980  0.82560  Biso   1.000  H
  H4       1.0000 0.14687  0.89133  0.15893  Biso   1.000  H
  H5       1.0000 0.10867  0.25553  0.15893  Biso   1.000  H
  H6       1.0000 0.74447  0.85313  0.15893  Biso   1.000  H
  H7       1.0000 0.81353  0.22467  0.49227  Biso   1.000  H
  H8       1.0000 0.77533  0.58887  0.49227  Biso   1.000  H
  H9       1.0000 0.41113  0.18647  0.49227  Biso   1.000  H
  H10      1.0000 0.51980  0.44200  0.17440  Biso   1.000  H
  H11      1.0000 0.55800  0.07780  0.17440  Biso   1.000  H
  H12      1.0000 0.92220  0.48020  0.17440  Biso   1.000  H
  H13      1.0000 0.18647  0.77533  0.50773  Biso   1.000  H
  H14      1.0000 0.22467  0.41113  0.50773  Biso   1.000  H
  H15      1.0000 0.58887  0.81353  0.50773  Biso   1.000  H
  H16      1.0000 0.85313  0.10867  0.84107  Biso   1.000  H
  H17      1.0000 0.89133  0.74447  0.84107  Biso   1.000  H
  H18      1.0000 0.25553  0.14687  0.84107  Biso   1.000  H
  H19      1.0000 0.40990  0.51510  0.75130  Biso   1.000  H
  H20      1.0000 0.48490  0.89480  0.75130  Biso   1.000  H
  H21      1.0000 0.10520  0.59010  0.75130  Biso   1.000  H
  H22      1.0000 0.07657  0.84843  0.08463  Biso   1.000  H
  H23      1.0000 0.15157  0.22813  0.08463  Biso   1.000  H
  H24      1.0000 0.77187  0.92343  0.08463  Biso   1.000  H
  H25      1.0000 0.74323  0.18177  0.41797  Biso   1.000  H
  H26      1.0000 0.81823  0.56147  0.41797  Biso   1.000  H
  H27      1.0000 0.43853  0.25677  0.41797  Biso   1.000  H
  H28      1.0000 0.59010  0.48490  0.24870  Biso   1.000  H
  H29      1.0000 0.51510  0.10520  0.24870  Biso   1.000  H
  H30      1.0000 0.89480  0.40990  0.24870  Biso   1.000  H
  H31      1.0000 0.25677  0.81823  0.58203  Biso   1.000  H
  H32      1.0000 0.18177  0.43853  0.58203  Biso   1.000  H
  H33      1.0000 0.56147  0.74323  0.58203  Biso   1.000  H
  H34      1.0000 0.92343  0.15157  0.91537  Biso   1.000  H
  H35      1.0000 0.84843  0.77187  0.91537  Biso   1.000  H
  H36      1.0000 0.22813  0.07657  0.91537  Biso   1.000  H
  C37      1.0000 0.43348  0.62816  0.78480  Biso   1.000  C
  C38      1.0000 0.37184  0.80532  0.78480  Biso   1.000  C
  C39      1.0000 0.19468  0.56652  0.78480  Biso   1.000  C
  C40      1.0000 0.10015  0.96149  0.11813  Biso   1.000  C
  C41      1.0000 0.03851  0.13865  0.11813  Biso   1.000  C
  C42      1.0000 0.86135  0.89985  0.11813  Biso   1.000  C
  C43      1.0000 0.76681  0.29483  0.45147  Biso   1.000  C
  C44      1.0000 0.70517  0.47199  0.45147  Biso   1.000  C
  C45      1.0000 0.52801  0.23319  0.45147  Biso   1.000  C
  C46      1.0000 0.56652  0.37184  0.21520  Biso   1.000  C
  C47      1.0000 0.62816  0.19468  0.21520  Biso   1.000  C
  C48      1.0000 0.80532  0.43348  0.21520  Biso   1.000  C
  C49      1.0000 0.23319  0.70517  0.54853  Biso   1.000  C
  C50      1.0000 0.29483  0.52801  0.54853  Biso   1.000  C
  C51      1.0000 0.47199  0.76681  0.54853  Biso   1.000  C
  C52      1.0000 0.89985  0.03851  0.88187  Biso   1.000  C
  C53      1.0000 0.96149  0.86135  0.88187  Biso   1.000  C
  C54      1.0000 0.13865  0.10015  0.88187  Biso   1.000  C
  H37      1.0000 0.39490  0.61050  0.83600  Biso   1.000  H
  H38      1.0000 0.38950  0.78440  0.83600  Biso   1.000  H
  H39      1.0000 0.21560  0.60510  0.83600  Biso   1.000  H
  H40      1.0000 0.06157  0.94383  0.16933  Biso   1.000  H
  H41      1.0000 0.05617  0.11773  0.16933  Biso   1.000  H
  H42      1.0000 0.88227  0.93843  0.16933  Biso   1.000  H
  H43      1.0000 0.72823  0.27717  0.50267  Biso   1.000  H
  H44      1.0000 0.72283  0.45107  0.50267  Biso   1.000  H
  H45      1.0000 0.54893  0.27177  0.50267  Biso   1.000  H
  H46      1.0000 0.60510  0.38950  0.16400  Biso   1.000  H
  H47      1.0000 0.61050  0.21560  0.16400  Biso   1.000  H
  H48      1.0000 0.78440  0.39490  0.16400  Biso   1.000  H
  H49      1.0000 0.27177  0.72283  0.49733  Biso   1.000  H
  H50      1.0000 0.27717  0.54893  0.49733  Biso   1.000  H
  H51      1.0000 0.45107  0.72823  0.49733  Biso   1.000  H
  H52      1.0000 0.93843  0.05617  0.83067  Biso   1.000  H
  H53      1.0000 0.94383  0.88227  0.83067  Biso   1.000  H
  H54      1.0000 0.11773  0.06157  0.83067  Biso   1.000  H
  H55      1.0000 0.40940  0.63520  0.72810  Biso   1.000  H
  H56      1.0000 0.36480  0.77420  0.72810  Biso   1.000  H
  H57      1.0000 0.22580  0.59060  0.72810  Biso   1.000  H
  H58      1.0000 0.07607  0.96853  0.06143  Biso   1.000  H
  H59      1.0000 0.03147  0.10753  0.06143  Biso   1.000  H
  H60      1.0000 0.89247  0.92393  0.06143  Biso   1.000  H
  H61      1.0000 0.74273  0.30187  0.39477  Biso   1.000  H
  H62      1.0000 0.69813  0.44087  0.39477  Biso   1.000  H
  H63      1.0000 0.55913  0.25727  0.39477  Biso   1.000  H
  H64      1.0000 0.59060  0.36480  0.27190  Biso   1.000  H
  H65      1.0000 0.63520  0.22580  0.27190  Biso   1.000  H
  H66      1.0000 0.77420  0.40940  0.27190  Biso   1.000  H
  H67      1.0000 0.25727  0.69813  0.60523  Biso   1.000  H
  H68      1.0000 0.30187  0.55913  0.60523  Biso   1.000  H
  H69      1.0000 0.44087  0.74273  0.60523  Biso   1.000  H
  H70      1.0000 0.92393  0.03147  0.93857  Biso   1.000  H
  H71      1.0000 0.96853  0.89247  0.93857  Biso   1.000  H
  H72      1.0000 0.10753  0.07607  0.93857  Biso   1.000  H
  H73      1.0000 0.48040  0.67880  0.80160  Biso   1.000  H
  H74      1.0000 0.32120  0.80160  0.80160  Biso   1.000  H
  H75      1.0000 0.19840  0.51960  0.80160  Biso   1.000  H
  H76      1.0000 0.14707  0.01213  0.13493  Biso   1.000  H
  H77      1.0000 0.98787  0.13493  0.13493  Biso   1.000  H
  H78      1.0000 0.86507  0.85293  0.13493  Biso   1.000  H
  H79      1.0000 0.81373  0.34547  0.46827  Biso   1.000  H
  H80      1.0000 0.65453  0.46827  0.46827  Biso   1.000  H
  H81      1.0000 0.53173  0.18627  0.46827  Biso   1.000  H
  H82      1.0000 0.51960  0.32120  0.19840  Biso   1.000  H
  H83      1.0000 0.67880  0.19840  0.19840  Biso   1.000  H
  H84      1.0000 0.80160  0.48040  0.19840  Biso   1.000  H
  H85      1.0000 0.18627  0.65453  0.53173  Biso   1.000  H
  H86      1.0000 0.34547  0.53173  0.53173  Biso   1.000  H
  H87      1.0000 0.46827  0.81373  0.53173  Biso   1.000  H
  H88      1.0000 0.85293  0.98787  0.86507  Biso   1.000  H
  H89      1.0000 0.01213  0.86507  0.86507  Biso   1.000  H
  H90      1.0000 0.13493  0.14707  0.86507  Biso   1.000  H
  C55      1.0000 0.62413  0.64872  0.61212  Biso   1.000  C
  C56      1.0000 0.35128  0.97541  0.61212  Biso   1.000  C
  C57      1.0000 0.02459  0.37587  0.61212  Biso   1.000  C
  C58      1.0000 0.29080  0.98205  0.94545  Biso   1.000  C
  C59      1.0000 0.01795  0.30874  0.94545  Biso   1.000  C
  C60      1.0000 0.69126  0.70920  0.94545  Biso   1.000  C
  C61      1.0000 0.95746  0.31539  0.27879  Biso   1.000  C
  C62      1.0000 0.68461  0.64208  0.27879  Biso   1.000  C
  C63      1.0000 0.35792  0.04254  0.27879  Biso   1.000  C
  C64      1.0000 0.37587  0.35128  0.38788  Biso   1.000  C
  C65      1.0000 0.64872  0.02459  0.38788  Biso   1.000  C
  C66      1.0000 0.97541  0.62413  0.38788  Biso   1.000  C
  C67      1.0000 0.04254  0.68461  0.72121  Biso   1.000  C
  C68      1.0000 0.31539  0.35792  0.72121  Biso   1.000  C
  C69      1.0000 0.64208  0.95746  0.72121  Biso   1.000  C
  C70      1.0000 0.70920  0.01795  0.05455  Biso   1.000  C
  C71      1.0000 0.98205  0.69126  0.05455  Biso   1.000  C
  C72      1.0000 0.30874  0.29080  0.05455  Biso   1.000  C
  C73      1.0000 0.70645  0.70876  0.58259  Biso   1.000  C
  C74      1.0000 0.29124  0.99769  0.58259  Biso   1.000  C
  C75      1.0000 0.00231  0.29355  0.58259  Biso   1.000  C
  C76      1.0000 0.37312  0.04209  0.91592  Biso   1.000  C
  C77      1.0000 0.95791  0.33102  0.91592  Biso   1.000  C
  C78      1.0000 0.66898  0.62688  0.91592  Biso   1.000  C
  C79      1.0000 0.03978  0.37543  0.24926  Biso   1.000  C
  C80      1.0000 0.62457  0.66436  0.24926  Biso   1.000  C
  C81      1.0000 0.33564  0.96022  0.24926  Biso   1.000  C
  C82      1.0000 0.29355  0.29124  0.41741  Biso   1.000  C
  C83      1.0000 0.70876  0.00231  0.41741  Biso   1.000  C
  C84      1.0000 0.99769  0.70645  0.41741  Biso   1.000  C
  C85      1.0000 0.96022  0.62457  0.75074  Biso   1.000  C
  C86      1.0000 0.37543  0.33564  0.75074  Biso   1.000  C
  C87      1.0000 0.66436  0.03978  0.75074  Biso   1.000  C
  C88      1.0000 0.62688  0.95791  0.08408  Biso   1.000  C
  C89      1.0000 0.04209  0.66898  0.08408  Biso   1.000  C
  C90      1.0000 0.33102  0.37312  0.08408  Biso   1.000  C
  H91      1.0000 0.70940  0.76070  0.57370  Biso   1.000  H
  H92      1.0000 0.23930  0.94870  0.57370  Biso   1.000  H
  H93      1.0000 0.05130  0.29060  0.57370  Biso   1.000  H
  H94      1.0000 0.37607  0.09403  0.90703  Biso   1.000  H
  H95      1.0000 0.90597  0.28203  0.90703  Biso   1.000  H
  H96      1.0000 0.71797  0.62393  0.90703  Biso   1.000  H
  H97      1.0000 0.04273  0.42737  0.24037  Biso   1.000  H
  H98      1.0000 0.57263  0.61537  0.24037  Biso   1.000  H
  H99      1.0000 0.38463  0.95727  0.24037  Biso   1.000  H
  H100     1.0000 0.29060  0.23930  0.42630  Biso   1.000  H
  H101     1.0000 0.76070  0.05130  0.42630  Biso   1.000  H
  H102     1.0000 0.94870  0.70940  0.42630  Biso   1.000  H
  H103     1.0000 0.95727  0.57263  0.75963  Biso   1.000  H
  H104     1.0000 0.42737  0.38463  0.75963  Biso   1.000  H
  H105     1.0000 0.61537  0.04273  0.75963  Biso   1.000  H
  H106     1.0000 0.62393  0.90597  0.09297  Biso   1.000  H
  H107     1.0000 0.09403  0.71797  0.09297  Biso   1.000  H
  H108     1.0000 0.28203  0.37607  0.09297  Biso   1.000  H
  H109     1.0000 0.71810  0.69250  0.52180  Biso   1.000  H
  H110     1.0000 0.30750  0.02560  0.52180  Biso   1.000  H
  H111     1.0000 0.97440  0.28190  0.52180  Biso   1.000  H
  H112     1.0000 0.38477  0.02583  0.85513  Biso   1.000  H
  H113     1.0000 0.97417  0.35893  0.85513  Biso   1.000  H
  H114     1.0000 0.64107  0.61523  0.85513  Biso   1.000  H
  H115     1.0000 0.05143  0.35917  0.18847  Biso   1.000  H
  H116     1.0000 0.64083  0.69227  0.18847  Biso   1.000  H
  H117     1.0000 0.30773  0.94857  0.18847  Biso   1.000  H
  H118     1.0000 0.28190  0.30750  0.47820  Biso   1.000  H
  H119     1.0000 0.69250  0.97440  0.47820  Biso   1.000  H
  H120     1.0000 0.02560  0.71810  0.47820  Biso   1.000  H
  H121     1.0000 0.94857  0.64083  0.81153  Biso   1.000  H
  H122     1.0000 0.35917  0.30773  0.81153  Biso   1.000  H
  H123     1.0000 0.69227  0.05143  0.81153  Biso   1.000  H
  H124     1.0000 0.61523  0.97417  0.14487  Biso   1.000  H
  H125     1.0000 0.02583  0.64107  0.14487  Biso   1.000  H
  H126     1.0000 0.35893  0.38477  0.14487  Biso   1.000  H
  C91      1.0000 0.76919  0.71850  0.65278  Biso   1.000  C
  C92      1.0000 0.28150  0.05069  0.65278  Biso   1.000  C
  C93      1.0000 0.94931  0.23081  0.65278  Biso   1.000  C
  C94      1.0000 0.43586  0.05183  0.98611  Biso   1.000  C
  C95      1.0000 0.94817  0.38402  0.98611  Biso   1.000  C
  C96      1.0000 0.61598  0.56414  0.98611  Biso   1.000  C
  C97      1.0000 0.10252  0.38517  0.31945  Biso   1.000  C
  C98      1.0000 0.61483  0.71736  0.31945  Biso   1.000  C
  C99      1.0000 0.28264  0.89748  0.31945  Biso   1.000  C
  C100     1.0000 0.23081  0.28150  0.34722  Biso   1.000  C
  C101     1.0000 0.71850  0.94931  0.34722  Biso   1.000  C
  C102     1.0000 0.05069  0.76919  0.34722  Biso   1.000  C
  C103     1.0000 0.89748  0.61483  0.68055  Biso   1.000  C
  C104     1.0000 0.38517  0.28264  0.68055  Biso   1.000  C
  C105     1.0000 0.71736  0.10252  0.68055  Biso   1.000  C
  C106     1.0000 0.56414  0.94817  0.01389  Biso   1.000  C
  C107     1.0000 0.05183  0.61598  0.01389  Biso   1.000  C
  C108     1.0000 0.38402  0.43586  0.01389  Biso   1.000  C
  H127     1.0000 0.82180  0.75840  0.63000  Biso   1.000  H
  H128     1.0000 0.24160  0.06340  0.63000  Biso   1.000  H
  H129     1.0000 0.93660  0.17820  0.63000  Biso   1.000  H
  H130     1.0000 0.48847  0.09173  0.96333  Biso   1.000  H
  H131     1.0000 0.90827  0.39673  0.96333  Biso   1.000  H
  H132     1.0000 0.60327  0.51153  0.96333  Biso   1.000  H
  H133     1.0000 0.15513  0.42507  0.29667  Biso   1.000  H
  H134     1.0000 0.57493  0.73007  0.29667  Biso   1.000  H
  H135     1.0000 0.26993  0.84487  0.29667  Biso   1.000  H
  H136     1.0000 0.17820  0.24160  0.37000  Biso   1.000  H
  H137     1.0000 0.75840  0.93660  0.37000  Biso   1.000  H
  H138     1.0000 0.06340  0.82180  0.37000  Biso   1.000  H
  H139     1.0000 0.84487  0.57493  0.70333  Biso   1.000  H
  H140     1.0000 0.42507  0.26993  0.70333  Biso   1.000  H
  H141     1.0000 0.73007  0.15513  0.70333  Biso   1.000  H
  H142     1.0000 0.51153  0.90827  0.03667  Biso   1.000  H
  H143     1.0000 0.09173  0.60327  0.03667  Biso   1.000  H
  H144     1.0000 0.39673  0.48847  0.03667  Biso   1.000  H
  H145     1.0000 0.76750  0.66760  0.66090  Biso   1.000  H
  H146     1.0000 0.33240  0.09990  0.66090  Biso   1.000  H
  H147     1.0000 0.90010  0.23250  0.66090  Biso   1.000  H
  H148     1.0000 0.43417  0.00093  0.99423  Biso   1.000  H
  H149     1.0000 0.99907  0.43323  0.99423  Biso   1.000  H
  H150     1.0000 0.56677  0.56583  0.99423  Biso   1.000  H
  H151     1.0000 0.10083  0.33427  0.32757  Biso   1.000  H
  H152     1.0000 0.66573  0.76657  0.32757  Biso   1.000  H
  H153     1.0000 0.23343  0.89917  0.32757  Biso   1.000  H
  H154     1.0000 0.23250  0.33240  0.33910  Biso   1.000  H
  H155     1.0000 0.66760  0.90010  0.33910  Biso   1.000  H
  H156     1.0000 0.09990  0.76750  0.33910  Biso   1.000  H
  H157     1.0000 0.89917  0.66573  0.67243  Biso   1.000  H
  H158     1.0000 0.33427  0.23343  0.67243  Biso   1.000  H
  H159     1.0000 0.76657  0.10083  0.67243  Biso   1.000  H
  H160     1.0000 0.56583  0.99907  0.00577  Biso   1.000  H
  H161     1.0000 0.00093  0.56677  0.00577  Biso   1.000  H
  H162     1.0000 0.43323  0.43417  0.00577  Biso   1.000  H
  H163     1.0000 0.75880  0.73580  0.71280  Biso   1.000  H
  H164     1.0000 0.26420  0.02300  0.71280  Biso   1.000  H
  H165     1.0000 0.97700  0.24120  0.71280  Biso   1.000  H
  H166     1.0000 0.42547  0.06913  0.04613  Biso   1.000  H
  H167     1.0000 0.93087  0.35633  0.04613  Biso   1.000  H
  H168     1.0000 0.64367  0.57453  0.04613  Biso   1.000  H
  H169     1.0000 0.09213  0.40247  0.37947  Biso   1.000  H
  H170     1.0000 0.59753  0.68967  0.37947  Biso   1.000  H
  H171     1.0000 0.31033  0.90787  0.37947  Biso   1.000  H
  H172     1.0000 0.24120  0.26420  0.28720  Biso   1.000  H
  H173     1.0000 0.73580  0.97700  0.28720  Biso   1.000  H
  H174     1.0000 0.02300  0.75880  0.28720  Biso   1.000  H
  H175     1.0000 0.90787  0.59753  0.62053  Biso   1.000  H
  H176     1.0000 0.40247  0.31033  0.62053  Biso   1.000  H
  H177     1.0000 0.68967  0.09213  0.62053  Biso   1.000  H
  H178     1.0000 0.57453  0.93087  0.95387  Biso   1.000  H
  H179     1.0000 0.06913  0.64367  0.95387  Biso   1.000  H
  H180     1.0000 0.35633  0.42547  0.95387  Biso   1.000  H
  C109     1.0000 0.62080  0.46080  0.71420  Biso   1.000  C
  C110     1.0000 0.53920  0.16000  0.71420  Biso   1.000  C
  C111     1.0000 0.84000  0.37920  0.71420  Biso   1.000  C
  C112     1.0000 0.28747  0.79413  0.04753  Biso   1.000  C
  C113     1.0000 0.20587  0.49333  0.04753  Biso   1.000  C
  C114     1.0000 0.50667  0.71253  0.04753  Biso   1.000  C
  C115     1.0000 0.95413  0.12747  0.38087  Biso   1.000  C
  C116     1.0000 0.87253  0.82667  0.38087  Biso   1.000  C
  C117     1.0000 0.17333  0.04587  0.38087  Biso   1.000  C
  C118     1.0000 0.37920  0.53920  0.28580  Biso   1.000  C
  C119     1.0000 0.46080  0.84000  0.28580  Biso   1.000  C
  C120     1.0000 0.16000  0.62080  0.28580  Biso   1.000  C
  C121     1.0000 0.04587  0.87253  0.61913  Biso   1.000  C
  C122     1.0000 0.12747  0.17333  0.61913  Biso   1.000  C
  C123     1.0000 0.82667  0.95413  0.61913  Biso   1.000  C
  C124     1.0000 0.71253  0.20587  0.95247  Biso   1.000  C
  C125     1.0000 0.79413  0.50667  0.95247  Biso   1.000  C
  C126     1.0000 0.49333  0.28747  0.95247  Biso   1.000  C
  H181     1.0000 0.67160  0.47340  0.68550  Biso   1.000  H
  H182     1.0000 0.52660  0.19820  0.68550  Biso   1.000  H
  H183     1.0000 0.80180  0.32840  0.68550  Biso   1.000  H
  H184     1.0000 0.33827  0.80673  0.01883  Biso   1.000  H
  H185     1.0000 0.19327  0.53153  0.01883  Biso   1.000  H
  H186     1.0000 0.46847  0.66173  0.01883  Biso   1.000  H
  H187     1.0000 0.00493  0.14007  0.35217  Biso   1.000  H
  H188     1.0000 0.85993  0.86487  0.35217  Biso   1.000  H
  H189     1.0000 0.13513  0.99507  0.35217  Biso   1.000  H
  H190     1.0000 0.32840  0.52660  0.31450  Biso   1.000  H
  H191     1.0000 0.47340  0.80180  0.31450  Biso   1.000  H
  H192     1.0000 0.19820  0.67160  0.31450  Biso   1.000  H
  H193     1.0000 0.99507  0.85993  0.64783  Biso   1.000  H
  H194     1.0000 0.14007  0.13513  0.64783  Biso   1.000  H
  H195     1.0000 0.86487  0.00493  0.64783  Biso   1.000  H
  H196     1.0000 0.66173  0.19327  0.98117  Biso   1.000  H
  H197     1.0000 0.80673  0.46847  0.98117  Biso   1.000  H
  H198     1.0000 0.53153  0.33827  0.98117  Biso   1.000  H
  H199     1.0000 0.61610  0.50870  0.71590  Biso   1.000  H
  H200     1.0000 0.49130  0.10740  0.71590  Biso   1.000  H
  H201     1.0000 0.89260  0.38390  0.71590  Biso   1.000  H
  H202     1.0000 0.28277  0.84203  0.04923  Biso   1.000  H
  H203     1.0000 0.15797  0.44073  0.04923  Biso   1.000  H
  H204     1.0000 0.55927  0.71723  0.04923  Biso   1.000  H
  H205     1.0000 0.94943  0.17537  0.38257  Biso   1.000  H
  H206     1.0000 0.82463  0.77407  0.38257  Biso   1.000  H
  H207     1.0000 0.22593  0.05057  0.38257  Biso   1.000  H
  H208     1.0000 0.38390  0.49130  0.28410  Biso   1.000  H
  H209     1.0000 0.50870  0.89260  0.28410  Biso   1.000  H
  H210     1.0000 0.10740  0.61610  0.28410  Biso   1.000  H
  H211     1.0000 0.05057  0.82463  0.61743  Biso   1.000  H
  H212     1.0000 0.17537  0.22593  0.61743  Biso   1.000  H
  H213     1.0000 0.77407  0.94943  0.61743  Biso   1.000  H
  H214     1.0000 0.71723  0.15797  0.95077  Biso   1.000  H
  H215     1.0000 0.84203  0.55927  0.95077  Biso   1.000  H
  H216     1.0000 0.44073  0.28277  0.95077  Biso   1.000  H
  H217     1.0000 0.57700  0.41960  0.67750  Biso   1.000  H
  H218     1.0000 0.58040  0.15740  0.67750  Biso   1.000  H
  H219     1.0000 0.84260  0.42300  0.67750  Biso   1.000  H
  H220     1.0000 0.24367  0.75293  0.01083  Biso   1.000  H
  H221     1.0000 0.24707  0.49073  0.01083  Biso   1.000  H
  H222     1.0000 0.50927  0.75633  0.01083  Biso   1.000  H
  H223     1.0000 0.91033  0.08627  0.34417  Biso   1.000  H
  H224     1.0000 0.91373  0.82407  0.34417  Biso   1.000  H
  H225     1.0000 0.17593  0.08967  0.34417  Biso   1.000  H
  H226     1.0000 0.42300  0.58040  0.32250  Biso   1.000  H
  H227     1.0000 0.41960  0.84260  0.32250  Biso   1.000  H
  H228     1.0000 0.15740  0.57700  0.32250  Biso   1.000  H
  H229     1.0000 0.08967  0.91373  0.65583  Biso   1.000  H
  H230     1.0000 0.08627  0.17593  0.65583  Biso   1.000  H
  H231     1.0000 0.82407  0.91033  0.65583  Biso   1.000  H
  H232     1.0000 0.75633  0.24707  0.98917  Biso   1.000  H
  H233     1.0000 0.75293  0.50927  0.98917  Biso   1.000  H
  H234     1.0000 0.49073  0.24367  0.98917  Biso   1.000  H
  O1       1.0000 0.61767  0.43340  0.80463  Biso   1.000  O
  O2       1.0000 0.56660  0.18427  0.80463  Biso   1.000  O
  O3       1.0000 0.81573  0.38233  0.80463  Biso   1.000  O
  O4       1.0000 0.28434  0.76673  0.13796  Biso   1.000  O
  O5       1.0000 0.23327  0.51760  0.13796  Biso   1.000  O
  O6       1.0000 0.48240  0.71566  0.13796  Biso   1.000  O
  O7       1.0000 0.95100  0.10007  0.47130  Biso   1.000  O
  O8       1.0000 0.89993  0.85094  0.47130  Biso   1.000  O
  O9       1.0000 0.14906  0.04900  0.47130  Biso   1.000  O
  O10      1.0000 0.38233  0.56660  0.19537  Biso   1.000  O
  O11      1.0000 0.43340  0.81573  0.19537  Biso   1.000  O
  O12      1.0000 0.18427  0.61767  0.19537  Biso   1.000  O
  O13      1.0000 0.04900  0.89993  0.52870  Biso   1.000  O
  O14      1.0000 0.10007  0.14906  0.52870  Biso   1.000  O
  O15      1.0000 0.85094  0.95100  0.52870  Biso   1.000  O
  O16      1.0000 0.71566  0.23327  0.86204  Biso   1.000  O
  O17      1.0000 0.76673  0.48240  0.86204  Biso   1.000  O
  O18      1.0000 0.51760  0.28434  0.86204  Biso   1.000  O
  H235     1.0000 0.66570  0.45010  0.82010  Biso   1.000  H
  H236     1.0000 0.54990  0.21560  0.82010  Biso   1.000  H
  H237     1.0000 0.78440  0.33430  0.82010  Biso   1.000  H
  H238     1.0000 0.33237  0.78343  0.15343  Biso   1.000  H
  H239     1.0000 0.21657  0.54893  0.15343  Biso   1.000  H
  H240     1.0000 0.45107  0.66763  0.15343  Biso   1.000  H
  H241     1.0000 0.99903  0.11677  0.48677  Biso   1.000  H
  H242     1.0000 0.88323  0.88227  0.48677  Biso   1.000  H
  H243     1.0000 0.11773  0.00097  0.48677  Biso   1.000  H
  H244     1.0000 0.33430  0.54990  0.17990  Biso   1.000  H
  H245     1.0000 0.45010  0.78440  0.17990  Biso   1.000  H
  H246     1.0000 0.21560  0.66570  0.17990  Biso   1.000  H
  H247     1.0000 0.00097  0.88323  0.51323  Biso   1.000  H
  H248     1.0000 0.11677  0.11773  0.51323  Biso   1.000  H
  H249     1.0000 0.88227  0.99903  0.51323  Biso   1.000  H
  H250     1.0000 0.66763  0.21657  0.84657  Biso   1.000  H
  H251     1.0000 0.78343  0.45107  0.84657  Biso   1.000  H
  H252     1.0000 0.54893  0.33237  0.84657  Biso   1.000  H
