data_image0
_cell_length_a       20.2664
_cell_length_b       5.8748
_cell_length_c       13.1428
_cell_angle_alpha    90
_cell_angle_beta     90
_cell_angle_gamma    90

_symmetry_space_group_name_H-M    "P 1"
_symmetry_int_tables_number       1

loop_
  _symmetry_equiv_pos_as_xyz
  'x, y, z'

loop_
  _atom_site_label
  _atom_site_occupancy
  _atom_site_fract_x
  _atom_site_fract_y
  _atom_site_fract_z
  _atom_site_thermal_displace_type
  _atom_site_B_iso_or_equiv
  _atom_site_type_symbol
  C1       1.0000 0.00000  0.50000  0.27810  Biso   1.000  C
  C2       1.0000 0.50000  0.00000  0.22190  Biso   1.000  C
  C3       1.0000 0.00000  0.50000  0.72190  Biso   1.000  C
  C4       1.0000 0.50000  0.00000  0.77810  Biso   1.000  C
  H1       1.0000 0.01650  0.37940  0.23450  Biso   1.000  H
  H2       1.0000 0.98350  0.62060  0.23450  Biso   1.000  H
  H3       1.0000 0.48350  0.87940  0.26550  Biso   1.000  H
  H4       1.0000 0.51650  0.12060  0.26550  Biso   1.000  H
  H5       1.0000 0.98350  0.62060  0.76550  Biso   1.000  H
  H6       1.0000 0.01650  0.37940  0.76550  Biso   1.000  H
  H7       1.0000 0.51650  0.12060  0.73450  Biso   1.000  H
  H8       1.0000 0.48350  0.87940  0.73450  Biso   1.000  H
  C5       1.0000 0.05716  0.59280  0.34102  Biso   1.000  C
  C6       1.0000 0.94284  0.40720  0.34102  Biso   1.000  C
  C7       1.0000 0.44284  0.09280  0.15898  Biso   1.000  C
  C8       1.0000 0.55716  0.90720  0.15898  Biso   1.000  C
  C9       1.0000 0.94284  0.40720  0.65898  Biso   1.000  C
  C10      1.0000 0.05716  0.59280  0.65898  Biso   1.000  C
  C11      1.0000 0.55716  0.90720  0.84102  Biso   1.000  C
  C12      1.0000 0.44284  0.09280  0.84102  Biso   1.000  C
  H9       1.0000 0.04250  0.72280  0.38050  Biso   1.000  H
  H10      1.0000 0.95750  0.27720  0.38050  Biso   1.000  H
  H11      1.0000 0.45750  0.22280  0.11950  Biso   1.000  H
  H12      1.0000 0.54250  0.77720  0.11950  Biso   1.000  H
  H13      1.0000 0.95750  0.27720  0.61950  Biso   1.000  H
  H14      1.0000 0.04250  0.72280  0.61950  Biso   1.000  H
  H15      1.0000 0.54250  0.77720  0.88050  Biso   1.000  H
  H16      1.0000 0.45750  0.22280  0.88050  Biso   1.000  H
  H17      1.0000 0.07270  0.47690  0.38770  Biso   1.000  H
  H18      1.0000 0.92730  0.52310  0.38770  Biso   1.000  H
  H19      1.0000 0.42730  0.97690  0.11230  Biso   1.000  H
  H20      1.0000 0.57270  0.02310  0.11230  Biso   1.000  H
  H21      1.0000 0.92730  0.52310  0.61230  Biso   1.000  H
  H22      1.0000 0.07270  0.47690  0.61230  Biso   1.000  H
  H23      1.0000 0.57270  0.02310  0.88770  Biso   1.000  H
  H24      1.0000 0.42730  0.97690  0.88770  Biso   1.000  H
  C13      1.0000 0.11199  0.66280  0.27103  Biso   1.000  C
  C14      1.0000 0.88801  0.33720  0.27103  Biso   1.000  C
  C15      1.0000 0.38801  0.16280  0.22897  Biso   1.000  C
  C16      1.0000 0.61199  0.83720  0.22897  Biso   1.000  C
  C17      1.0000 0.88801  0.33720  0.72897  Biso   1.000  C
  C18      1.0000 0.11199  0.66280  0.72897  Biso   1.000  C
  C19      1.0000 0.61199  0.83720  0.77103  Biso   1.000  C
  C20      1.0000 0.38801  0.16280  0.77103  Biso   1.000  C
  C21      1.0000 0.16169  0.51370  0.24717  Biso   1.000  C
  C22      1.0000 0.83831  0.48630  0.24717  Biso   1.000  C
  C23      1.0000 0.33831  0.01370  0.25283  Biso   1.000  C
  C24      1.0000 0.66169  0.98630  0.25283  Biso   1.000  C
  C25      1.0000 0.83831  0.48630  0.75283  Biso   1.000  C
  C26      1.0000 0.16169  0.51370  0.75283  Biso   1.000  C
  C27      1.0000 0.66169  0.98630  0.74717  Biso   1.000  C
  C28      1.0000 0.33831  0.01370  0.74717  Biso   1.000  C
  H25      1.0000 0.16430  0.37340  0.27970  Biso   1.000  H
  H26      1.0000 0.83570  0.62660  0.27970  Biso   1.000  H
  H27      1.0000 0.33570  0.87340  0.22030  Biso   1.000  H
  H28      1.0000 0.66430  0.12660  0.22030  Biso   1.000  H
  H29      1.0000 0.83570  0.62660  0.72030  Biso   1.000  H
  H30      1.0000 0.16430  0.37340  0.72030  Biso   1.000  H
  H31      1.0000 0.66430  0.12660  0.77970  Biso   1.000  H
  H32      1.0000 0.33570  0.87340  0.77970  Biso   1.000  H
  C29      1.0000 0.20823  0.57330  0.17420  Biso   1.000  C
  C30      1.0000 0.79177  0.42670  0.17420  Biso   1.000  C
  C31      1.0000 0.29177  0.07330  0.32580  Biso   1.000  C
  C32      1.0000 0.70823  0.92670  0.32580  Biso   1.000  C
  C33      1.0000 0.79177  0.42670  0.82580  Biso   1.000  C
  C34      1.0000 0.20823  0.57330  0.82580  Biso   1.000  C
  C35      1.0000 0.70823  0.92670  0.67420  Biso   1.000  C
  C36      1.0000 0.29177  0.07330  0.67420  Biso   1.000  C
  H33      1.0000 0.24160  0.46960  0.15950  Biso   1.000  H
  H34      1.0000 0.75840  0.53040  0.15950  Biso   1.000  H
  H35      1.0000 0.25840  0.96960  0.34050  Biso   1.000  H
  H36      1.0000 0.74160  0.03040  0.34050  Biso   1.000  H
  H37      1.0000 0.75840  0.53040  0.84050  Biso   1.000  H
  H38      1.0000 0.24160  0.46960  0.84050  Biso   1.000  H
  H39      1.0000 0.74160  0.03040  0.65950  Biso   1.000  H
  H40      1.0000 0.25840  0.96960  0.65950  Biso   1.000  H
  C37      1.0000 0.16081  0.91900  0.14880  Biso   1.000  C
  C38      1.0000 0.83919  0.08100  0.14880  Biso   1.000  C
  C39      1.0000 0.33919  0.41900  0.35120  Biso   1.000  C
  C40      1.0000 0.66081  0.58100  0.35120  Biso   1.000  C
  C41      1.0000 0.83919  0.08100  0.85120  Biso   1.000  C
  C42      1.0000 0.16081  0.91900  0.85120  Biso   1.000  C
  C43      1.0000 0.66081  0.58100  0.64880  Biso   1.000  C
  C44      1.0000 0.33919  0.41900  0.64880  Biso   1.000  C
  H41      1.0000 0.15970  0.05930  0.11610  Biso   1.000  H
  H42      1.0000 0.84030  0.94070  0.11610  Biso   1.000  H
  H43      1.0000 0.34030  0.55930  0.38390  Biso   1.000  H
  H44      1.0000 0.65970  0.44070  0.38390  Biso   1.000  H
  H45      1.0000 0.84030  0.94070  0.88390  Biso   1.000  H
  H46      1.0000 0.15970  0.05930  0.88390  Biso   1.000  H
  H47      1.0000 0.65970  0.44070  0.61610  Biso   1.000  H
  H48      1.0000 0.34030  0.55930  0.61610  Biso   1.000  H
  C45      1.0000 0.11357  0.87230  0.22160  Biso   1.000  C
  C46      1.0000 0.88643  0.12770  0.22160  Biso   1.000  C
  C47      1.0000 0.38643  0.37230  0.27840  Biso   1.000  C
  C48      1.0000 0.61357  0.62770  0.27840  Biso   1.000  C
  C49      1.0000 0.88643  0.12770  0.77840  Biso   1.000  C
  C50      1.0000 0.11357  0.87230  0.77840  Biso   1.000  C
  C51      1.0000 0.61357  0.62770  0.72160  Biso   1.000  C
  C52      1.0000 0.38643  0.37230  0.72160  Biso   1.000  C
  H49      1.0000 0.08230  0.98240  0.23780  Biso   1.000  H
  H50      1.0000 0.91770  0.01760  0.23780  Biso   1.000  H
  H51      1.0000 0.41770  0.48240  0.26220  Biso   1.000  H
  H52      1.0000 0.58230  0.51760  0.26220  Biso   1.000  H
  H53      1.0000 0.91770  0.01760  0.76220  Biso   1.000  H
  H54      1.0000 0.08230  0.98240  0.76220  Biso   1.000  H
  H55      1.0000 0.58230  0.51760  0.73780  Biso   1.000  H
  H56      1.0000 0.41770  0.48240  0.73780  Biso   1.000  H
  C53      1.0000 0.32412  0.33090  0.00000  Biso   1.000  C
  C54      1.0000 0.67588  0.66910  0.00000  Biso   1.000  C
  C55      1.0000 0.17588  0.83090  0.50000  Biso   1.000  C
  C56      1.0000 0.82412  0.16910  0.50000  Biso   1.000  C
  C57      1.0000 0.99790  0.84700  0.00000  Biso   1.000  C
  C58      1.0000 0.00210  0.15300  0.00000  Biso   1.000  C
  C59      1.0000 0.50210  0.34700  0.50000  Biso   1.000  C
  C60      1.0000 0.49790  0.65300  0.50000  Biso   1.000  C
  H57      1.0000 0.95360  0.90410  0.00000  Biso   1.000  H
  H58      1.0000 0.04640  0.09590  0.00000  Biso   1.000  H
  H59      1.0000 0.54640  0.40410  0.50000  Biso   1.000  H
  H60      1.0000 0.45360  0.59590  0.50000  Biso   1.000  H
  H61      1.0000 0.02060  0.89950  0.05960  Biso   1.000  H
  H62      1.0000 0.97940  0.10050  0.05960  Biso   1.000  H
  H63      1.0000 0.47940  0.39950  0.44040  Biso   1.000  H
  H64      1.0000 0.52060  0.60050  0.44040  Biso   1.000  H
  H65      1.0000 0.97940  0.10050  0.94040  Biso   1.000  H
  H66      1.0000 0.02060  0.89950  0.94040  Biso   1.000  H
  H67      1.0000 0.52060  0.60050  0.55960  Biso   1.000  H
  H68      1.0000 0.47940  0.39950  0.55960  Biso   1.000  H
  C61      1.0000 0.06270  0.49280  0.00000  Biso   1.000  C
  C62      1.0000 0.93730  0.50720  0.00000  Biso   1.000  C
  C63      1.0000 0.43730  0.99280  0.50000  Biso   1.000  C
  C64      1.0000 0.56270  0.00720  0.50000  Biso   1.000  C
  H69      1.0000 0.09600  0.37640  0.00000  Biso   1.000  H
  H70      1.0000 0.90400  0.62360  0.00000  Biso   1.000  H
  H71      1.0000 0.40400  0.87640  0.50000  Biso   1.000  H
  H72      1.0000 0.59600  0.12360  0.50000  Biso   1.000  H
  H73      1.0000 0.06760  0.58570  0.05960  Biso   1.000  H
  H74      1.0000 0.93240  0.41430  0.05960  Biso   1.000  H
  H75      1.0000 0.43240  0.08570  0.44040  Biso   1.000  H
  H76      1.0000 0.56760  0.91430  0.44040  Biso   1.000  H
  H77      1.0000 0.93240  0.41430  0.94040  Biso   1.000  H
  H78      1.0000 0.06760  0.58570  0.94040  Biso   1.000  H
  H79      1.0000 0.56760  0.91430  0.55960  Biso   1.000  H
  H80      1.0000 0.43240  0.08570  0.55960  Biso   1.000  H
  H81      1.0000 0.10270  0.58050  0.00000  Biso   1.000  H
  H82      1.0000 0.89730  0.41950  0.00000  Biso   1.000  H
  H83      1.0000 0.39730  0.08050  0.50000  Biso   1.000  H
  H84      1.0000 0.60270  0.91950  0.50000  Biso   1.000  H
  Cu1      1.0000 0.27035  0.83872  0.00000  Biso   1.000  Cu
  Cu2      1.0000 0.72965  0.16128  0.00000  Biso   1.000  Cu
  Cu3      1.0000 0.22965  0.33872  0.50000  Biso   1.000  Cu
  Cu4      1.0000 0.77035  0.66128  0.50000  Biso   1.000  Cu
  N1       1.0000 0.20792  0.77130  0.12370  Biso   1.000  N
  N2       1.0000 0.79208  0.22870  0.12370  Biso   1.000  N
  N3       1.0000 0.29208  0.27130  0.37630  Biso   1.000  N
  N4       1.0000 0.70792  0.72870  0.37630  Biso   1.000  N
  N5       1.0000 0.79208  0.22870  0.87630  Biso   1.000  N
  N6       1.0000 0.20792  0.77130  0.87630  Biso   1.000  N
  N7       1.0000 0.70792  0.72870  0.62370  Biso   1.000  N
  N8       1.0000 0.29208  0.27130  0.62370  Biso   1.000  N
  N9       1.0000 0.29942  0.15230  0.00000  Biso   1.000  N
  N10      1.0000 0.70058  0.84770  0.00000  Biso   1.000  N
  N11      1.0000 0.20058  0.65230  0.50000  Biso   1.000  N
  N12      1.0000 0.79942  0.34770  0.50000  Biso   1.000  N
  N13      1.0000 0.99630  0.60150  0.00000  Biso   1.000  N
  N14      1.0000 0.00370  0.39850  0.00000  Biso   1.000  N
  N15      1.0000 0.50370  0.10150  0.50000  Biso   1.000  N
  N16      1.0000 0.49630  0.89850  0.50000  Biso   1.000  N
  O1       1.0000 0.93600  0.74380  0.00000  Biso   1.000  O
  O2       1.0000 0.06400  0.25620  0.00000  Biso   1.000  O
  O3       1.0000 0.56400  0.24380  0.50000  Biso   1.000  O
  O4       1.0000 0.43600  0.75620  0.50000  Biso   1.000  O
  S1       1.0000 0.35909  0.58631  0.00000  Biso   1.000  S
  S2       1.0000 0.64091  0.41369  0.00000  Biso   1.000  S
  S3       1.0000 0.14091  0.08631  0.50000  Biso   1.000  S
  S4       1.0000 0.85909  0.91369  0.50000  Biso   1.000  S
