data_image0
_cell_length_a       10.8597
_cell_length_b       11.8517
_cell_length_c       13.3478
_cell_angle_alpha    104.25
_cell_angle_beta     103.253
_cell_angle_gamma    114.883

_symmetry_space_group_name_H-M    "P 1"
_symmetry_int_tables_number       1

loop_
  _symmetry_equiv_pos_as_xyz
  'x, y, z'

loop_
  _atom_site_label
  _atom_site_occupancy
  _atom_site_fract_x
  _atom_site_fract_y
  _atom_site_fract_z
  _atom_site_thermal_displace_type
  _atom_site_B_iso_or_equiv
  _atom_site_type_symbol
  Cu1      1.0000 0.00140  0.58900  0.85820  Biso   1.000  Cu
  Cu2      1.0000 0.99860  0.41100  0.14180  Biso   1.000  Cu
  Si1      1.0000 0.50000  0.00000  0.50000  Biso   1.000  Si
  W1       1.0000 0.51930  0.91889  0.73797  Biso   1.000  W
  W2       1.0000 0.48070  0.08111  0.26203  Biso   1.000  W
  W3       1.0000 0.87519  0.10534  0.56086  Biso   1.000  W
  W4       1.0000 0.12481  0.89466  0.43914  Biso   1.000  W
  W5       1.0000 0.76459  0.24367  0.76342  Biso   1.000  W
  W6       1.0000 0.23541  0.75633  0.23658  Biso   1.000  W
  W7       1.0000 0.25280  0.67183  0.47400  Biso   1.000  W
  W8       1.0000 0.74720  0.32817  0.52600  Biso   1.000  W
  W9       1.0000 0.62856  0.77760  0.53302  Biso   1.000  W
  W10      1.0000 0.37144  0.22240  0.46698  Biso   1.000  W
  W11      1.0000 0.39033  0.14144  0.70338  Biso   1.000  W
  W12      1.0000 0.60967  0.85856  0.29662  Biso   1.000  W
  O1       1.0000 0.78790  0.00300  0.40510  Biso   1.000  O
  O2       1.0000 0.21210  0.99700  0.59490  Biso   1.000  O
  O3       1.0000 0.86900  0.24850  0.52460  Biso   1.000  O
  O4       1.0000 0.13100  0.75150  0.47540  Biso   1.000  O
  O5       1.0000 0.61000  0.75740  0.38380  Biso   1.000  O
  O6       1.0000 0.39000  0.24260  0.61620  Biso   1.000  O
  O7       1.0000 0.80800  0.94040  0.58150  Biso   1.000  O
  O8       1.0000 0.19200  0.05960  0.41850  Biso   1.000  O
  O9       1.0000 0.68650  0.67150  0.55130  Biso   1.000  O
  O10      1.0000 0.31350  0.32850  0.44870  Biso   1.000  O
  O11      1.0000 0.34100  0.76750  0.63240  Biso   1.000  O
  O12      1.0000 0.65900  0.23250  0.36760  Biso   1.000  O
  O13      1.0000 0.13670  0.51550  0.46000  Biso   1.000  O
  O14      1.0000 0.86330  0.48450  0.54000  Biso   1.000  O
  O15      1.0000 0.33740  0.20640  0.80000  Biso   1.000  O
  O16      1.0000 0.66260  0.79360  0.20000  Biso   1.000  O
  O17      1.0000 0.53050  0.88290  0.85350  Biso   1.000  O
  O18      1.0000 0.46950  0.11710  0.14650  Biso   1.000  O
  O19      1.0000 0.89160  0.36080  0.89010  Biso   1.000  O
  O20      1.0000 0.10840  0.63920  0.10990  Biso   1.000  O
  O21      1.0000 0.42220  0.66120  0.47830  Biso   1.000  O
  O22      1.0000 0.57780  0.33880  0.52170  Biso   1.000  O
  O23      1.0000 0.52790  0.05650  0.63430  Biso   1.000  O
  O24      1.0000 0.47210  0.94350  0.36570  Biso   1.000  O
  O25      1.0000 0.69680  0.08850  0.79800  Biso   1.000  O
  O26      1.0000 0.30320  0.91150  0.20200  Biso   1.000  O
  O27      1.0000 0.62170  0.84870  0.67460  Biso   1.000  O
  O28      1.0000 0.37830  0.15130  0.32540  Biso   1.000  O
  O29      1.0000 0.67170  0.12620  0.56310  Biso   1.000  O
  O30      1.0000 0.32830  0.87380  0.43690  Biso   1.000  O
  O31      1.0000 0.87900  0.18500  0.70350  Biso   1.000  O
  O32      1.0000 0.12100  0.81500  0.29650  Biso   1.000  O
  O33      1.0000 0.78900  0.35470  0.68030  Biso   1.000  O
  O34      1.0000 0.21100  0.64530  0.31970  Biso   1.000  O
  O35      1.0000 0.48530  0.88330  0.54510  Biso   1.000  O
  O36      1.0000 0.51470  0.11670  0.45490  Biso   1.000  O
  O37      1.0000 0.59850  0.25470  0.77320  Biso   1.000  O
  O38      1.0000 0.40150  0.74530  0.22680  Biso   1.000  O
  O39      1.0000 0.05390  0.16070  0.59090  Biso   1.000  O
  O40      1.0000 0.94610  0.83930  0.40910  Biso   1.000  O
  O41      1.0000 0.41440  0.01350  0.75400  Biso   1.000  O
  O42      1.0000 0.58560  0.98650  0.24600  Biso   1.000  O
  O43      1.0000 0.38830  0.04460  0.51750  Biso   1.000  O
  O44      1.0000 0.61170  0.95540  0.48250  Biso   1.000  O
  C1       1.0000 0.30390  0.51030  0.75960  Biso   1.000  C
  C2       1.0000 0.69610  0.48970  0.24040  Biso   1.000  C
  H1       1.0000 0.30190  0.45580  0.69520  Biso   1.000  H
  H2       1.0000 0.69810  0.54420  0.30480  Biso   1.000  H
  C3       1.0000 0.60700  0.57830  0.76130  Biso   1.000  C
  C4       1.0000 0.39300  0.42170  0.23870  Biso   1.000  C
  H3       1.0000 0.53980  0.56100  0.69400  Biso   1.000  H
  H4       1.0000 0.46020  0.43900  0.30600  Biso   1.000  H
  C5       1.0000 0.43140  0.58830  0.85510  Biso   1.000  C
  C6       1.0000 0.56860  0.41170  0.14490  Biso   1.000  C
  C7       1.0000 0.73730  0.58950  0.76700  Biso   1.000  C
  C8       1.0000 0.26270  0.41050  0.23300  Biso   1.000  C
  H5       1.0000 0.76160  0.58710  0.70440  Biso   1.000  H
  H6       1.0000 0.23840  0.41290  0.29560  Biso   1.000  H
  C9       1.0000 0.80330  0.61800  0.95210  Biso   1.000  C
  C10      1.0000 0.19670  0.38200  0.04790  Biso   1.000  C
  H7       1.0000 0.87260  0.63380  0.01750  Biso   1.000  H
  H8       1.0000 0.12740  0.36620  0.98250  Biso   1.000  H
  C11      1.0000 0.57270  0.59290  0.85730  Biso   1.000  C
  C12      1.0000 0.42730  0.40710  0.14270  Biso   1.000  C
  C13      1.0000 0.66920  0.61090  0.95680  Biso   1.000  C
  C14      1.0000 0.33080  0.38910  0.04320  Biso   1.000  C
  H9       1.0000 0.64860  0.61770  0.02120  Biso   1.000  H
  H10      1.0000 0.35140  0.38230  0.97880  Biso   1.000  H
  C15      1.0000 0.18210  0.51600  0.76300  Biso   1.000  C
  C16      1.0000 0.81790  0.48400  0.23700  Biso   1.000  C
  H11      1.0000 0.09780  0.46430  0.69780  Biso   1.000  H
  H12      1.0000 0.90220  0.53570  0.30220  Biso   1.000  H
  C17      1.0000 0.42450  0.66860  0.94580  Biso   1.000  C
  C18      1.0000 0.57550  0.33140  0.05420  Biso   1.000  C
  H13      1.0000 0.50890  0.72690  0.00970  Biso   1.000  H
  H14      1.0000 0.49110  0.27310  0.99030  Biso   1.000  H
  C19      1.0000 0.29600  0.66400  0.94310  Biso   1.000  C
  C20      1.0000 0.70400  0.33600  0.05690  Biso   1.000  C
  H15      1.0000 0.29420  0.71500  0.00720  Biso   1.000  H
  H16      1.0000 0.70580  0.28500  0.99280  Biso   1.000  H
  N1       1.0000 0.83540  0.60450  0.86180  Biso   1.000  N
  N2       1.0000 0.16460  0.39550  0.13820  Biso   1.000  N
  N3       1.0000 0.17520  0.58930  0.85230  Biso   1.000  N
  N4       1.0000 0.82480  0.41070  0.14770  Biso   1.000  N
  O45      1.0000 0.09200  0.78600  0.69600  Biso   1.000  O
  O46      1.0000 0.90800  0.21400  0.30400  Biso   1.000  O
  O47      1.0000 0.06500  0.92800  0.87100  Biso   1.000  O
  O48      1.0000 0.93500  0.07200  0.12900  Biso   1.000  O
