data_image0
_cell_length_a       14.399
_cell_length_b       13.545
_cell_length_c       15.325
_cell_angle_alpha    90
_cell_angle_beta     118.02
_cell_angle_gamma    90

_symmetry_space_group_name_H-M    "P 1"
_symmetry_int_tables_number       1

loop_
  _symmetry_equiv_pos_as_xyz
  'x, y, z'

loop_
  _atom_site_label
  _atom_site_occupancy
  _atom_site_fract_x
  _atom_site_fract_y
  _atom_site_fract_z
  _atom_site_thermal_displace_type
  _atom_site_B_iso_or_equiv
  _atom_site_type_symbol
  Br1      1.0000 0.56391  0.91928  0.14520  Biso   1.000  Br
  Br2      1.0000 0.93609  0.41928  0.35480  Biso   1.000  Br
  Br3      1.0000 0.43609  0.08072  0.85480  Biso   1.000  Br
  Br4      1.0000 0.06391  0.58072  0.64520  Biso   1.000  Br
  Cu1      1.0000 0.57667  0.83067  0.28124  Biso   1.000  Cu
  Cu2      1.0000 0.92333  0.33067  0.21876  Biso   1.000  Cu
  Cu3      1.0000 0.42333  0.16933  0.71876  Biso   1.000  Cu
  Cu4      1.0000 0.07667  0.66933  0.78124  Biso   1.000  Cu
  Cu5      1.0000 0.47095  0.73935  0.10776  Biso   1.000  Cu
  Cu6      1.0000 0.02905  0.23935  0.39224  Biso   1.000  Cu
  Cu7      1.0000 0.52905  0.26065  0.89224  Biso   1.000  Cu
  Cu8      1.0000 0.97095  0.76065  0.60776  Biso   1.000  Cu
  Cu9      1.0000 0.64176  0.77626  0.07694  Biso   1.000  Cu
  Cu10     1.0000 0.85824  0.27626  0.42306  Biso   1.000  Cu
  Cu11     1.0000 0.35824  0.22374  0.92306  Biso   1.000  Cu
  Cu12     1.0000 0.14176  0.72374  0.57694  Biso   1.000  Cu
  Br5      1.0000 0.42341  0.72590  0.24567  Biso   1.000  Br
  Br6      1.0000 0.07659  0.22590  0.25433  Biso   1.000  Br
  Br7      1.0000 0.57659  0.27410  0.75433  Biso   1.000  Br
  Br8      1.0000 0.92341  0.77410  0.74567  Biso   1.000  Br
  N1       1.0000 0.67350  0.84110  0.42750  Biso   1.000  N
  N2       1.0000 0.82650  0.34110  0.07250  Biso   1.000  N
  N3       1.0000 0.32650  0.15890  0.57250  Biso   1.000  N
  N4       1.0000 0.17350  0.65890  0.92750  Biso   1.000  N
  Br9      1.0000 0.61546  0.62207  0.14461  Biso   1.000  Br
  Br10     1.0000 0.88454  0.12207  0.35539  Biso   1.000  Br
  Br11     1.0000 0.38454  0.37793  0.85539  Biso   1.000  Br
  Br12     1.0000 0.11546  0.87793  0.64461  Biso   1.000  Br
  N5       1.0000 0.86920  0.74760  0.45670  Biso   1.000  N
  N6       1.0000 0.63080  0.24760  0.04330  Biso   1.000  N
  N7       1.0000 0.13080  0.25240  0.54330  Biso   1.000  N
  N8       1.0000 0.36920  0.75240  0.95670  Biso   1.000  N
  C1       1.0000 0.02400  0.73770  0.42430  Biso   1.000  C
  C2       1.0000 0.47600  0.23770  0.07570  Biso   1.000  C
  C3       1.0000 0.97600  0.26230  0.57570  Biso   1.000  C
  C4       1.0000 0.52400  0.76230  0.92430  Biso   1.000  C
  C5       1.0000 0.10400  0.67680  0.43160  Biso   1.000  C
  C6       1.0000 0.39600  0.17680  0.06840  Biso   1.000  C
  C7       1.0000 0.89600  0.32320  0.56840  Biso   1.000  C
  C8       1.0000 0.60400  0.82320  0.93160  Biso   1.000  C
  N9       1.0000 0.70890  0.31300  0.35160  Biso   1.000  N
  N10      1.0000 0.79110  0.81300  0.14840  Biso   1.000  N
  N11      1.0000 0.29110  0.68700  0.64840  Biso   1.000  N
  N12      1.0000 0.20890  0.18700  0.85160  Biso   1.000  N
  C9       1.0000 0.61520  0.89070  0.47680  Biso   1.000  C
  C10      1.0000 0.88480  0.39070  0.02320  Biso   1.000  C
  C11      1.0000 0.38480  0.10930  0.52320  Biso   1.000  C
  C12      1.0000 0.11520  0.60930  0.97680  Biso   1.000  C
  C13      1.0000 0.76930  0.89860  0.45040  Biso   1.000  C
  C14      1.0000 0.73070  0.39860  0.04960  Biso   1.000  C
  C15      1.0000 0.23070  0.10140  0.54960  Biso   1.000  C
  C16      1.0000 0.26930  0.60140  0.95040  Biso   1.000  C
  C17      1.0000 0.70450  0.74380  0.47370  Biso   1.000  C
  C18      1.0000 0.79550  0.24380  0.02630  Biso   1.000  C
  C19      1.0000 0.29550  0.25620  0.52630  Biso   1.000  C
  C20      1.0000 0.20450  0.75620  0.97370  Biso   1.000  C
  C21      1.0000 0.57430  0.99060  0.43390  Biso   1.000  C
  C22      1.0000 0.92570  0.49060  0.06610  Biso   1.000  C
  C23      1.0000 0.42570  0.00940  0.56610  Biso   1.000  C
  C24      1.0000 0.07430  0.50940  0.93390  Biso   1.000  C
  H1       1.0000 0.55680  0.84920  0.46880  Biso   1.000  H
  H2       1.0000 0.94320  0.34920  0.03120  Biso   1.000  H
  H3       1.0000 0.44320  0.15080  0.53120  Biso   1.000  H
  H4       1.0000 0.05680  0.65080  0.96880  Biso   1.000  H
  H5       1.0000 0.66240  0.89730  0.54700  Biso   1.000  H
  H6       1.0000 0.83760  0.39730  0.95300  Biso   1.000  H
  H7       1.0000 0.33760  0.10270  0.45300  Biso   1.000  H
  H8       1.0000 0.16240  0.60270  0.04700  Biso   1.000  H
  H9       1.0000 0.80980  0.90780  0.52130  Biso   1.000  H
  H10      1.0000 0.69020  0.40780  0.97870  Biso   1.000  H
  H11      1.0000 0.19020  0.09220  0.47870  Biso   1.000  H
  H12      1.0000 0.30980  0.59220  0.02130  Biso   1.000  H
  H13      1.0000 0.74990  0.96320  0.41980  Biso   1.000  H
  H14      1.0000 0.75010  0.46320  0.08020  Biso   1.000  H
  H15      1.0000 0.25010  0.03680  0.58020  Biso   1.000  H
  H16      1.0000 0.24990  0.53680  0.91980  Biso   1.000  H
  C25      1.0000 0.83520  0.84540  0.41260  Biso   1.000  C
  C26      1.0000 0.66480  0.34540  0.08740  Biso   1.000  C
  C27      1.0000 0.16480  0.15460  0.58740  Biso   1.000  C
  C28      1.0000 0.33520  0.65460  0.91260  Biso   1.000  C
  C29      1.0000 0.77200  0.68820  0.43290  Biso   1.000  C
  C30      1.0000 0.72800  0.18820  0.06710  Biso   1.000  C
  C31      1.0000 0.22800  0.31180  0.56710  Biso   1.000  C
  C32      1.0000 0.27200  0.81180  0.93290  Biso   1.000  C
  H17      1.0000 0.64220  0.70540  0.45980  Biso   1.000  H
  H18      1.0000 0.85780  0.20540  0.04020  Biso   1.000  H
  H19      1.0000 0.35780  0.29460  0.54020  Biso   1.000  H
  H20      1.0000 0.14220  0.79460  0.95980  Biso   1.000  H
  H21      1.0000 0.74530  0.75120  0.54480  Biso   1.000  H
  H22      1.0000 0.75470  0.25120  0.95520  Biso   1.000  H
  H23      1.0000 0.25470  0.24880  0.45520  Biso   1.000  H
  H24      1.0000 0.24530  0.74880  0.04480  Biso   1.000  H
  C33      1.0000 0.48040  0.00120  0.34570  Biso   1.000  C
  C34      1.0000 0.01960  0.50120  0.15430  Biso   1.000  C
  C35      1.0000 0.51960  0.99880  0.65430  Biso   1.000  C
  C36      1.0000 0.98040  0.49880  0.84570  Biso   1.000  C
  C37      1.0000 0.62700  0.07690  0.48050  Biso   1.000  C
  C38      1.0000 0.87300  0.57690  0.01950  Biso   1.000  C
  C39      1.0000 0.37300  0.92310  0.51950  Biso   1.000  C
  C40      1.0000 0.12700  0.42310  0.98050  Biso   1.000  C
  H25      1.0000 0.79480  0.83840  0.34140  Biso   1.000  H
  H26      1.0000 0.70520  0.33840  0.15860  Biso   1.000  H
  H27      1.0000 0.20520  0.16160  0.65860  Biso   1.000  H
  H28      1.0000 0.29480  0.66160  0.84140  Biso   1.000  H
  H29      1.0000 0.89680  0.88500  0.42660  Biso   1.000  H
  H30      1.0000 0.60320  0.38500  0.07340  Biso   1.000  H
  H31      1.0000 0.10320  0.11500  0.57340  Biso   1.000  H
  H32      1.0000 0.39680  0.61500  0.92660  Biso   1.000  H
  H33      1.0000 0.79160  0.62330  0.46300  Biso   1.000  H
  H34      1.0000 0.70840  0.12330  0.03700  Biso   1.000  H
  H35      1.0000 0.20840  0.37670  0.53700  Biso   1.000  H
  H36      1.0000 0.29160  0.87670  0.96300  Biso   1.000  H
  H37      1.0000 0.73120  0.67970  0.36190  Biso   1.000  H
  H38      1.0000 0.76880  0.17970  0.13810  Biso   1.000  H
  H39      1.0000 0.26880  0.32030  0.63810  Biso   1.000  H
  H40      1.0000 0.23120  0.82030  0.86190  Biso   1.000  H
  C41      1.0000 0.44200  0.09110  0.30750  Biso   1.000  C
  C42      1.0000 0.05800  0.59110  0.19250  Biso   1.000  C
  C43      1.0000 0.55800  0.90890  0.69250  Biso   1.000  C
  C44      1.0000 0.94200  0.40890  0.80750  Biso   1.000  C
  H41      1.0000 0.44350  0.94500  0.31260  Biso   1.000  H
  H42      1.0000 0.05650  0.44500  0.18740  Biso   1.000  H
  H43      1.0000 0.55650  0.05500  0.68740  Biso   1.000  H
  H44      1.0000 0.94350  0.55500  0.81260  Biso   1.000  H
  H45      1.0000 0.69040  0.07220  0.53840  Biso   1.000  H
  H46      1.0000 0.80960  0.57220  0.96160  Biso   1.000  H
  H47      1.0000 0.30960  0.92780  0.46160  Biso   1.000  H
  H48      1.0000 0.19040  0.42780  0.03840  Biso   1.000  H
  C45      1.0000 0.58890  0.16720  0.44400  Biso   1.000  C
  C46      1.0000 0.91110  0.66720  0.05600  Biso   1.000  C
  C47      1.0000 0.41110  0.83280  0.55600  Biso   1.000  C
  C48      1.0000 0.08890  0.33280  0.94400  Biso   1.000  C
  C49      1.0000 0.92130  0.69290  0.40830  Biso   1.000  C
  C50      1.0000 0.57870  0.19290  0.09170  Biso   1.000  C
  C51      1.0000 0.07870  0.30710  0.59170  Biso   1.000  C
  C52      1.0000 0.42130  0.80710  0.90830  Biso   1.000  C
  C53      1.0000 0.49560  0.17800  0.35460  Biso   1.000  C
  C54      1.0000 0.00440  0.67800  0.14540  Biso   1.000  C
  C55      1.0000 0.50440  0.82200  0.64540  Biso   1.000  C
  C56      1.0000 0.99560  0.32200  0.85460  Biso   1.000  C
  H49      1.0000 0.37910  0.09560  0.24900  Biso   1.000  H
  H50      1.0000 0.12090  0.59560  0.25100  Biso   1.000  H
  H51      1.0000 0.62090  0.90440  0.75100  Biso   1.000  H
  H52      1.0000 0.87910  0.40440  0.74900  Biso   1.000  H
  H53      1.0000 0.62490  0.22310  0.47850  Biso   1.000  H
  H54      1.0000 0.87510  0.72310  0.02150  Biso   1.000  H
  H55      1.0000 0.37510  0.77690  0.52150  Biso   1.000  H
  H56      1.0000 0.12490  0.27690  0.97850  Biso   1.000  H
  H57      1.0000 0.87380  0.68990  0.33780  Biso   1.000  H
  H58      1.0000 0.62620  0.18990  0.16220  Biso   1.000  H
  H59      1.0000 0.12620  0.31010  0.66220  Biso   1.000  H
  H60      1.0000 0.37380  0.81010  0.83780  Biso   1.000  H
  H61      1.0000 0.93410  0.62570  0.43320  Biso   1.000  H
  H62      1.0000 0.56590  0.12570  0.06680  Biso   1.000  H
  H63      1.0000 0.06590  0.37430  0.56680  Biso   1.000  H
  H64      1.0000 0.43410  0.87430  0.93320  Biso   1.000  H
  C57      1.0000 0.45430  0.27290  0.31350  Biso   1.000  C
  C58      1.0000 0.04570  0.77290  0.18650  Biso   1.000  C
  C59      1.0000 0.54570  0.72710  0.68650  Biso   1.000  C
  C60      1.0000 0.95430  0.22710  0.81350  Biso   1.000  C
  H65      1.0000 0.03320  0.80580  0.42930  Biso   1.000  H
  H66      1.0000 0.46680  0.30580  0.07070  Biso   1.000  H
  H67      1.0000 0.96680  0.19420  0.57070  Biso   1.000  H
  H68      1.0000 0.53320  0.69420  0.92930  Biso   1.000  H
  C61      1.0000 0.51710  0.34920  0.30250  Biso   1.000  C
  C62      1.0000 0.98290  0.84920  0.19750  Biso   1.000  C
  C63      1.0000 0.48290  0.65080  0.69750  Biso   1.000  C
  C64      1.0000 0.01710  0.15080  0.80250  Biso   1.000  C
  C65      1.0000 0.34630  0.29750  0.28080  Biso   1.000  C
  C66      1.0000 0.15370  0.79750  0.21920  Biso   1.000  C
  C67      1.0000 0.65370  0.70250  0.71920  Biso   1.000  C
  C68      1.0000 0.84630  0.20250  0.78080  Biso   1.000  C
  H69      1.0000 0.09440  0.60880  0.42650  Biso   1.000  H
  H70      1.0000 0.40560  0.10880  0.07350  Biso   1.000  H
  H71      1.0000 0.90560  0.39120  0.57350  Biso   1.000  H
  H72      1.0000 0.59440  0.89120  0.92650  Biso   1.000  H
  H73      1.0000 0.16760  0.70380  0.44150  Biso   1.000  H
  H74      1.0000 0.33240  0.20380  0.05850  Biso   1.000  H
  H75      1.0000 0.83240  0.29620  0.55850  Biso   1.000  H
  H76      1.0000 0.66760  0.79620  0.94150  Biso   1.000  H
  C69      1.0000 0.47290  0.43890  0.26110  Biso   1.000  C
  C70      1.0000 0.02710  0.93890  0.23890  Biso   1.000  C
  C71      1.0000 0.52710  0.56110  0.73890  Biso   1.000  C
  C72      1.0000 0.97290  0.06110  0.76110  Biso   1.000  C
  C73      1.0000 0.62260  0.32930  0.32810  Biso   1.000  C
  C74      1.0000 0.87740  0.82930  0.17190  Biso   1.000  C
  C75      1.0000 0.37740  0.67070  0.67190  Biso   1.000  C
  C76      1.0000 0.12260  0.17070  0.82810  Biso   1.000  C
  C77      1.0000 0.30860  0.38640  0.24320  Biso   1.000  C
  C78      1.0000 0.19140  0.88640  0.25680  Biso   1.000  C
  C79      1.0000 0.69140  0.61360  0.75680  Biso   1.000  C
  C80      1.0000 0.80860  0.11360  0.74320  Biso   1.000  C
  H77      1.0000 0.30170  0.25090  0.28580  Biso   1.000  H
  H78      1.0000 0.19830  0.75090  0.21420  Biso   1.000  H
  H79      1.0000 0.69830  0.74910  0.71420  Biso   1.000  H
  H80      1.0000 0.80170  0.24910  0.78580  Biso   1.000  H
  H81      1.0000 0.51340  0.48750  0.25230  Biso   1.000  H
  H82      1.0000 0.98660  0.98750  0.24770  Biso   1.000  H
  H83      1.0000 0.48660  0.51250  0.74770  Biso   1.000  H
  H84      1.0000 0.01340  0.01250  0.75230  Biso   1.000  H
  C81      1.0000 0.36980  0.45580  0.23350  Biso   1.000  C
  C82      1.0000 0.13020  0.95580  0.26650  Biso   1.000  C
  C83      1.0000 0.63020  0.54420  0.76650  Biso   1.000  C
  C84      1.0000 0.86980  0.04420  0.73350  Biso   1.000  C
  H85      1.0000 0.23830  0.40070  0.22330  Biso   1.000  H
  H86      1.0000 0.26170  0.90070  0.27670  Biso   1.000  H
  H87      1.0000 0.76170  0.59930  0.77670  Biso   1.000  H
  H88      1.0000 0.73830  0.09930  0.72330  Biso   1.000  H
  H89      1.0000 0.34080  0.51690  0.20710  Biso   1.000  H
  H90      1.0000 0.15920  0.01690  0.29290  Biso   1.000  H
  H91      1.0000 0.65920  0.48310  0.79290  Biso   1.000  H
  H92      1.0000 0.84080  0.98310  0.70710  Biso   1.000  H
  O1       1.0000 0.66120  0.41610  0.57290  Biso   1.000  O
  O2       1.0000 0.83880  0.91610  0.92710  Biso   1.000  O
  O3       1.0000 0.33880  0.58390  0.42710  Biso   1.000  O
  O4       1.0000 0.16120  0.08390  0.07290  Biso   1.000  O
  H93      1.0000 0.70940  0.46880  0.58150  Biso   1.000  H
  H94      1.0000 0.79060  0.96880  0.91850  Biso   1.000  H
  H95      1.0000 0.29060  0.53120  0.41850  Biso   1.000  H
  H96      1.0000 0.20940  0.03120  0.08150  Biso   1.000  H
  H97      1.0000 0.61120  0.43780  0.59370  Biso   1.000  H
  H98      1.0000 0.88880  0.93780  0.90630  Biso   1.000  H
  H99      1.0000 0.38880  0.56220  0.40630  Biso   1.000  H
  H100     1.0000 0.11120  0.06220  0.09370  Biso   1.000  H
