data_image0
_cell_length_a       17.108
_cell_length_b       11.577
_cell_length_c       4.951
_cell_angle_alpha    90
_cell_angle_beta     90
_cell_angle_gamma    90

_symmetry_space_group_name_H-M    "P 1"
_symmetry_int_tables_number       1

loop_
  _symmetry_equiv_pos_as_xyz
  'x, y, z'

loop_
  _atom_site_label
  _atom_site_occupancy
  _atom_site_fract_x
  _atom_site_fract_y
  _atom_site_fract_z
  _atom_site_thermal_displace_type
  _atom_site_B_iso_or_equiv
  _atom_site_type_symbol
  Cu1      1.0000 0.17420  0.75000  0.00000  Biso   1.000  Cu
  Cu2      1.0000 0.32580  0.75000  0.50000  Biso   1.000  Cu
  Cu3      1.0000 0.82580  0.25000  0.00000  Biso   1.000  Cu
  Cu4      1.0000 0.67420  0.25000  0.50000  Biso   1.000  Cu
  I1       1.0000 0.25000  0.90910  0.25000  Biso   1.000  I
  I2       1.0000 0.25000  0.59090  0.75000  Biso   1.000  I
  I3       1.0000 0.75000  0.09090  0.75000  Biso   1.000  I
  I4       1.0000 0.75000  0.40910  0.25000  Biso   1.000  I
  N1       1.0000 0.07840  0.67710  0.19860  Biso   1.000  N
  N2       1.0000 0.42160  0.82290  0.69860  Biso   1.000  N
  N3       1.0000 0.07840  0.82290  0.80140  Biso   1.000  N
  N4       1.0000 0.42160  0.67710  0.30140  Biso   1.000  N
  N5       1.0000 0.92160  0.32290  0.80140  Biso   1.000  N
  N6       1.0000 0.57840  0.17710  0.30140  Biso   1.000  N
  N7       1.0000 0.92160  0.17710  0.19860  Biso   1.000  N
  N8       1.0000 0.57840  0.32290  0.69860  Biso   1.000  N
  O1       1.0000 0.07620  0.58260  0.37350  Biso   1.000  O
  O2       1.0000 0.42380  0.91740  0.87350  Biso   1.000  O
  O3       1.0000 0.07620  0.91740  0.62650  Biso   1.000  O
  O4       1.0000 0.42380  0.58260  0.12650  Biso   1.000  O
  O5       1.0000 0.92380  0.41740  0.62650  Biso   1.000  O
  O6       1.0000 0.57620  0.08260  0.12650  Biso   1.000  O
  O7       1.0000 0.92380  0.08260  0.37350  Biso   1.000  O
  O8       1.0000 0.57620  0.41740  0.87350  Biso   1.000  O
  C1       1.0000 0.01130  0.70100  0.09200  Biso   1.000  C
  C2       1.0000 0.48870  0.79900  0.59200  Biso   1.000  C
  C3       1.0000 0.01130  0.79900  0.90800  Biso   1.000  C
  C4       1.0000 0.48870  0.70100  0.40800  Biso   1.000  C
  C5       1.0000 0.98870  0.29900  0.90800  Biso   1.000  C
  C6       1.0000 0.51130  0.20100  0.40800  Biso   1.000  C
  C7       1.0000 0.98870  0.20100  0.09200  Biso   1.000  C
  C8       1.0000 0.51130  0.29900  0.59200  Biso   1.000  C
  C9       1.0000 0.93680  0.64160  0.16850  Biso   1.000  C
  C10      1.0000 0.56320  0.85840  0.66850  Biso   1.000  C
  C11      1.0000 0.93680  0.85840  0.83150  Biso   1.000  C
  C12      1.0000 0.56320  0.64160  0.33150  Biso   1.000  C
  C13      1.0000 0.06320  0.35840  0.83150  Biso   1.000  C
  C14      1.0000 0.43680  0.14160  0.33150  Biso   1.000  C
  C15      1.0000 0.06320  0.14160  0.16850  Biso   1.000  C
  C16      1.0000 0.43680  0.35840  0.66850  Biso   1.000  C
  C17      1.0000 0.86460  0.71100  0.10120  Biso   1.000  C
  C18      1.0000 0.63540  0.78900  0.60120  Biso   1.000  C
  C19      1.0000 0.86460  0.78900  0.89880  Biso   1.000  C
  C20      1.0000 0.63540  0.71100  0.39880  Biso   1.000  C
  C21      1.0000 0.13540  0.28900  0.89880  Biso   1.000  C
  C22      1.0000 0.36460  0.21100  0.39880  Biso   1.000  C
  C23      1.0000 0.13540  0.21100  0.10120  Biso   1.000  C
  C24      1.0000 0.36460  0.28900  0.60120  Biso   1.000  C
