data_image0
_cell_length_a       7.2901
_cell_length_b       24.1108
_cell_length_c       8.9157
_cell_angle_alpha    90
_cell_angle_beta     109.664
_cell_angle_gamma    90

_symmetry_space_group_name_H-M    "P 1"
_symmetry_int_tables_number       1

loop_
  _symmetry_equiv_pos_as_xyz
  'x, y, z'

loop_
  _atom_site_label
  _atom_site_occupancy
  _atom_site_fract_x
  _atom_site_fract_y
  _atom_site_fract_z
  _atom_site_thermal_displace_type
  _atom_site_B_iso_or_equiv
  _atom_site_type_symbol
  I1       1.0000 0.58307  0.20701  0.27615  Biso   1.000  I
  I2       1.0000 0.41693  0.70701  0.22385  Biso   1.000  I
  I3       1.0000 0.41693  0.79299  0.72385  Biso   1.000  I
  I4       1.0000 0.58307  0.29299  0.77615  Biso   1.000  I
  I5       1.0000 0.57416  0.03355  0.24039  Biso   1.000  I
  I6       1.0000 0.42584  0.53355  0.25961  Biso   1.000  I
  I7       1.0000 0.42584  0.96645  0.75961  Biso   1.000  I
  I8       1.0000 0.57416  0.46645  0.74039  Biso   1.000  I
  I9       1.0000 0.14632  0.12100  0.41900  Biso   1.000  I
  I10      1.0000 0.85368  0.62100  0.08100  Biso   1.000  I
  I11      1.0000 0.85368  0.87900  0.58100  Biso   1.000  I
  I12      1.0000 0.14632  0.37900  0.91900  Biso   1.000  I
  Cu1      1.0000 0.50341  0.11256  0.41420  Biso   1.000  Cu
  Cu2      1.0000 0.49659  0.61256  0.08580  Biso   1.000  Cu
  Cu3      1.0000 0.49659  0.88744  0.58580  Biso   1.000  Cu
  Cu4      1.0000 0.50341  0.38744  0.91420  Biso   1.000  Cu
  Cu5      1.0000 0.77280  0.12170  0.22283  Biso   1.000  Cu
  Cu6      1.0000 0.22720  0.62170  0.27717  Biso   1.000  Cu
  Cu7      1.0000 0.22720  0.87830  0.77717  Biso   1.000  Cu
  Cu8      1.0000 0.77280  0.37830  0.72283  Biso   1.000  Cu
  P1       1.0000 0.70650  0.11020  0.66330  Biso   1.000  P
  P2       1.0000 0.29350  0.61020  0.83670  Biso   1.000  P
  P3       1.0000 0.29350  0.88980  0.33670  Biso   1.000  P
  P4       1.0000 0.70650  0.38980  0.16330  Biso   1.000  P
  N1       1.0000 0.81790  0.12124  0.99150  Biso   1.000  N
  N2       1.0000 0.18210  0.62124  0.50850  Biso   1.000  N
  N3       1.0000 0.18210  0.87876  0.00850  Biso   1.000  N
  N4       1.0000 0.81790  0.37876  0.49150  Biso   1.000  N
  N5       1.0000 0.03870  0.16490  0.84960  Biso   1.000  N
  N6       1.0000 0.96130  0.66490  0.65040  Biso   1.000  N
  N7       1.0000 0.96130  0.83510  0.15040  Biso   1.000  N
  N8       1.0000 0.03870  0.33510  0.34960  Biso   1.000  N
  N9       1.0000 0.02880  0.06330  0.86650  Biso   1.000  N
  N10      1.0000 0.97120  0.56330  0.63350  Biso   1.000  N
  N11      1.0000 0.97120  0.93670  0.13350  Biso   1.000  N
  N12      1.0000 0.02880  0.43670  0.36650  Biso   1.000  N
  C1       1.0000 0.87430  0.16650  0.69110  Biso   1.000  C
  C2       1.0000 0.12570  0.66650  0.80890  Biso   1.000  C
  C3       1.0000 0.12570  0.83350  0.30890  Biso   1.000  C
  C4       1.0000 0.87430  0.33350  0.19110  Biso   1.000  C
  H1       1.0000 0.93040  0.16590  0.60430  Biso   1.000  H
  H2       1.0000 0.06960  0.66590  0.89570  Biso   1.000  H
  H3       1.0000 0.06960  0.83410  0.39570  Biso   1.000  H
  H4       1.0000 0.93040  0.33410  0.10430  Biso   1.000  H
  H5       1.0000 0.80250  0.20180  0.68300  Biso   1.000  H
  H6       1.0000 0.19750  0.70180  0.81700  Biso   1.000  H
  H7       1.0000 0.19750  0.79820  0.31700  Biso   1.000  H
  H8       1.0000 0.80250  0.29820  0.18300  Biso   1.000  H
  C5       1.0000 0.65110  0.11800  0.84110  Biso   1.000  C
  C6       1.0000 0.34890  0.61800  0.65890  Biso   1.000  C
  C7       1.0000 0.34890  0.88200  0.15890  Biso   1.000  C
  C8       1.0000 0.65110  0.38200  0.34110  Biso   1.000  C
  H9       1.0000 0.57230  0.15210  0.83150  Biso   1.000  H
  H10      1.0000 0.42770  0.65210  0.66850  Biso   1.000  H
  H11      1.0000 0.42770  0.84790  0.16850  Biso   1.000  H
  H12      1.0000 0.57230  0.34790  0.33150  Biso   1.000  H
  H13      1.0000 0.56840  0.08630  0.84910  Biso   1.000  H
  H14      1.0000 0.43160  0.58630  0.65090  Biso   1.000  H
  H15      1.0000 0.43160  0.91370  0.15090  Biso   1.000  H
  H16      1.0000 0.56840  0.41370  0.34910  Biso   1.000  H
  C9       1.0000 0.87630  0.05480  0.71450  Biso   1.000  C
  C10      1.0000 0.12370  0.55480  0.78550  Biso   1.000  C
  C11      1.0000 0.12370  0.94520  0.28550  Biso   1.000  C
  C12      1.0000 0.87630  0.44520  0.21450  Biso   1.000  C
  H17      1.0000 0.80650  0.01990  0.71880  Biso   1.000  H
  H18      1.0000 0.19350  0.51990  0.78120  Biso   1.000  H
  H19      1.0000 0.19350  0.98010  0.28120  Biso   1.000  H
  H20      1.0000 0.80650  0.48010  0.21880  Biso   1.000  H
  H21      1.0000 0.93600  0.05070  0.63050  Biso   1.000  H
  H22      1.0000 0.06400  0.55070  0.86950  Biso   1.000  H
  H23      1.0000 0.06400  0.94930  0.36950  Biso   1.000  H
  H24      1.0000 0.93600  0.44930  0.13050  Biso   1.000  H
  C13      1.0000 0.95990  0.16930  0.98620  Biso   1.000  C
  C14      1.0000 0.04010  0.66930  0.51380  Biso   1.000  C
  C15      1.0000 0.04010  0.83070  0.01380  Biso   1.000  C
  C16      1.0000 0.95990  0.33070  0.48620  Biso   1.000  C
  H25      1.0000 0.89060  0.20510  0.97760  Biso   1.000  H
  H26      1.0000 0.10940  0.70510  0.52240  Biso   1.000  H
  H27      1.0000 0.10940  0.79490  0.02240  Biso   1.000  H
  H28      1.0000 0.89060  0.29490  0.47760  Biso   1.000  H
  H29      1.0000 0.07080  0.16950  0.08770  Biso   1.000  H
  H30      1.0000 0.92920  0.66950  0.41230  Biso   1.000  H
  H31      1.0000 0.92920  0.83050  0.91230  Biso   1.000  H
  H32      1.0000 0.07080  0.33050  0.58770  Biso   1.000  H
  C17      1.0000 0.95310  0.06710  0.99880  Biso   1.000  C
  C18      1.0000 0.04690  0.56710  0.50120  Biso   1.000  C
  C19      1.0000 0.04690  0.93290  0.00120  Biso   1.000  C
  C20      1.0000 0.95310  0.43290  0.49880  Biso   1.000  C
  H33      1.0000 0.06420  0.06780  0.10020  Biso   1.000  H
  H34      1.0000 0.93580  0.56780  0.39980  Biso   1.000  H
  H35      1.0000 0.93580  0.93220  0.89980  Biso   1.000  H
  H36      1.0000 0.06420  0.43220  0.60020  Biso   1.000  H
  H37      1.0000 0.87570  0.03330  0.99920  Biso   1.000  H
  H38      1.0000 0.12430  0.53330  0.50080  Biso   1.000  H
  H39      1.0000 0.12430  0.96670  0.00080  Biso   1.000  H
  H40      1.0000 0.87570  0.46670  0.49920  Biso   1.000  H
  C21      1.0000 0.15120  0.10960  0.86550  Biso   1.000  C
  C22      1.0000 0.84880  0.60960  0.63450  Biso   1.000  C
  C23      1.0000 0.84880  0.89040  0.13450  Biso   1.000  C
  C24      1.0000 0.15120  0.39040  0.36550  Biso   1.000  C
  H41      1.0000 0.20090  0.10580  0.77550  Biso   1.000  H
  H42      1.0000 0.79910  0.60580  0.72450  Biso   1.000  H
  H43      1.0000 0.79910  0.89420  0.22450  Biso   1.000  H
  H44      1.0000 0.20090  0.39420  0.27550  Biso   1.000  H
  H45      1.0000 0.26430  0.10980  0.96550  Biso   1.000  H
  H46      1.0000 0.73570  0.60980  0.53450  Biso   1.000  H
  H47      1.0000 0.73570  0.89020  0.03450  Biso   1.000  H
  H48      1.0000 0.26430  0.39020  0.46550  Biso   1.000  H
  C25      1.0000 0.17130  0.21200  0.85340  Biso   1.000  C
  C26      1.0000 0.82870  0.71200  0.64660  Biso   1.000  C
  C27      1.0000 0.82870  0.78800  0.14660  Biso   1.000  C
  C28      1.0000 0.17130  0.28800  0.35340  Biso   1.000  C
  H49      1.0000 0.22010  0.20880  0.76390  Biso   1.000  H
  H50      1.0000 0.77990  0.70880  0.73610  Biso   1.000  H
  H51      1.0000 0.77990  0.79120  0.23610  Biso   1.000  H
  H52      1.0000 0.22010  0.29120  0.26390  Biso   1.000  H
  H53      1.0000 0.28120  0.21130  0.95380  Biso   1.000  H
  H54      1.0000 0.71880  0.71130  0.54620  Biso   1.000  H
  H55      1.0000 0.71880  0.78870  0.04620  Biso   1.000  H
  H56      1.0000 0.28120  0.28870  0.45380  Biso   1.000  H
  H57      1.0000 0.10020  0.24700  0.84520  Biso   1.000  H
  H58      1.0000 0.89980  0.74700  0.65480  Biso   1.000  H
  H59      1.0000 0.89980  0.75300  0.15480  Biso   1.000  H
  H60      1.0000 0.10020  0.25300  0.34520  Biso   1.000  H
