data_image0
_cell_length_a       9.839
_cell_length_b       7.788
_cell_length_c       16.559
_cell_angle_alpha    90
_cell_angle_beta     92.33
_cell_angle_gamma    90

_symmetry_space_group_name_H-M    "P 1"
_symmetry_int_tables_number       1

loop_
  _symmetry_equiv_pos_as_xyz
  'x, y, z'

loop_
  _atom_site_label
  _atom_site_occupancy
  _atom_site_fract_x
  _atom_site_fract_y
  _atom_site_fract_z
  _atom_site_thermal_displace_type
  _atom_site_B_iso_or_equiv
  _atom_site_type_symbol
  Cu1      1.0000 0.13940  0.16970  0.18810  Biso   1.000  Cu
  Cu2      1.0000 0.36060  0.66970  0.31190  Biso   1.000  Cu
  Cu3      1.0000 0.86060  0.83030  0.81190  Biso   1.000  Cu
  Cu4      1.0000 0.63940  0.33030  0.68810  Biso   1.000  Cu
  N1       1.0000 0.16750  0.39450  0.24570  Biso   1.000  N
  N2       1.0000 0.33250  0.89450  0.25430  Biso   1.000  N
  N3       1.0000 0.83250  0.60550  0.75430  Biso   1.000  N
  N4       1.0000 0.66750  0.10550  0.74570  Biso   1.000  N
  N5       1.0000 0.08240  0.22530  0.06610  Biso   1.000  N
  N6       1.0000 0.41760  0.72530  0.43390  Biso   1.000  N
  N7       1.0000 0.91760  0.77470  0.93390  Biso   1.000  N
  N8       1.0000 0.58240  0.27470  0.56610  Biso   1.000  N
  N9       1.0000 0.93210  0.08990  0.18380  Biso   1.000  N
  N10      1.0000 0.56790  0.58990  0.31620  Biso   1.000  N
  N11      1.0000 0.06790  0.91010  0.81620  Biso   1.000  N
  N12      1.0000 0.43210  0.41010  0.68380  Biso   1.000  N
  C1       1.0000 0.26840  0.00250  0.22400  Biso   1.000  C
  C2       1.0000 0.23160  0.50250  0.27600  Biso   1.000  C
  C3       1.0000 0.73160  0.99750  0.77600  Biso   1.000  C
  C4       1.0000 0.76840  0.49750  0.72400  Biso   1.000  C
  C5       1.0000 0.15810  0.29060  0.01110  Biso   1.000  C
  C6       1.0000 0.34190  0.79060  0.48890  Biso   1.000  C
  C7       1.0000 0.84190  0.70940  0.98890  Biso   1.000  C
  C8       1.0000 0.65810  0.20940  0.51110  Biso   1.000  C
  C9       1.0000 0.10400  0.32890  0.93080  Biso   1.000  C
  C10      1.0000 0.39600  0.82890  0.56920  Biso   1.000  C
  C11      1.0000 0.89600  0.67110  0.06920  Biso   1.000  C
  C12      1.0000 0.60400  0.17110  0.43080  Biso   1.000  C
  C13      1.0000 0.96820  0.30350  0.91400  Biso   1.000  C
  C14      1.0000 0.53180  0.80350  0.58600  Biso   1.000  C
  C15      1.0000 0.03180  0.69650  0.08600  Biso   1.000  C
  C16      1.0000 0.46820  0.19650  0.41400  Biso   1.000  C
  C17      1.0000 0.88460  0.23440  0.97160  Biso   1.000  C
  C18      1.0000 0.61540  0.73440  0.52840  Biso   1.000  C
  C19      1.0000 0.11540  0.76560  0.02840  Biso   1.000  C
  C20      1.0000 0.38460  0.26560  0.47160  Biso   1.000  C
  C21      1.0000 0.94680  0.19720  0.04910  Biso   1.000  C
  C22      1.0000 0.55320  0.69720  0.45090  Biso   1.000  C
  C23      1.0000 0.05320  0.80280  0.95090  Biso   1.000  C
  C24      1.0000 0.44680  0.30280  0.54910  Biso   1.000  C
  C25      1.0000 0.86540  0.12330  0.11010  Biso   1.000  C
  C26      1.0000 0.63460  0.62330  0.38990  Biso   1.000  C
  C27      1.0000 0.13460  0.87670  0.88990  Biso   1.000  C
  C28      1.0000 0.36540  0.37670  0.61010  Biso   1.000  C
  C29      1.0000 0.72920  0.09250  0.09510  Biso   1.000  C
  C30      1.0000 0.77080  0.59250  0.40490  Biso   1.000  C
  C31      1.0000 0.27080  0.90750  0.90490  Biso   1.000  C
  C32      1.0000 0.22920  0.40750  0.59510  Biso   1.000  C
  C33      1.0000 0.66520  0.13800  0.01690  Biso   1.000  C
  C34      1.0000 0.83480  0.63800  0.48310  Biso   1.000  C
  C35      1.0000 0.33480  0.86200  0.98310  Biso   1.000  C
  C36      1.0000 0.16520  0.36200  0.51690  Biso   1.000  C
  C37      1.0000 0.74290  0.20630  0.95860  Biso   1.000  C
  C38      1.0000 0.75710  0.70630  0.54140  Biso   1.000  C
  C39      1.0000 0.25710  0.79370  0.04140  Biso   1.000  C
  C40      1.0000 0.24290  0.29370  0.45860  Biso   1.000  C
  C41      1.0000 0.65310  0.01610  0.15700  Biso   1.000  C
  C42      1.0000 0.84690  0.51610  0.34300  Biso   1.000  C
  C43      1.0000 0.34690  0.98390  0.84300  Biso   1.000  C
  C44      1.0000 0.15310  0.48390  0.65700  Biso   1.000  C
  C45      1.0000 0.72280  0.97600  0.22950  Biso   1.000  C
  C46      1.0000 0.77720  0.47600  0.27050  Biso   1.000  C
  C47      1.0000 0.27720  0.02400  0.77050  Biso   1.000  C
  C48      1.0000 0.22280  0.52400  0.72950  Biso   1.000  C
  C49      1.0000 0.86030  0.01520  0.24050  Biso   1.000  C
  C50      1.0000 0.63970  0.51520  0.25950  Biso   1.000  C
  C51      1.0000 0.13970  0.98480  0.75950  Biso   1.000  C
  C52      1.0000 0.36030  0.48480  0.74050  Biso   1.000  C
  C53      1.0000 0.94250  0.98000  0.32010  Biso   1.000  C
  C54      1.0000 0.55750  0.48000  0.17990  Biso   1.000  C
  C55      1.0000 0.05750  0.02000  0.67990  Biso   1.000  C
  C56      1.0000 0.44250  0.52000  0.82010  Biso   1.000  C
  C57      1.0000 0.30640  0.32330  0.03230  Biso   1.000  C
  C58      1.0000 0.19360  0.82330  0.46770  Biso   1.000  C
  C59      1.0000 0.69360  0.67670  0.96770  Biso   1.000  C
  C60      1.0000 0.80640  0.17670  0.53230  Biso   1.000  C
