data_image0
_cell_length_a       9.3946
_cell_length_b       13.26
_cell_length_c       12.7927
_cell_angle_alpha    90
_cell_angle_beta     92.674
_cell_angle_gamma    90

_symmetry_space_group_name_H-M    "P 1"
_symmetry_int_tables_number       1

loop_
  _symmetry_equiv_pos_as_xyz
  'x, y, z'

loop_
  _atom_site_label
  _atom_site_occupancy
  _atom_site_fract_x
  _atom_site_fract_y
  _atom_site_fract_z
  _atom_site_thermal_displace_type
  _atom_site_B_iso_or_equiv
  _atom_site_type_symbol
  I1       1.0000 0.29568  0.00000  0.39132  Biso   1.000  I
  I2       1.0000 0.70432  0.00000  0.60868  Biso   1.000  I
  I3       1.0000 0.79568  0.50000  0.39132  Biso   1.000  I
  I4       1.0000 0.20432  0.50000  0.60868  Biso   1.000  I
  Cu1      1.0000 0.34565  0.12235  0.22145  Biso   1.000  Cu
  Cu2      1.0000 0.65435  0.12235  0.77855  Biso   1.000  Cu
  Cu3      1.0000 0.84565  0.62235  0.22145  Biso   1.000  Cu
  Cu4      1.0000 0.15435  0.62235  0.77855  Biso   1.000  Cu
  Cu5      1.0000 0.65435  0.87765  0.77855  Biso   1.000  Cu
  Cu6      1.0000 0.34565  0.87765  0.22145  Biso   1.000  Cu
  Cu7      1.0000 0.15435  0.37765  0.77855  Biso   1.000  Cu
  Cu8      1.0000 0.84565  0.37765  0.22145  Biso   1.000  Cu
  Cu9      1.0000 0.41190  0.00000  0.58394  Biso   1.000  Cu
  Cu10     1.0000 0.58810  0.00000  0.41606  Biso   1.000  Cu
  Cu11     1.0000 0.91190  0.50000  0.58394  Biso   1.000  Cu
  Cu12     1.0000 0.08810  0.50000  0.41606  Biso   1.000  Cu
  N1       1.0000 0.26600  0.74730  0.74690  Biso   1.000  N
  N2       1.0000 0.73400  0.74730  0.25310  Biso   1.000  N
  N3       1.0000 0.76600  0.24730  0.74690  Biso   1.000  N
  N4       1.0000 0.23400  0.24730  0.25310  Biso   1.000  N
  N5       1.0000 0.73400  0.25270  0.25310  Biso   1.000  N
  N6       1.0000 0.26600  0.25270  0.74690  Biso   1.000  N
  N7       1.0000 0.23400  0.75270  0.25310  Biso   1.000  N
  N8       1.0000 0.76600  0.75270  0.74690  Biso   1.000  N
  N9       1.0000 0.39180  0.76950  0.79590  Biso   1.000  N
  N10      1.0000 0.60820  0.76950  0.20410  Biso   1.000  N
  N11      1.0000 0.89180  0.26950  0.79590  Biso   1.000  N
  N12      1.0000 0.10820  0.26950  0.20410  Biso   1.000  N
  N13      1.0000 0.60820  0.23050  0.20410  Biso   1.000  N
  N14      1.0000 0.39180  0.23050  0.79590  Biso   1.000  N
  N15      1.0000 0.10820  0.73050  0.20410  Biso   1.000  N
  N16      1.0000 0.89180  0.73050  0.79590  Biso   1.000  N
  C1       1.0000 0.25090  0.81350  0.66860  Biso   1.000  C
  C2       1.0000 0.74910  0.81350  0.33140  Biso   1.000  C
  C3       1.0000 0.75090  0.31350  0.66860  Biso   1.000  C
  C4       1.0000 0.24910  0.31350  0.33140  Biso   1.000  C
  C5       1.0000 0.74910  0.18650  0.33140  Biso   1.000  C
  C6       1.0000 0.25090  0.18650  0.66860  Biso   1.000  C
  C7       1.0000 0.24910  0.68650  0.33140  Biso   1.000  C
  C8       1.0000 0.75090  0.68650  0.66860  Biso   1.000  C
  N17      1.0000 0.44840  0.84530  0.74900  Biso   1.000  N
  N18      1.0000 0.55160  0.84530  0.25100  Biso   1.000  N
  N19      1.0000 0.94840  0.34530  0.74900  Biso   1.000  N
  N20      1.0000 0.05160  0.34530  0.25100  Biso   1.000  N
  N21      1.0000 0.55160  0.15470  0.25100  Biso   1.000  N
  N22      1.0000 0.44840  0.15470  0.74900  Biso   1.000  N
  N23      1.0000 0.05160  0.65470  0.25100  Biso   1.000  N
  N24      1.0000 0.94840  0.65470  0.74900  Biso   1.000  N
  N25      1.0000 0.36200  0.87540  0.66790  Biso   1.000  N
  N26      1.0000 0.63800  0.87540  0.33210  Biso   1.000  N
  N27      1.0000 0.86200  0.37540  0.66790  Biso   1.000  N
  N28      1.0000 0.13800  0.37540  0.33210  Biso   1.000  N
  N29      1.0000 0.63800  0.12460  0.33210  Biso   1.000  N
  N30      1.0000 0.36200  0.12460  0.66790  Biso   1.000  N
  N31      1.0000 0.13800  0.62460  0.33210  Biso   1.000  N
  N32      1.0000 0.86200  0.62460  0.66790  Biso   1.000  N
  C9       1.0000 0.12590  0.81750  0.59340  Biso   1.000  C
  C10      1.0000 0.87410  0.81750  0.40660  Biso   1.000  C
  C11      1.0000 0.62590  0.31750  0.59340  Biso   1.000  C
  C12      1.0000 0.37410  0.31750  0.40660  Biso   1.000  C
  C13      1.0000 0.87410  0.18250  0.40660  Biso   1.000  C
  C14      1.0000 0.12590  0.18250  0.59340  Biso   1.000  C
  C15      1.0000 0.37410  0.68250  0.40660  Biso   1.000  C
  C16      1.0000 0.62590  0.68250  0.59340  Biso   1.000  C
  H1       1.0000 0.15430  0.84500  0.52810  Biso   1.000  H
  H2       1.0000 0.84570  0.84500  0.47190  Biso   1.000  H
  H3       1.0000 0.65430  0.34500  0.52810  Biso   1.000  H
  H4       1.0000 0.34570  0.34500  0.47190  Biso   1.000  H
  H5       1.0000 0.84570  0.15500  0.47190  Biso   1.000  H
  H6       1.0000 0.15430  0.15500  0.52810  Biso   1.000  H
  H7       1.0000 0.34570  0.65500  0.47190  Biso   1.000  H
  H8       1.0000 0.65430  0.65500  0.52810  Biso   1.000  H
  H9       1.0000 0.08890  0.75070  0.58220  Biso   1.000  H
  H10      1.0000 0.91110  0.75070  0.41780  Biso   1.000  H
  H11      1.0000 0.58890  0.25070  0.58220  Biso   1.000  H
  H12      1.0000 0.41110  0.25070  0.41780  Biso   1.000  H
  H13      1.0000 0.91110  0.24930  0.41780  Biso   1.000  H
  H14      1.0000 0.08890  0.24930  0.58220  Biso   1.000  H
  H15      1.0000 0.41110  0.74930  0.41780  Biso   1.000  H
  H16      1.0000 0.58890  0.74930  0.58220  Biso   1.000  H
  H17      1.0000 0.05350  0.85950  0.62120  Biso   1.000  H
  H18      1.0000 0.94650  0.85950  0.37880  Biso   1.000  H
  H19      1.0000 0.55350  0.35950  0.62120  Biso   1.000  H
  H20      1.0000 0.44650  0.35950  0.37880  Biso   1.000  H
  H21      1.0000 0.94650  0.14050  0.37880  Biso   1.000  H
  H22      1.0000 0.05350  0.14050  0.62120  Biso   1.000  H
  H23      1.0000 0.44650  0.64050  0.37880  Biso   1.000  H
  H24      1.0000 0.55350  0.64050  0.62120  Biso   1.000  H
  N33      1.0000 0.27560  0.04880  0.09410  Biso   1.000  N
  N34      1.0000 0.72440  0.04880  0.90590  Biso   1.000  N
  N35      1.0000 0.77560  0.54880  0.09410  Biso   1.000  N
  N36      1.0000 0.22440  0.54880  0.90590  Biso   1.000  N
  N37      1.0000 0.72440  0.95120  0.90590  Biso   1.000  N
  N38      1.0000 0.27560  0.95120  0.09410  Biso   1.000  N
  N39      1.0000 0.22440  0.45120  0.90590  Biso   1.000  N
  N40      1.0000 0.77560  0.45120  0.09410  Biso   1.000  N
  N41      1.0000 0.21230  0.08330  0.00420  Biso   1.000  N
  N42      1.0000 0.78770  0.08330  0.99580  Biso   1.000  N
  N43      1.0000 0.71230  0.58330  0.00420  Biso   1.000  N
  N44      1.0000 0.28770  0.58330  0.99580  Biso   1.000  N
  N45      1.0000 0.78770  0.91670  0.99580  Biso   1.000  N
  N46      1.0000 0.21230  0.91670  0.00420  Biso   1.000  N
  N47      1.0000 0.28770  0.41670  0.99580  Biso   1.000  N
  N48      1.0000 0.71230  0.41670  0.00420  Biso   1.000  N
  C17      1.0000 0.17630  0.00000  0.95210  Biso   1.000  C
  C18      1.0000 0.82370  0.00000  0.04790  Biso   1.000  C
  C19      1.0000 0.67630  0.50000  0.95210  Biso   1.000  C
  C20      1.0000 0.32370  0.50000  0.04790  Biso   1.000  C
  C21      1.0000 0.10370  0.00000  0.84420  Biso   1.000  C
  C22      1.0000 0.89630  0.00000  0.15580  Biso   1.000  C
  C23      1.0000 0.60370  0.50000  0.84420  Biso   1.000  C
  C24      1.0000 0.39630  0.50000  0.15580  Biso   1.000  C
  H25      1.0000 0.66730  0.47280  0.79480  Biso   1.000  H
  H26      1.0000 0.33270  0.47280  0.20520  Biso   1.000  H
  H27      1.0000 0.16730  0.97280  0.79480  Biso   1.000  H
  H28      1.0000 0.83270  0.97280  0.20520  Biso   1.000  H
  H29      1.0000 0.33270  0.52720  0.20520  Biso   1.000  H
  H30      1.0000 0.66730  0.52720  0.79480  Biso   1.000  H
  H31      1.0000 0.83270  0.02720  0.20520  Biso   1.000  H
  H32      1.0000 0.16730  0.02720  0.79480  Biso   1.000  H
  H33      1.0000 0.57860  0.56780  0.82460  Biso   1.000  H
  H34      1.0000 0.42140  0.56780  0.17540  Biso   1.000  H
  H35      1.0000 0.07860  0.06780  0.82460  Biso   1.000  H
  H36      1.0000 0.92140  0.06780  0.17540  Biso   1.000  H
  H37      1.0000 0.42140  0.43220  0.17540  Biso   1.000  H
  H38      1.0000 0.57860  0.43220  0.82460  Biso   1.000  H
  H39      1.0000 0.92140  0.93220  0.17540  Biso   1.000  H
  H40      1.0000 0.07860  0.93220  0.82460  Biso   1.000  H
  H41      1.0000 0.51920  0.45940  0.84460  Biso   1.000  H
  H42      1.0000 0.48080  0.45940  0.15540  Biso   1.000  H
  H43      1.0000 0.01920  0.95940  0.84460  Biso   1.000  H
  H44      1.0000 0.98080  0.95940  0.15540  Biso   1.000  H
  H45      1.0000 0.48080  0.54060  0.15540  Biso   1.000  H
  H46      1.0000 0.51920  0.54060  0.84460  Biso   1.000  H
  H47      1.0000 0.98080  0.04060  0.15540  Biso   1.000  H
  H48      1.0000 0.01920  0.04060  0.84460  Biso   1.000  H
  K1       1.0000 0.50000  0.75182  0.00000  Biso   1.000  K
  K2       1.0000 0.00000  0.25182  0.00000  Biso   1.000  K
  K3       1.0000 0.50000  0.24818  0.00000  Biso   1.000  K
  K4       1.0000 0.00000  0.74818  0.00000  Biso   1.000  K
