data_image0
_cell_length_a       9.5131
_cell_length_b       15.302
_cell_length_c       9.8789
_cell_angle_alpha    90
_cell_angle_beta     90
_cell_angle_gamma    90

_symmetry_space_group_name_H-M    "P 1"
_symmetry_int_tables_number       1

loop_
  _symmetry_equiv_pos_as_xyz
  'x, y, z'

loop_
  _atom_site_label
  _atom_site_occupancy
  _atom_site_fract_x
  _atom_site_fract_y
  _atom_site_fract_z
  _atom_site_thermal_displace_type
  _atom_site_B_iso_or_equiv
  _atom_site_type_symbol
  I1       1.0000 0.86212  0.25000  0.48658  Biso   1.000  I
  I2       1.0000 0.63788  0.75000  0.98658  Biso   1.000  I
  I3       1.0000 0.13788  0.75000  0.51342  Biso   1.000  I
  I4       1.0000 0.36212  0.25000  0.01342  Biso   1.000  I
  Cu1      1.0000 0.88848  0.41896  0.42379  Biso   1.000  Cu
  Cu2      1.0000 0.61152  0.58104  0.92379  Biso   1.000  Cu
  Cu3      1.0000 0.11152  0.91896  0.57621  Biso   1.000  Cu
  Cu4      1.0000 0.38848  0.08104  0.07621  Biso   1.000  Cu
  Cu5      1.0000 0.11152  0.58104  0.57621  Biso   1.000  Cu
  Cu6      1.0000 0.38848  0.41896  0.07621  Biso   1.000  Cu
  Cu7      1.0000 0.88848  0.08104  0.42379  Biso   1.000  Cu
  Cu8      1.0000 0.61152  0.91896  0.92379  Biso   1.000  Cu
  N1       1.0000 0.17480  0.99400  0.42060  Biso   1.000  N
  N2       1.0000 0.32520  0.00600  0.92060  Biso   1.000  N
  N3       1.0000 0.82520  0.49400  0.57940  Biso   1.000  N
  N4       1.0000 0.67480  0.50600  0.07940  Biso   1.000  N
  N5       1.0000 0.82520  0.00600  0.57940  Biso   1.000  N
  N6       1.0000 0.67480  0.99400  0.07940  Biso   1.000  N
  N7       1.0000 0.17480  0.50600  0.42060  Biso   1.000  N
  N8       1.0000 0.32520  0.49400  0.92060  Biso   1.000  N
  N9       1.0000 0.09450  0.06100  0.37830  Biso   1.000  N
  N10      1.0000 0.40550  0.93900  0.87830  Biso   1.000  N
  N11      1.0000 0.90550  0.56100  0.62170  Biso   1.000  N
  N12      1.0000 0.59450  0.43900  0.12170  Biso   1.000  N
  N13      1.0000 0.90550  0.93900  0.62170  Biso   1.000  N
  N14      1.0000 0.59450  0.06100  0.12170  Biso   1.000  N
  N15      1.0000 0.09450  0.43900  0.37830  Biso   1.000  N
  N16      1.0000 0.40550  0.56100  0.87830  Biso   1.000  N
  C1       1.0000 0.28650  0.99460  0.33880  Biso   1.000  C
  C2       1.0000 0.21350  0.00540  0.83880  Biso   1.000  C
  C3       1.0000 0.71350  0.49460  0.66120  Biso   1.000  C
  C4       1.0000 0.78650  0.50540  0.16120  Biso   1.000  C
  C5       1.0000 0.71350  0.00540  0.66120  Biso   1.000  C
  C6       1.0000 0.78650  0.99460  0.16120  Biso   1.000  C
  C7       1.0000 0.28650  0.50540  0.33880  Biso   1.000  C
  C8       1.0000 0.21350  0.49460  0.83880  Biso   1.000  C
  C9       1.0000 0.40630  0.93350  0.35160  Biso   1.000  C
  C10      1.0000 0.09370  0.06650  0.85160  Biso   1.000  C
  C11      1.0000 0.59370  0.43350  0.64840  Biso   1.000  C
  C12      1.0000 0.90630  0.56650  0.14840  Biso   1.000  C
  C13      1.0000 0.59370  0.06650  0.64840  Biso   1.000  C
  C14      1.0000 0.90630  0.93350  0.14840  Biso   1.000  C
  C15      1.0000 0.40630  0.56650  0.35160  Biso   1.000  C
  C16      1.0000 0.09370  0.43350  0.85160  Biso   1.000  C
  H1       1.0000 0.49030  0.96570  0.37190  Biso   1.000  H
  H2       1.0000 0.00970  0.03430  0.87190  Biso   1.000  H
  H3       1.0000 0.50970  0.46570  0.62810  Biso   1.000  H
  H4       1.0000 0.99030  0.53430  0.12810  Biso   1.000  H
  H5       1.0000 0.50970  0.03430  0.62810  Biso   1.000  H
  H6       1.0000 0.99030  0.96570  0.12810  Biso   1.000  H
  H7       1.0000 0.49030  0.53430  0.37190  Biso   1.000  H
  H8       1.0000 0.00970  0.46570  0.87190  Biso   1.000  H
  H9       1.0000 0.38780  0.89260  0.42330  Biso   1.000  H
  H10      1.0000 0.11220  0.10740  0.92330  Biso   1.000  H
  H11      1.0000 0.61220  0.39260  0.57670  Biso   1.000  H
  H12      1.0000 0.88780  0.60740  0.07670  Biso   1.000  H
  H13      1.0000 0.61220  0.10740  0.57670  Biso   1.000  H
  H14      1.0000 0.88780  0.89260  0.07670  Biso   1.000  H
  H15      1.0000 0.38780  0.60740  0.42330  Biso   1.000  H
  H16      1.0000 0.11220  0.39260  0.92330  Biso   1.000  H
  H17      1.0000 0.41860  0.90230  0.26810  Biso   1.000  H
  H18      1.0000 0.08140  0.09770  0.76810  Biso   1.000  H
  H19      1.0000 0.58140  0.40230  0.73190  Biso   1.000  H
  H20      1.0000 0.91860  0.59770  0.23190  Biso   1.000  H
  H21      1.0000 0.58140  0.09770  0.73190  Biso   1.000  H
  H22      1.0000 0.91860  0.90230  0.23190  Biso   1.000  H
  H23      1.0000 0.41860  0.59770  0.26810  Biso   1.000  H
  H24      1.0000 0.08140  0.40230  0.76810  Biso   1.000  H
  N17      1.0000 0.27760  0.05870  0.24920  Biso   1.000  N
  N18      1.0000 0.22240  0.94130  0.74920  Biso   1.000  N
  N19      1.0000 0.72240  0.55870  0.75080  Biso   1.000  N
  N20      1.0000 0.77760  0.44130  0.25080  Biso   1.000  N
  N21      1.0000 0.72240  0.94130  0.75080  Biso   1.000  N
  N22      1.0000 0.77760  0.05870  0.25080  Biso   1.000  N
  N23      1.0000 0.27760  0.44130  0.24920  Biso   1.000  N
  N24      1.0000 0.22240  0.55870  0.74920  Biso   1.000  N
  Na1      1.0000 0.09310  0.25000  0.21960  Biso   1.000  Na
  Na2      1.0000 0.40690  0.75000  0.71960  Biso   1.000  Na
  Na3      1.0000 0.90690  0.75000  0.78040  Biso   1.000  Na
  Na4      1.0000 0.59310  0.25000  0.28040  Biso   1.000  Na
  N25      1.0000 0.15680  0.10000  0.27590  Biso   1.000  N
  N26      1.0000 0.34320  0.90000  0.77590  Biso   1.000  N
  N27      1.0000 0.84320  0.60000  0.72410  Biso   1.000  N
  N28      1.0000 0.65680  0.40000  0.22410  Biso   1.000  N
  N29      1.0000 0.84320  0.90000  0.72410  Biso   1.000  N
  N30      1.0000 0.65680  0.10000  0.22410  Biso   1.000  N
  N31      1.0000 0.15680  0.40000  0.27590  Biso   1.000  N
  N32      1.0000 0.34320  0.60000  0.77590  Biso   1.000  N
  N33      1.0000 0.91500  0.25000  0.05530  Biso   1.000  N
  N34      1.0000 0.58500  0.75000  0.55530  Biso   1.000  N
  N35      1.0000 0.08500  0.75000  0.94470  Biso   1.000  N
  N36      1.0000 0.41500  0.25000  0.44470  Biso   1.000  N
  C17      1.0000 0.83740  0.26900  0.97550  Biso   1.000  C
  C18      1.0000 0.66260  0.73100  0.47550  Biso   1.000  C
  C19      1.0000 0.16260  0.76900  0.02450  Biso   1.000  C
  C20      1.0000 0.33740  0.23100  0.52450  Biso   1.000  C
  C21      1.0000 0.16260  0.73100  0.02450  Biso   1.000  C
  C22      1.0000 0.33740  0.26900  0.52450  Biso   1.000  C
  C23      1.0000 0.83740  0.23100  0.97550  Biso   1.000  C
  C24      1.0000 0.66260  0.76900  0.47550  Biso   1.000  C
  C25      1.0000 0.74310  0.29880  0.86910  Biso   1.000  C
  C26      1.0000 0.75690  0.70120  0.36910  Biso   1.000  C
  C27      1.0000 0.25690  0.79880  0.13090  Biso   1.000  C
  C28      1.0000 0.24310  0.20120  0.63090  Biso   1.000  C
  C29      1.0000 0.25690  0.70120  0.13090  Biso   1.000  C
  C30      1.0000 0.24310  0.29880  0.63090  Biso   1.000  C
  C31      1.0000 0.74310  0.20120  0.86910  Biso   1.000  C
  C32      1.0000 0.75690  0.79880  0.36910  Biso   1.000  C
  H25      1.0000 0.65280  0.31210  0.90730  Biso   1.000  H
  H26      1.0000 0.84720  0.68790  0.40730  Biso   1.000  H
  H27      1.0000 0.34720  0.81210  0.09270  Biso   1.000  H
  H28      1.0000 0.15280  0.18790  0.59270  Biso   1.000  H
  H29      1.0000 0.34720  0.68790  0.09270  Biso   1.000  H
  H30      1.0000 0.15280  0.31210  0.59270  Biso   1.000  H
  H31      1.0000 0.65280  0.18790  0.90730  Biso   1.000  H
  H32      1.0000 0.84720  0.81210  0.40730  Biso   1.000  H
  H33      1.0000 0.73300  0.24630  0.80220  Biso   1.000  H
  H34      1.0000 0.76700  0.75370  0.30220  Biso   1.000  H
  H35      1.0000 0.26700  0.74630  0.19780  Biso   1.000  H
  H36      1.0000 0.23300  0.25370  0.69780  Biso   1.000  H
  H37      1.0000 0.26700  0.75370  0.19780  Biso   1.000  H
  H38      1.0000 0.23300  0.24630  0.69780  Biso   1.000  H
  H39      1.0000 0.73300  0.25370  0.80220  Biso   1.000  H
  H40      1.0000 0.76700  0.74630  0.30220  Biso   1.000  H
  H41      1.0000 0.78120  0.35030  0.82750  Biso   1.000  H
  H42      1.0000 0.71880  0.64970  0.32750  Biso   1.000  H
  H43      1.0000 0.21880  0.85030  0.17250  Biso   1.000  H
  H44      1.0000 0.28120  0.14970  0.67250  Biso   1.000  H
  H45      1.0000 0.21880  0.64970  0.17250  Biso   1.000  H
  H46      1.0000 0.28120  0.35030  0.67250  Biso   1.000  H
  H47      1.0000 0.78120  0.14970  0.82750  Biso   1.000  H
  H48      1.0000 0.71880  0.85030  0.32750  Biso   1.000  H
