data_image0
_cell_length_a       19.446
_cell_length_b       4.2397
_cell_length_c       12.4437
_cell_angle_alpha    90
_cell_angle_beta     107.177
_cell_angle_gamma    90

_symmetry_space_group_name_H-M    "P 1"
_symmetry_int_tables_number       1

loop_
  _symmetry_equiv_pos_as_xyz
  'x, y, z'

loop_
  _atom_site_label
  _atom_site_occupancy
  _atom_site_fract_x
  _atom_site_fract_y
  _atom_site_fract_z
  _atom_site_thermal_displace_type
  _atom_site_B_iso_or_equiv
  _atom_site_type_symbol
  I1       1.0000 0.64512  0.50000  0.40614  Biso   1.000  I
  I2       1.0000 0.35488  0.50000  0.59386  Biso   1.000  I
  I3       1.0000 0.14512  0.00000  0.40614  Biso   1.000  I
  I4       1.0000 0.85488  0.00000  0.59386  Biso   1.000  I
  Cu1      1.0000 0.57543  0.00000  0.45090  Biso   1.000  Cu
  Cu2      1.0000 0.42457  0.00000  0.54910  Biso   1.000  Cu
  Cu3      1.0000 0.07543  0.50000  0.45090  Biso   1.000  Cu
  Cu4      1.0000 0.92457  0.50000  0.54910  Biso   1.000  Cu
  I5       1.0000 0.17100  0.00000  0.06726  Biso   1.000  I
  I6       1.0000 0.82900  0.00000  0.93274  Biso   1.000  I
  I7       1.0000 0.67100  0.50000  0.06726  Biso   1.000  I
  I8       1.0000 0.32900  0.50000  0.93274  Biso   1.000  I
  Cu5      1.0000 0.30290  0.00000  0.05020  Biso   1.000  Cu
  Cu6      1.0000 0.69710  0.00000  0.94980  Biso   1.000  Cu
  Cu7      1.0000 0.80290  0.50000  0.05020  Biso   1.000  Cu
  Cu8      1.0000 0.19710  0.50000  0.94980  Biso   1.000  Cu
  C1       1.0000 0.44870  0.00000  0.23350  Biso   1.000  C
  C2       1.0000 0.55130  0.00000  0.76650  Biso   1.000  C
  C3       1.0000 0.94870  0.50000  0.23350  Biso   1.000  C
  C4       1.0000 0.05130  0.50000  0.76650  Biso   1.000  C
  N1       1.0000 0.47430  0.00000  0.34520  Biso   1.000  N
  N2       1.0000 0.52570  0.00000  0.65480  Biso   1.000  N
  N3       1.0000 0.97430  0.50000  0.34520  Biso   1.000  N
  N4       1.0000 0.02570  0.50000  0.65480  Biso   1.000  N
  N5       1.0000 0.37710  0.00000  0.20420  Biso   1.000  N
  N6       1.0000 0.62290  0.00000  0.79580  Biso   1.000  N
  N7       1.0000 0.87710  0.50000  0.20420  Biso   1.000  N
  N8       1.0000 0.12290  0.50000  0.79580  Biso   1.000  N
  N9       1.0000 0.35860  0.00000  0.29870  Biso   1.000  N
  N10      1.0000 0.64140  0.00000  0.70130  Biso   1.000  N
  N11      1.0000 0.85860  0.50000  0.29870  Biso   1.000  N
  N12      1.0000 0.14140  0.50000  0.70130  Biso   1.000  N
  C5       1.0000 0.49390  0.00000  0.15470  Biso   1.000  C
  C6       1.0000 0.50610  0.00000  0.84530  Biso   1.000  C
  C7       1.0000 0.99390  0.50000  0.15470  Biso   1.000  C
  C8       1.0000 0.00610  0.50000  0.84530  Biso   1.000  C
  H1       1.0000 0.53900  0.10190  0.19010  Biso   1.000  H
  H2       1.0000 0.46100  0.10190  0.80990  Biso   1.000  H
  H3       1.0000 0.03900  0.60190  0.19010  Biso   1.000  H
  H4       1.0000 0.96100  0.60190  0.80990  Biso   1.000  H
  H5       1.0000 0.46100  0.89810  0.80990  Biso   1.000  H
  H6       1.0000 0.53900  0.89810  0.19010  Biso   1.000  H
  H7       1.0000 0.96100  0.39810  0.80990  Biso   1.000  H
  H8       1.0000 0.03900  0.39810  0.19010  Biso   1.000  H
  H9       1.0000 0.46920  0.11150  0.08720  Biso   1.000  H
  H10      1.0000 0.53080  0.11150  0.91280  Biso   1.000  H
  H11      1.0000 0.96920  0.61150  0.08720  Biso   1.000  H
  H12      1.0000 0.03080  0.61150  0.91280  Biso   1.000  H
  H13      1.0000 0.53080  0.88850  0.91280  Biso   1.000  H
  H14      1.0000 0.46920  0.88850  0.08720  Biso   1.000  H
  H15      1.0000 0.03080  0.38850  0.91280  Biso   1.000  H
  H16      1.0000 0.96920  0.38850  0.08720  Biso   1.000  H
  H17      1.0000 0.50250  0.78660  0.13630  Biso   1.000  H
  H18      1.0000 0.49750  0.78660  0.86370  Biso   1.000  H
  H19      1.0000 0.00250  0.28660  0.13630  Biso   1.000  H
  H20      1.0000 0.99750  0.28660  0.86370  Biso   1.000  H
  H21      1.0000 0.49750  0.21340  0.86370  Biso   1.000  H
  H22      1.0000 0.50250  0.21340  0.13630  Biso   1.000  H
  H23      1.0000 0.99750  0.71340  0.86370  Biso   1.000  H
  H24      1.0000 0.00250  0.71340  0.13630  Biso   1.000  H
  N13      1.0000 0.41770  0.00000  0.38100  Biso   1.000  N
  N14      1.0000 0.58230  0.00000  0.61900  Biso   1.000  N
  N15      1.0000 0.91770  0.50000  0.38100  Biso   1.000  N
  N16      1.0000 0.08230  0.50000  0.61900  Biso   1.000  N
  K1       1.0000 0.74248  0.50000  0.69112  Biso   1.000  K
  K2       1.0000 0.25752  0.50000  0.30888  Biso   1.000  K
  K3       1.0000 0.24248  0.00000  0.69112  Biso   1.000  K
  K4       1.0000 0.75752  0.00000  0.30888  Biso   1.000  K
