data_image0
_cell_length_a       14.1373
_cell_length_b       12.396
_cell_length_c       9.8979
_cell_angle_alpha    90
_cell_angle_beta     93.448
_cell_angle_gamma    90

_symmetry_space_group_name_H-M    "P 1"
_symmetry_int_tables_number       1

loop_
  _symmetry_equiv_pos_as_xyz
  'x, y, z'

loop_
  _atom_site_label
  _atom_site_occupancy
  _atom_site_fract_x
  _atom_site_fract_y
  _atom_site_fract_z
  _atom_site_thermal_displace_type
  _atom_site_B_iso_or_equiv
  _atom_site_type_symbol
  Br1      1.0000 0.65834  0.96180  0.82391  Biso   1.000  Br
  Br2      1.0000 0.34166  0.46180  0.67609  Biso   1.000  Br
  Br3      1.0000 0.34166  0.03820  0.17609  Biso   1.000  Br
  Br4      1.0000 0.65834  0.53820  0.32391  Biso   1.000  Br
  C1       1.0000 0.58990  0.13730  0.23520  Biso   1.000  C
  C2       1.0000 0.41010  0.63730  0.26480  Biso   1.000  C
  C3       1.0000 0.41010  0.86270  0.76480  Biso   1.000  C
  C4       1.0000 0.58990  0.36270  0.73520  Biso   1.000  C
  H1       1.0000 0.52440  0.13100  0.23770  Biso   1.000  H
  H2       1.0000 0.47560  0.63100  0.26230  Biso   1.000  H
  H3       1.0000 0.47560  0.86900  0.76230  Biso   1.000  H
  H4       1.0000 0.52440  0.36900  0.73770  Biso   1.000  H
  C5       1.0000 0.64250  0.15910  0.35390  Biso   1.000  C
  C6       1.0000 0.35750  0.65910  0.14610  Biso   1.000  C
  C7       1.0000 0.35750  0.84090  0.64610  Biso   1.000  C
  C8       1.0000 0.64250  0.34090  0.85390  Biso   1.000  C
  H5       1.0000 0.61260  0.16630  0.43460  Biso   1.000  H
  H6       1.0000 0.38740  0.66630  0.06540  Biso   1.000  H
  H7       1.0000 0.38740  0.83370  0.56540  Biso   1.000  H
  H8       1.0000 0.61260  0.33370  0.93460  Biso   1.000  H
  C9       1.0000 0.73840  0.17020  0.35280  Biso   1.000  C
  C10      1.0000 0.26160  0.67020  0.14720  Biso   1.000  C
  C11      1.0000 0.26160  0.82980  0.64720  Biso   1.000  C
  C12      1.0000 0.73840  0.32980  0.85280  Biso   1.000  C
  H9       1.0000 0.77450  0.18380  0.43260  Biso   1.000  H
  H10      1.0000 0.22550  0.68380  0.06740  Biso   1.000  H
  H11      1.0000 0.22550  0.81620  0.56740  Biso   1.000  H
  H12      1.0000 0.77450  0.31620  0.93260  Biso   1.000  H
  C13      1.0000 0.78140  0.16070  0.23100  Biso   1.000  C
  C14      1.0000 0.21860  0.66070  0.26900  Biso   1.000  C
  C15      1.0000 0.21860  0.83930  0.76900  Biso   1.000  C
  C16      1.0000 0.78140  0.33930  0.73100  Biso   1.000  C
  C17      1.0000 0.88410  0.18070  0.22000  Biso   1.000  C
  C18      1.0000 0.11590  0.68070  0.28000  Biso   1.000  C
  C19      1.0000 0.11590  0.81930  0.78000  Biso   1.000  C
  C20      1.0000 0.88410  0.31930  0.72000  Biso   1.000  C
  C21      1.0000 0.72310  0.13530  0.11620  Biso   1.000  C
  C22      1.0000 0.27690  0.63530  0.38380  Biso   1.000  C
  C23      1.0000 0.27690  0.86470  0.88380  Biso   1.000  C
  C24      1.0000 0.72310  0.36470  0.61620  Biso   1.000  C
  H13      1.0000 0.75150  0.12520  0.03480  Biso   1.000  H
  H14      1.0000 0.24850  0.62520  0.46520  Biso   1.000  H
  H15      1.0000 0.24850  0.87480  0.96520  Biso   1.000  H
  H16      1.0000 0.75150  0.37480  0.53480  Biso   1.000  H
  C25      1.0000 0.47670  0.11460  0.67720  Biso   1.000  C
  C26      1.0000 0.52330  0.61460  0.82280  Biso   1.000  C
  C27      1.0000 0.52330  0.88540  0.32280  Biso   1.000  C
  C28      1.0000 0.47670  0.38540  0.17720  Biso   1.000  C
  H17      1.0000 0.53890  0.10140  0.65640  Biso   1.000  H
  H18      1.0000 0.46110  0.60140  0.84360  Biso   1.000  H
  H19      1.0000 0.46110  0.89860  0.34360  Biso   1.000  H
  H20      1.0000 0.53890  0.39860  0.15640  Biso   1.000  H
  C29      1.0000 0.40870  0.12120  0.57340  Biso   1.000  C
  C30      1.0000 0.59130  0.62120  0.92660  Biso   1.000  C
  C31      1.0000 0.59130  0.87880  0.42660  Biso   1.000  C
  C32      1.0000 0.40870  0.37880  0.07340  Biso   1.000  C
  H21      1.0000 0.42460  0.11270  0.48410  Biso   1.000  H
  H22      1.0000 0.57540  0.61270  0.01590  Biso   1.000  H
  H23      1.0000 0.57540  0.88730  0.51590  Biso   1.000  H
  H24      1.0000 0.42460  0.38730  0.98410  Biso   1.000  H
  C33      1.0000 0.31560  0.14080  0.60350  Biso   1.000  C
  C34      1.0000 0.68440  0.64080  0.89650  Biso   1.000  C
  C35      1.0000 0.68440  0.85920  0.39650  Biso   1.000  C
  C36      1.0000 0.31560  0.35920  0.10350  Biso   1.000  C
  H25      1.0000 0.26750  0.14230  0.53520  Biso   1.000  H
  H26      1.0000 0.73250  0.64230  0.96480  Biso   1.000  H
  H27      1.0000 0.73250  0.85770  0.46480  Biso   1.000  H
  H28      1.0000 0.26750  0.35770  0.03520  Biso   1.000  H
  C37      1.0000 0.29580  0.15800  0.73630  Biso   1.000  C
  C38      1.0000 0.70420  0.65800  0.76370  Biso   1.000  C
  C39      1.0000 0.70420  0.84200  0.26370  Biso   1.000  C
  C40      1.0000 0.29580  0.34200  0.23630  Biso   1.000  C
  C41      1.0000 0.19670  0.18500  0.77250  Biso   1.000  C
  C42      1.0000 0.80330  0.68500  0.72750  Biso   1.000  C
  C43      1.0000 0.80330  0.81500  0.22750  Biso   1.000  C
  C44      1.0000 0.19670  0.31500  0.27250  Biso   1.000  C
  C45      1.0000 0.36790  0.14900  0.83470  Biso   1.000  C
  C46      1.0000 0.63210  0.64900  0.66530  Biso   1.000  C
  C47      1.0000 0.63210  0.85100  0.16530  Biso   1.000  C
  C48      1.0000 0.36790  0.35100  0.33470  Biso   1.000  C
  H29      1.0000 0.35380  0.15920  0.92440  Biso   1.000  H
  H30      1.0000 0.64620  0.65920  0.57560  Biso   1.000  H
  H31      1.0000 0.64620  0.84080  0.07560  Biso   1.000  H
  H32      1.0000 0.35380  0.34080  0.42440  Biso   1.000  H
  C49      1.0000 0.03850  0.50850  0.94760  Biso   1.000  C
  C50      1.0000 0.96150  0.00850  0.55240  Biso   1.000  C
  C51      1.0000 0.96150  0.49150  0.05240  Biso   1.000  C
  C52      1.0000 0.03850  0.99150  0.44760  Biso   1.000  C
  Cu1      1.0000 0.55742  0.09159  0.94701  Biso   1.000  Cu
  Cu2      1.0000 0.44258  0.59159  0.55299  Biso   1.000  Cu
  Cu3      1.0000 0.44258  0.90841  0.05299  Biso   1.000  Cu
  Cu4      1.0000 0.55742  0.40841  0.44701  Biso   1.000  Cu
  Gd1      1.0000 0.04121  0.24879  0.00007  Biso   1.000  Gd
  Gd2      1.0000 0.95879  0.74879  0.49993  Biso   1.000  Gd
  Gd3      1.0000 0.95879  0.75121  0.99993  Biso   1.000  Gd
  Gd4      1.0000 0.04121  0.25121  0.50007  Biso   1.000  Gd
  N1       1.0000 0.62950  0.12480  0.11630  Biso   1.000  N
  N2       1.0000 0.37050  0.62480  0.38370  Biso   1.000  N
  N3       1.0000 0.37050  0.87520  0.88370  Biso   1.000  N
  N4       1.0000 0.62950  0.37520  0.61630  Biso   1.000  N
  N5       1.0000 0.45790  0.12630  0.80820  Biso   1.000  N
  N6       1.0000 0.54210  0.62630  0.69180  Biso   1.000  N
  N7       1.0000 0.54210  0.87370  0.19180  Biso   1.000  N
  N8       1.0000 0.45790  0.37370  0.30820  Biso   1.000  N
  O1       1.0000 0.91680  0.16960  0.10600  Biso   1.000  O
  O2       1.0000 0.08320  0.66960  0.39400  Biso   1.000  O
  O3       1.0000 0.08320  0.83040  0.89400  Biso   1.000  O
  O4       1.0000 0.91680  0.33040  0.60600  Biso   1.000  O
  O5       1.0000 0.93180  0.20990  0.32300  Biso   1.000  O
  O6       1.0000 0.06820  0.70990  0.17700  Biso   1.000  O
  O7       1.0000 0.06820  0.79010  0.67700  Biso   1.000  O
  O8       1.0000 0.93180  0.29010  0.82300  Biso   1.000  O
  O9       1.0000 0.13220  0.18050  0.68000  Biso   1.000  O
  O10      1.0000 0.86780  0.68050  0.82000  Biso   1.000  O
  O11      1.0000 0.86780  0.81950  0.32000  Biso   1.000  O
  O12      1.0000 0.13220  0.31950  0.18000  Biso   1.000  O
  O13      1.0000 0.18340  0.21190  0.89170  Biso   1.000  O
  O14      1.0000 0.81660  0.71190  0.60830  Biso   1.000  O
  O15      1.0000 0.81660  0.78810  0.10830  Biso   1.000  O
  O16      1.0000 0.18340  0.28810  0.39170  Biso   1.000  O
  O17      1.0000 0.08200  0.42570  0.91170  Biso   1.000  O
  O18      1.0000 0.91800  0.92570  0.58830  Biso   1.000  O
  O19      1.0000 0.91800  0.57430  0.08830  Biso   1.000  O
  O20      1.0000 0.08200  0.07430  0.41170  Biso   1.000  O
  O21      1.0000 0.04970  0.60250  0.90650  Biso   1.000  O
  O22      1.0000 0.95030  0.10250  0.59350  Biso   1.000  O
  O23      1.0000 0.95030  0.39750  0.09350  Biso   1.000  O
  O24      1.0000 0.04970  0.89750  0.40650  Biso   1.000  O
  O25      1.0000 0.00710  0.08300  0.87750  Biso   1.000  O
  O26      1.0000 0.99290  0.58300  0.62250  Biso   1.000  O
  O27      1.0000 0.99290  0.91700  0.12250  Biso   1.000  O
  O28      1.0000 0.00710  0.41700  0.37750  Biso   1.000  O
  H33      1.0000 0.95800  0.05030  0.89810  Biso   1.000  H
  H34      1.0000 0.04200  0.55030  0.60190  Biso   1.000  H
  H35      1.0000 0.04200  0.94970  0.10190  Biso   1.000  H
  H36      1.0000 0.95800  0.44970  0.39810  Biso   1.000  H
  H37      1.0000 0.00430  0.09930  0.79500  Biso   1.000  H
  H38      1.0000 0.99570  0.59930  0.70500  Biso   1.000  H
  H39      1.0000 0.99570  0.90070  0.20500  Biso   1.000  H
  H40      1.0000 0.00430  0.40070  0.29500  Biso   1.000  H
  O29      1.0000 0.11910  0.09470  0.13190  Biso   1.000  O
  O30      1.0000 0.88090  0.59470  0.36810  Biso   1.000  O
  O31      1.0000 0.88090  0.90530  0.86810  Biso   1.000  O
  O32      1.0000 0.11910  0.40530  0.63190  Biso   1.000  O
  H41      1.0000 0.11870  0.08840  0.21640  Biso   1.000  H
  H42      1.0000 0.88130  0.58840  0.28360  Biso   1.000  H
  H43      1.0000 0.88130  0.91160  0.78360  Biso   1.000  H
  H44      1.0000 0.11870  0.41160  0.71640  Biso   1.000  H
  H45      1.0000 0.16930  0.07030  0.10250  Biso   1.000  H
  H46      1.0000 0.83070  0.57030  0.39750  Biso   1.000  H
  H47      1.0000 0.83070  0.92970  0.89750  Biso   1.000  H
  H48      1.0000 0.16930  0.42970  0.60250  Biso   1.000  H
