data_image0
_cell_length_a       10.732
_cell_length_b       11.903
_cell_length_c       11.912
_cell_angle_alpha    111.236
_cell_angle_beta     95.319
_cell_angle_gamma    102.15

_symmetry_space_group_name_H-M    "P 1"
_symmetry_int_tables_number       1

loop_
  _symmetry_equiv_pos_as_xyz
  'x, y, z'

loop_
  _atom_site_label
  _atom_site_occupancy
  _atom_site_fract_x
  _atom_site_fract_y
  _atom_site_fract_z
  _atom_site_thermal_displace_type
  _atom_site_B_iso_or_equiv
  _atom_site_type_symbol
  Cu1      1.0000 0.22961  0.23951  0.44737  Biso   1.000  Cu
  Cu2      1.0000 0.77039  0.76049  0.55263  Biso   1.000  Cu
  P1       1.0000 0.05562  0.07119  0.35569  Biso   1.000  P
  P2       1.0000 0.94438  0.92881  0.64431  Biso   1.000  P
  P3       1.0000 0.31367  0.38022  0.36771  Biso   1.000  P
  P4       1.0000 0.68633  0.61978  0.63229  Biso   1.000  P
  O1       1.0000 0.22630  0.31380  0.63320  Biso   1.000  O
  O2       1.0000 0.77370  0.68620  0.36680  Biso   1.000  O
  O3       1.0000 0.38960  0.17410  0.48360  Biso   1.000  O
  O4       1.0000 0.61040  0.82590  0.51640  Biso   1.000  O
  C1       1.0000 0.07480  0.95650  0.21220  Biso   1.000  C
  C2       1.0000 0.92520  0.04350  0.78780  Biso   1.000  C
  C3       1.0000 0.98730  0.91010  0.10220  Biso   1.000  C
  C4       1.0000 0.01270  0.08990  0.89780  Biso   1.000  C
  H1       1.0000 0.91350  0.93880  0.09840  Biso   1.000  H
  H2       1.0000 0.08650  0.06120  0.90160  Biso   1.000  H
  C5       1.0000 0.00960  0.82150  0.99860  Biso   1.000  C
  C6       1.0000 0.99040  0.17850  0.00140  Biso   1.000  C
  H3       1.0000 0.95020  0.79060  0.92560  Biso   1.000  H
  H4       1.0000 0.04980  0.20940  0.07440  Biso   1.000  H
  C7       1.0000 0.11770  0.77890  0.00240  Biso   1.000  C
  C8       1.0000 0.88230  0.22110  0.99760  Biso   1.000  C
  H5       1.0000 0.13200  0.71940  0.93220  Biso   1.000  H
  H6       1.0000 0.86800  0.28060  0.06780  Biso   1.000  H
  C9       1.0000 0.20530  0.82420  0.11020  Biso   1.000  C
  C10      1.0000 0.79470  0.17580  0.88980  Biso   1.000  C
  H7       1.0000 0.27840  0.79440  0.11330  Biso   1.000  H
  H8       1.0000 0.72160  0.20560  0.88670  Biso   1.000  H
  C11      1.0000 0.18520  0.91370  0.21340  Biso   1.000  C
  C12      1.0000 0.81480  0.08630  0.78660  Biso   1.000  C
  H9       1.0000 0.24670  0.94590  0.28520  Biso   1.000  H
  H10      1.0000 0.75330  0.05410  0.71480  Biso   1.000  H
  C13      1.0000 0.89980  0.10150  0.32170  Biso   1.000  C
  C14      1.0000 0.10020  0.89850  0.67830  Biso   1.000  C
  C15      1.0000 0.78140  0.02030  0.30920  Biso   1.000  C
  C16      1.0000 0.21860  0.97970  0.69080  Biso   1.000  C
  H11      1.0000 0.77900  0.94350  0.31390  Biso   1.000  H
  H12      1.0000 0.22100  0.05650  0.68610  Biso   1.000  H
  C17      1.0000 0.66750  0.05140  0.28990  Biso   1.000  C
  C18      1.0000 0.33250  0.94860  0.71010  Biso   1.000  C
  H13      1.0000 0.58860  0.99560  0.28100  Biso   1.000  H
  H14      1.0000 0.41140  0.00440  0.71900  Biso   1.000  H
  C19      1.0000 0.66980  0.16520  0.28360  Biso   1.000  C
  C20      1.0000 0.33020  0.83480  0.71640  Biso   1.000  C
  H15      1.0000 0.59280  0.18740  0.27290  Biso   1.000  H
  H16      1.0000 0.40720  0.81260  0.72710  Biso   1.000  H
  C21      1.0000 0.78420  0.24410  0.29320  Biso   1.000  C
  C22      1.0000 0.21580  0.75590  0.70680  Biso   1.000  C
  H17      1.0000 0.78530  0.31960  0.28610  Biso   1.000  H
  H18      1.0000 0.21470  0.68040  0.71390  Biso   1.000  H
  C23      1.0000 0.89990  0.21490  0.31330  Biso   1.000  C
  C24      1.0000 0.10010  0.78510  0.68670  Biso   1.000  C
  H19      1.0000 0.97800  0.27130  0.32130  Biso   1.000  H
  H20      1.0000 0.02200  0.72870  0.67870  Biso   1.000  H
  C25      1.0000 0.01980  0.96770  0.43920  Biso   1.000  C
  C26      1.0000 0.98020  0.03230  0.56080  Biso   1.000  C
  H21      1.0000 0.08800  0.95000  0.45000  Biso   1.000  H
  H22      1.0000 0.91200  0.05000  0.55000  Biso   1.000  H
  H23      1.0000 0.96100  0.90900  0.39800  Biso   1.000  H
  H24      1.0000 0.03900  0.09100  0.60200  Biso   1.000  H
  C27      1.0000 0.44560  0.51700  0.46930  Biso   1.000  C
  C28      1.0000 0.55440  0.48300  0.53070  Biso   1.000  C
  H25      1.0000 0.40700  0.56100  0.52100  Biso   1.000  H
  H26      1.0000 0.59300  0.43900  0.47900  Biso   1.000  H
  H27      1.0000 0.48400  0.56000  0.42800  Biso   1.000  H
  H28      1.0000 0.51600  0.44000  0.57200  Biso   1.000  H
  C29      1.0000 0.38260  0.30680  0.23440  Biso   1.000  C
  C30      1.0000 0.61740  0.69320  0.76560  Biso   1.000  C
  C31      1.0000 0.32480  0.18210  0.16020  Biso   1.000  C
  C32      1.0000 0.67520  0.81790  0.83980  Biso   1.000  C
  H29      1.0000 0.25500  0.13870  0.18190  Biso   1.000  H
  H30      1.0000 0.74500  0.86130  0.81810  Biso   1.000  H
  C33      1.0000 0.36820  0.12100  0.05520  Biso   1.000  C
  C34      1.0000 0.63180  0.87900  0.94480  Biso   1.000  C
  H31      1.0000 0.32680  0.03780  0.00670  Biso   1.000  H
  H32      1.0000 0.67320  0.96220  0.99330  Biso   1.000  H
  C35      1.0000 0.47140  0.18190  0.02210  Biso   1.000  C
  C36      1.0000 0.52860  0.81810  0.97790  Biso   1.000  C
  H33      1.0000 0.50050  0.14080  0.95120  Biso   1.000  H
  H34      1.0000 0.49950  0.85920  0.04880  Biso   1.000  H
  C37      1.0000 0.53120  0.30370  0.09410  Biso   1.000  C
  C38      1.0000 0.46880  0.69630  0.90590  Biso   1.000  C
  H35      1.0000 0.60200  0.34510  0.07180  Biso   1.000  H
  H36      1.0000 0.39800  0.65490  0.92820  Biso   1.000  H
  C39      1.0000 0.48960  0.36700  0.19910  Biso   1.000  C
  C40      1.0000 0.51040  0.63300  0.80090  Biso   1.000  C
  H37      1.0000 0.53260  0.45000  0.24690  Biso   1.000  H
  H38      1.0000 0.46740  0.55000  0.75310  Biso   1.000  H
  C41      1.0000 0.21100  0.46130  0.31190  Biso   1.000  C
  C42      1.0000 0.78900  0.53870  0.68810  Biso   1.000  C
  C43      1.0000 0.13260  0.51940  0.38770  Biso   1.000  C
  C44      1.0000 0.86740  0.48060  0.61230  Biso   1.000  C
  H39      1.0000 0.13140  0.51370  0.46340  Biso   1.000  H
  H40      1.0000 0.86860  0.48630  0.53660  Biso   1.000  H
  C45      1.0000 0.05650  0.58530  0.35260  Biso   1.000  C
  C46      1.0000 0.94350  0.41470  0.64740  Biso   1.000  C
  H41      1.0000 0.00450  0.62330  0.40440  Biso   1.000  H
  H42      1.0000 0.99550  0.37670  0.59560  Biso   1.000  H
  C47      1.0000 0.05760  0.59470  0.24110  Biso   1.000  C
  C48      1.0000 0.94240  0.40530  0.75890  Biso   1.000  C
  H43      1.0000 0.00770  0.64050  0.21780  Biso   1.000  H
  H44      1.0000 0.99230  0.35950  0.78220  Biso   1.000  H
  C49      1.0000 0.13230  0.53670  0.16510  Biso   1.000  C
  C50      1.0000 0.86770  0.46330  0.83490  Biso   1.000  C
  H45      1.0000 0.13100  0.54130  0.08870  Biso   1.000  H
  H46      1.0000 0.86900  0.45870  0.91130  Biso   1.000  H
  C51      1.0000 0.20930  0.47150  0.19890  Biso   1.000  C
  C52      1.0000 0.79070  0.52850  0.80110  Biso   1.000  C
  H47      1.0000 0.26070  0.43380  0.14610  Biso   1.000  H
  H48      1.0000 0.73930  0.56620  0.85390  Biso   1.000  H
  C53      1.0000 0.28230  0.36670  0.84550  Biso   1.000  C
  C54      1.0000 0.71770  0.63330  0.15450  Biso   1.000  C
  H49      1.0000 0.20350  0.39260  0.84470  Biso   1.000  H
  H50      1.0000 0.79650  0.60740  0.15530  Biso   1.000  H
  H51      1.0000 0.35310  0.43700  0.89580  Biso   1.000  H
  H52      1.0000 0.64690  0.56300  0.10420  Biso   1.000  H
  H53      1.0000 0.27410  0.30310  0.87810  Biso   1.000  H
  H54      1.0000 0.72590  0.69690  0.12190  Biso   1.000  H
  C55      1.0000 0.30820  0.31460  0.71480  Biso   1.000  C
  C56      1.0000 0.69180  0.68540  0.28520  Biso   1.000  C
  C57      1.0000 0.42000  0.27290  0.70080  Biso   1.000  C
  C58      1.0000 0.58000  0.72710  0.29920  Biso   1.000  C
  H55      1.0000 0.48200  0.29100  0.78300  Biso   1.000  H
  H56      1.0000 0.51800  0.70900  0.21700  Biso   1.000  H
  C59      1.0000 0.45490  0.20760  0.58850  Biso   1.000  C
  C60      1.0000 0.54510  0.79240  0.41150  Biso   1.000  C
  C61      1.0000 0.58490  0.17720  0.59510  Biso   1.000  C
  C62      1.0000 0.41510  0.82280  0.40490  Biso   1.000  C
  H57      1.0000 0.59800  0.13330  0.51370  Biso   1.000  H
  H58      1.0000 0.40200  0.86670  0.48630  Biso   1.000  H
  H59      1.0000 0.58630  0.12580  0.64120  Biso   1.000  H
  H60      1.0000 0.41370  0.87420  0.35880  Biso   1.000  H
  H61      1.0000 0.65280  0.25330  0.63460  Biso   1.000  H
  H62      1.0000 0.34720  0.74670  0.36540  Biso   1.000  H
