data_image0
_cell_length_a       11.55
_cell_length_b       19.536
_cell_length_c       21.991
_cell_angle_alpha    90
_cell_angle_beta     90
_cell_angle_gamma    90

_symmetry_space_group_name_H-M    "P 1"
_symmetry_int_tables_number       1

loop_
  _symmetry_equiv_pos_as_xyz
  'x, y, z'

loop_
  _atom_site_label
  _atom_site_occupancy
  _atom_site_fract_x
  _atom_site_fract_y
  _atom_site_fract_z
  _atom_site_thermal_displace_type
  _atom_site_B_iso_or_equiv
  _atom_site_type_symbol
  Nd1      1.0000 0.52241  0.28398  0.01777  Biso   1.000  Nd
  Nd2      1.0000 0.97759  0.71602  0.51777  Biso   1.000  Nd
  Nd3      1.0000 0.02241  0.21602  0.98223  Biso   1.000  Nd
  Nd4      1.0000 0.47759  0.78398  0.48223  Biso   1.000  Nd
  Nd5      1.0000 0.47759  0.71602  0.98223  Biso   1.000  Nd
  Nd6      1.0000 0.02241  0.28398  0.48223  Biso   1.000  Nd
  Nd7      1.0000 0.97759  0.78398  0.01777  Biso   1.000  Nd
  Nd8      1.0000 0.52241  0.21602  0.51777  Biso   1.000  Nd
  O1       1.0000 0.66360  0.19445  0.02249  Biso   1.000  O
  O2       1.0000 0.83640  0.80555  0.52249  Biso   1.000  O
  O3       1.0000 0.16360  0.30555  0.97751  Biso   1.000  O
  O4       1.0000 0.33640  0.69445  0.47751  Biso   1.000  O
  O5       1.0000 0.33640  0.80555  0.97751  Biso   1.000  O
  O6       1.0000 0.16360  0.19445  0.47751  Biso   1.000  O
  O7       1.0000 0.83640  0.69445  0.02249  Biso   1.000  O
  O8       1.0000 0.66360  0.30555  0.52249  Biso   1.000  O
  C1       1.0000 0.74280  0.15017  0.02370  Biso   1.000  C
  C2       1.0000 0.75720  0.84983  0.52370  Biso   1.000  C
  C3       1.0000 0.24280  0.34983  0.97630  Biso   1.000  C
  C4       1.0000 0.25720  0.65017  0.47630  Biso   1.000  C
  C5       1.0000 0.25720  0.84983  0.97630  Biso   1.000  C
  C6       1.0000 0.24280  0.15017  0.47630  Biso   1.000  C
  C7       1.0000 0.75720  0.65017  0.02370  Biso   1.000  C
  C8       1.0000 0.74280  0.34983  0.52370  Biso   1.000  C
  O9       1.0000 0.84670  0.16120  0.01103  Biso   1.000  O
  O10      1.0000 0.65330  0.83880  0.51103  Biso   1.000  O
  O11      1.0000 0.34670  0.33880  0.98897  Biso   1.000  O
  O12      1.0000 0.15330  0.66120  0.48897  Biso   1.000  O
  O13      1.0000 0.15330  0.83880  0.98897  Biso   1.000  O
  O14      1.0000 0.34670  0.16120  0.48897  Biso   1.000  O
  O15      1.0000 0.65330  0.66120  0.01103  Biso   1.000  O
  O16      1.0000 0.84670  0.33880  0.51103  Biso   1.000  O
  C9       1.0000 0.71030  0.07813  0.04223  Biso   1.000  C
  C10      1.0000 0.78970  0.92187  0.54223  Biso   1.000  C
  C11      1.0000 0.21030  0.42187  0.95777  Biso   1.000  C
  C12      1.0000 0.28970  0.57813  0.45777  Biso   1.000  C
  C13      1.0000 0.28970  0.92187  0.95777  Biso   1.000  C
  C14      1.0000 0.21030  0.07813  0.45777  Biso   1.000  C
  C15      1.0000 0.78970  0.57813  0.04223  Biso   1.000  C
  C16      1.0000 0.71030  0.42187  0.54223  Biso   1.000  C
  C17      1.0000 0.59740  0.06458  0.06092  Biso   1.000  C
  C18      1.0000 0.90260  0.93542  0.56092  Biso   1.000  C
  C19      1.0000 0.09740  0.43542  0.93908  Biso   1.000  C
  C20      1.0000 0.40260  0.56458  0.43908  Biso   1.000  C
  C21      1.0000 0.40260  0.93542  0.93908  Biso   1.000  C
  C22      1.0000 0.09740  0.06458  0.43908  Biso   1.000  C
  C23      1.0000 0.90260  0.56458  0.06092  Biso   1.000  C
  C24      1.0000 0.59740  0.43542  0.56092  Biso   1.000  C
  C25      1.0000 0.79120  0.02570  0.04045  Biso   1.000  C
  C26      1.0000 0.70880  0.97430  0.54045  Biso   1.000  C
  C27      1.0000 0.29120  0.47430  0.95955  Biso   1.000  C
  C28      1.0000 0.20880  0.52570  0.45955  Biso   1.000  C
  C29      1.0000 0.20880  0.97430  0.95955  Biso   1.000  C
  C30      1.0000 0.29120  0.02570  0.45955  Biso   1.000  C
  C31      1.0000 0.70880  0.52570  0.04045  Biso   1.000  C
  C32      1.0000 0.79120  0.47430  0.54045  Biso   1.000  C
  H1       1.0000 0.54360  0.10000  0.06180  Biso   1.000  H
  H2       1.0000 0.95640  0.90000  0.56180  Biso   1.000  H
  H3       1.0000 0.04360  0.40000  0.93820  Biso   1.000  H
  H4       1.0000 0.45640  0.60000  0.43820  Biso   1.000  H
  H5       1.0000 0.45640  0.90000  0.93820  Biso   1.000  H
  H6       1.0000 0.04360  0.10000  0.43820  Biso   1.000  H
  H7       1.0000 0.95640  0.60000  0.06180  Biso   1.000  H
  H8       1.0000 0.54360  0.40000  0.56180  Biso   1.000  H
  C33      1.0000 0.56320  0.99899  0.07838  Biso   1.000  C
  C34      1.0000 0.93680  0.00101  0.57838  Biso   1.000  C
  C35      1.0000 0.06320  0.50101  0.92162  Biso   1.000  C
  C36      1.0000 0.43680  0.49899  0.42162  Biso   1.000  C
  C37      1.0000 0.43680  0.00101  0.92162  Biso   1.000  C
  C38      1.0000 0.06320  0.99899  0.42162  Biso   1.000  C
  C39      1.0000 0.93680  0.49899  0.07838  Biso   1.000  C
  C40      1.0000 0.56320  0.50101  0.57838  Biso   1.000  C
  C41      1.0000 0.75870  0.95987  0.05807  Biso   1.000  C
  C42      1.0000 0.74130  0.04013  0.55807  Biso   1.000  C
  C43      1.0000 0.25870  0.54013  0.94193  Biso   1.000  C
  C44      1.0000 0.24130  0.45987  0.44193  Biso   1.000  C
  C45      1.0000 0.24130  0.04013  0.94193  Biso   1.000  C
  C46      1.0000 0.25870  0.95987  0.44193  Biso   1.000  C
  C47      1.0000 0.74130  0.45987  0.05807  Biso   1.000  C
  C48      1.0000 0.75870  0.54013  0.55807  Biso   1.000  C
  H9       1.0000 0.86650  0.03440  0.02760  Biso   1.000  H
  H10      1.0000 0.63350  0.96560  0.52760  Biso   1.000  H
  H11      1.0000 0.36650  0.46560  0.97240  Biso   1.000  H
  H12      1.0000 0.13350  0.53440  0.47240  Biso   1.000  H
  H13      1.0000 0.13350  0.96560  0.97240  Biso   1.000  H
  H14      1.0000 0.36650  0.03440  0.47240  Biso   1.000  H
  H15      1.0000 0.63350  0.53440  0.02760  Biso   1.000  H
  H16      1.0000 0.86650  0.46560  0.52760  Biso   1.000  H
  C49      1.0000 0.64610  0.94700  0.07657  Biso   1.000  C
  C50      1.0000 0.85390  0.05300  0.57657  Biso   1.000  C
  C51      1.0000 0.14610  0.55300  0.92343  Biso   1.000  C
  C52      1.0000 0.35390  0.44700  0.42343  Biso   1.000  C
  C53      1.0000 0.35390  0.05300  0.92343  Biso   1.000  C
  C54      1.0000 0.14610  0.94700  0.42343  Biso   1.000  C
  C55      1.0000 0.85390  0.44700  0.07657  Biso   1.000  C
  C56      1.0000 0.64610  0.55300  0.57657  Biso   1.000  C
  C57      1.0000 0.44080  0.98390  0.09487  Biso   1.000  C
  C58      1.0000 0.05920  0.01610  0.59487  Biso   1.000  C
  C59      1.0000 0.94080  0.51610  0.90513  Biso   1.000  C
  C60      1.0000 0.55920  0.48390  0.40513  Biso   1.000  C
  C61      1.0000 0.55920  0.01610  0.90513  Biso   1.000  C
  C62      1.0000 0.94080  0.98390  0.40513  Biso   1.000  C
  C63      1.0000 0.05920  0.48390  0.09487  Biso   1.000  C
  C64      1.0000 0.44080  0.51610  0.59487  Biso   1.000  C
  C65      1.0000 0.84070  0.90043  0.05322  Biso   1.000  C
  C66      1.0000 0.65930  0.09957  0.55322  Biso   1.000  C
  C67      1.0000 0.34070  0.59957  0.94678  Biso   1.000  C
  C68      1.0000 0.15930  0.40043  0.44678  Biso   1.000  C
  C69      1.0000 0.15930  0.09957  0.94678  Biso   1.000  C
  C70      1.0000 0.34070  0.90043  0.44678  Biso   1.000  C
  C71      1.0000 0.65930  0.40043  0.05322  Biso   1.000  C
  C72      1.0000 0.84070  0.59957  0.55322  Biso   1.000  C
  H17      1.0000 0.62530  0.90280  0.08800  Biso   1.000  H
  H18      1.0000 0.87470  0.09720  0.58800  Biso   1.000  H
  H19      1.0000 0.12530  0.59720  0.91200  Biso   1.000  H
  H20      1.0000 0.37470  0.40280  0.41200  Biso   1.000  H
  H21      1.0000 0.37470  0.09720  0.91200  Biso   1.000  H
  H22      1.0000 0.12530  0.90280  0.41200  Biso   1.000  H
  H23      1.0000 0.87470  0.40280  0.08800  Biso   1.000  H
  H24      1.0000 0.62530  0.59720  0.58800  Biso   1.000  H
  C73      1.0000 0.35380  0.03130  0.08550  Biso   1.000  C
  C74      1.0000 0.14620  0.96870  0.58550  Biso   1.000  C
  C75      1.0000 0.85380  0.46870  0.91450  Biso   1.000  C
  C76      1.0000 0.64620  0.53130  0.41450  Biso   1.000  C
  C77      1.0000 0.64620  0.96870  0.91450  Biso   1.000  C
  C78      1.0000 0.85380  0.03130  0.41450  Biso   1.000  C
  C79      1.0000 0.14620  0.53130  0.08550  Biso   1.000  C
  C80      1.0000 0.35380  0.46870  0.58550  Biso   1.000  C
  C81      1.0000 0.40590  0.92020  0.11590  Biso   1.000  C
  C82      1.0000 0.09410  0.07980  0.61590  Biso   1.000  C
  C83      1.0000 0.90590  0.57980  0.88410  Biso   1.000  C
  C84      1.0000 0.59410  0.42020  0.38410  Biso   1.000  C
  C85      1.0000 0.59410  0.07980  0.88410  Biso   1.000  C
  C86      1.0000 0.90590  0.92020  0.38410  Biso   1.000  C
  C87      1.0000 0.09410  0.42020  0.11590  Biso   1.000  C
  C88      1.0000 0.40590  0.57980  0.61590  Biso   1.000  C
  O17      1.0000 0.94690  0.91024  0.04219  Biso   1.000  O
  O18      1.0000 0.55310  0.08976  0.54219  Biso   1.000  O
  O19      1.0000 0.44690  0.58976  0.95781  Biso   1.000  O
  O20      1.0000 0.05310  0.41024  0.45781  Biso   1.000  O
  O21      1.0000 0.05310  0.08976  0.95781  Biso   1.000  O
  O22      1.0000 0.44690  0.91024  0.45781  Biso   1.000  O
  O23      1.0000 0.55310  0.41024  0.04219  Biso   1.000  O
  O24      1.0000 0.94690  0.58976  0.54219  Biso   1.000  O
  O25      1.0000 0.80040  0.84063  0.05853  Biso   1.000  O
  O26      1.0000 0.69960  0.15937  0.55853  Biso   1.000  O
  O27      1.0000 0.30040  0.65937  0.94147  Biso   1.000  O
  O28      1.0000 0.19960  0.34063  0.44147  Biso   1.000  O
  O29      1.0000 0.19960  0.15937  0.94147  Biso   1.000  O
  O30      1.0000 0.30040  0.84063  0.44147  Biso   1.000  O
  O31      1.0000 0.69960  0.34063  0.05853  Biso   1.000  O
  O32      1.0000 0.80040  0.65937  0.55853  Biso   1.000  O
  H25      1.0000 0.37220  0.07480  0.07140  Biso   1.000  H
  H26      1.0000 0.12780  0.92520  0.57140  Biso   1.000  H
  H27      1.0000 0.87220  0.42520  0.92860  Biso   1.000  H
  H28      1.0000 0.62780  0.57480  0.42860  Biso   1.000  H
  H29      1.0000 0.62780  0.92520  0.92860  Biso   1.000  H
  H30      1.0000 0.87220  0.07480  0.42860  Biso   1.000  H
  H31      1.0000 0.12780  0.57480  0.07140  Biso   1.000  H
  H32      1.0000 0.37220  0.42520  0.57140  Biso   1.000  H
  C89      1.0000 0.24060  0.01450  0.09680  Biso   1.000  C
  C90      1.0000 0.25940  0.98550  0.59680  Biso   1.000  C
  C91      1.0000 0.74060  0.48550  0.90320  Biso   1.000  C
  C92      1.0000 0.75940  0.51450  0.40320  Biso   1.000  C
  C93      1.0000 0.75940  0.98550  0.90320  Biso   1.000  C
  C94      1.0000 0.74060  0.01450  0.40320  Biso   1.000  C
  C95      1.0000 0.25940  0.51450  0.09680  Biso   1.000  C
  C96      1.0000 0.24060  0.48550  0.59680  Biso   1.000  C
  C97      1.0000 0.29070  0.90700  0.12760  Biso   1.000  C
  C98      1.0000 0.20930  0.09300  0.62760  Biso   1.000  C
  C99      1.0000 0.79070  0.59300  0.87240  Biso   1.000  C
  C100     1.0000 0.70930  0.40700  0.37240  Biso   1.000  C
  C101     1.0000 0.70930  0.09300  0.87240  Biso   1.000  C
  C102     1.0000 0.79070  0.90700  0.37240  Biso   1.000  C
  C103     1.0000 0.20930  0.40700  0.12760  Biso   1.000  C
  C104     1.0000 0.29070  0.59300  0.62760  Biso   1.000  C
  H33      1.0000 0.46080  0.88600  0.12220  Biso   1.000  H
  H34      1.0000 0.03920  0.11400  0.62220  Biso   1.000  H
  H35      1.0000 0.96080  0.61400  0.87780  Biso   1.000  H
  H36      1.0000 0.53920  0.38600  0.37780  Biso   1.000  H
  H37      1.0000 0.53920  0.11400  0.87780  Biso   1.000  H
  H38      1.0000 0.96080  0.88600  0.37780  Biso   1.000  H
  H39      1.0000 0.03920  0.38600  0.12220  Biso   1.000  H
  H40      1.0000 0.46080  0.61400  0.62220  Biso   1.000  H
  Cu1      1.0000 0.04831  0.94003  0.14390  Biso   1.000  Cu
  Cu2      1.0000 0.45169  0.05997  0.64390  Biso   1.000  Cu
  Cu3      1.0000 0.54831  0.55997  0.85610  Biso   1.000  Cu
  Cu4      1.0000 0.95169  0.44003  0.35610  Biso   1.000  Cu
  Cu5      1.0000 0.95169  0.05997  0.85610  Biso   1.000  Cu
  Cu6      1.0000 0.54831  0.94003  0.35610  Biso   1.000  Cu
  Cu7      1.0000 0.45169  0.44003  0.14390  Biso   1.000  Cu
  Cu8      1.0000 0.04831  0.55997  0.64390  Biso   1.000  Cu
  N1       1.0000 0.20720  0.95361  0.11830  Biso   1.000  N
  N2       1.0000 0.29280  0.04639  0.61830  Biso   1.000  N
  N3       1.0000 0.70720  0.54639  0.88170  Biso   1.000  N
  N4       1.0000 0.79280  0.45361  0.38170  Biso   1.000  N
  N5       1.0000 0.79280  0.04639  0.88170  Biso   1.000  N
  N6       1.0000 0.70720  0.95361  0.38170  Biso   1.000  N
  N7       1.0000 0.29280  0.45361  0.11830  Biso   1.000  N
  N8       1.0000 0.20720  0.54639  0.61830  Biso   1.000  N
  H41      1.0000 0.18400  0.04720  0.08920  Biso   1.000  H
  H42      1.0000 0.31600  0.95280  0.58920  Biso   1.000  H
  H43      1.0000 0.68400  0.45280  0.91080  Biso   1.000  H
  H44      1.0000 0.81600  0.54720  0.41080  Biso   1.000  H
  H45      1.0000 0.81600  0.95280  0.91080  Biso   1.000  H
  H46      1.0000 0.68400  0.04720  0.41080  Biso   1.000  H
  H47      1.0000 0.31600  0.54720  0.08920  Biso   1.000  H
  H48      1.0000 0.18400  0.45280  0.58920  Biso   1.000  H
  H49      1.0000 0.27000  0.86420  0.14250  Biso   1.000  H
  H50      1.0000 0.23000  0.13580  0.64250  Biso   1.000  H
  H51      1.0000 0.77000  0.63580  0.85750  Biso   1.000  H
  H52      1.0000 0.73000  0.36420  0.35750  Biso   1.000  H
  H53      1.0000 0.73000  0.13580  0.85750  Biso   1.000  H
  H54      1.0000 0.77000  0.86420  0.35750  Biso   1.000  H
  H55      1.0000 0.23000  0.36420  0.14250  Biso   1.000  H
  H56      1.0000 0.27000  0.63580  0.64250  Biso   1.000  H
  O33      1.0000 0.01530  0.77390  0.12174  Biso   1.000  O
  O34      1.0000 0.48470  0.22610  0.62174  Biso   1.000  O
  O35      1.0000 0.51530  0.72610  0.87826  Biso   1.000  O
  O36      1.0000 0.98470  0.27390  0.37826  Biso   1.000  O
  O37      1.0000 0.98470  0.22610  0.87826  Biso   1.000  O
  O38      1.0000 0.51530  0.77390  0.37826  Biso   1.000  O
  O39      1.0000 0.48470  0.27390  0.12174  Biso   1.000  O
  O40      1.0000 0.01530  0.72610  0.62174  Biso   1.000  O
  O41      1.0000 0.12690  0.69105  0.02461  Biso   1.000  O
  O42      1.0000 0.37310  0.30895  0.52461  Biso   1.000  O
  O43      1.0000 0.62690  0.80895  0.97539  Biso   1.000  O
  O44      1.0000 0.87310  0.19105  0.47539  Biso   1.000  O
  O45      1.0000 0.87310  0.30895  0.97539  Biso   1.000  O
  O46      1.0000 0.62690  0.69105  0.47539  Biso   1.000  O
  O47      1.0000 0.37310  0.19105  0.02461  Biso   1.000  O
  O48      1.0000 0.12690  0.80895  0.52461  Biso   1.000  O
  O49      1.0000 0.86360  0.81864  0.92583  Biso   1.000  O
  O50      1.0000 0.63640  0.18136  0.42583  Biso   1.000  O
  O51      1.0000 0.36360  0.68136  0.07417  Biso   1.000  O
  O52      1.0000 0.13640  0.31864  0.57417  Biso   1.000  O
  O53      1.0000 0.13640  0.18136  0.07417  Biso   1.000  O
  O54      1.0000 0.36360  0.81864  0.57417  Biso   1.000  O
  O55      1.0000 0.63640  0.31864  0.92583  Biso   1.000  O
  O56      1.0000 0.86360  0.68136  0.42583  Biso   1.000  O
  O57      1.0000 0.99600  0.73958  0.90994  Biso   1.000  O
  O58      1.0000 0.50400  0.26042  0.40994  Biso   1.000  O
  O59      1.0000 0.49600  0.76042  0.09006  Biso   1.000  O
  O60      1.0000 0.00400  0.23958  0.59006  Biso   1.000  O
  O61      1.0000 0.00400  0.26042  0.09006  Biso   1.000  O
  O62      1.0000 0.49600  0.73958  0.59006  Biso   1.000  O
  O63      1.0000 0.50400  0.23958  0.90994  Biso   1.000  O
  O64      1.0000 0.99600  0.76042  0.40994  Biso   1.000  O
  H57      1.0000 0.15500  0.68900  0.05700  Biso   1.000  H
  H58      1.0000 0.34500  0.31100  0.55700  Biso   1.000  H
  H59      1.0000 0.65500  0.81100  0.94300  Biso   1.000  H
  H60      1.0000 0.84500  0.18900  0.44300  Biso   1.000  H
  H61      1.0000 0.84500  0.31100  0.94300  Biso   1.000  H
  H62      1.0000 0.65500  0.68900  0.44300  Biso   1.000  H
  H63      1.0000 0.34500  0.18900  0.05700  Biso   1.000  H
  H64      1.0000 0.15500  0.81100  0.55700  Biso   1.000  H
  H65      1.0000 0.19840  0.70130  0.02450  Biso   1.000  H
  H66      1.0000 0.30160  0.29870  0.52450  Biso   1.000  H
  H67      1.0000 0.69840  0.79870  0.97550  Biso   1.000  H
  H68      1.0000 0.80160  0.20130  0.47550  Biso   1.000  H
  H69      1.0000 0.80160  0.29870  0.97550  Biso   1.000  H
  H70      1.0000 0.69840  0.70130  0.47550  Biso   1.000  H
  H71      1.0000 0.30160  0.20130  0.02450  Biso   1.000  H
  H72      1.0000 0.19840  0.79870  0.52450  Biso   1.000  H
  N9       1.0000 0.93700  0.00750  0.17481  Biso   1.000  N
  N10      1.0000 0.56300  0.99250  0.67481  Biso   1.000  N
  N11      1.0000 0.43700  0.49250  0.82519  Biso   1.000  N
  N12      1.0000 0.06300  0.50750  0.32519  Biso   1.000  N
  N13      1.0000 0.06300  0.99250  0.82519  Biso   1.000  N
  N14      1.0000 0.43700  0.00750  0.32519  Biso   1.000  N
  N15      1.0000 0.56300  0.50750  0.17481  Biso   1.000  N
  N16      1.0000 0.93700  0.49250  0.67481  Biso   1.000  N
  O65      1.0000 0.02520  0.85370  0.19394  Biso   1.000  O
  O66      1.0000 0.47480  0.14630  0.69394  Biso   1.000  O
  O67      1.0000 0.52520  0.64630  0.80606  Biso   1.000  O
  O68      1.0000 0.97480  0.35370  0.30606  Biso   1.000  O
  O69      1.0000 0.97480  0.14630  0.80606  Biso   1.000  O
  O70      1.0000 0.52520  0.85370  0.30606  Biso   1.000  O
  O71      1.0000 0.47480  0.35370  0.19394  Biso   1.000  O
  O72      1.0000 0.02520  0.64630  0.69394  Biso   1.000  O
  C105     1.0000 0.99900  0.79610  0.17500  Biso   1.000  C
  C106     1.0000 0.50100  0.20390  0.67500  Biso   1.000  C
  C107     1.0000 0.49900  0.70390  0.82500  Biso   1.000  C
  C108     1.0000 0.00100  0.29610  0.32500  Biso   1.000  C
  C109     1.0000 0.00100  0.20390  0.82500  Biso   1.000  C
  C110     1.0000 0.49900  0.79610  0.32500  Biso   1.000  C
  C111     1.0000 0.50100  0.29610  0.17500  Biso   1.000  C
  C112     1.0000 0.99900  0.70390  0.67500  Biso   1.000  C
  C113     1.0000 0.93940  0.74890  0.21948  Biso   1.000  C
  C114     1.0000 0.56060  0.25110  0.71948  Biso   1.000  C
  C115     1.0000 0.43940  0.75110  0.78052  Biso   1.000  C
  C116     1.0000 0.06060  0.24890  0.28052  Biso   1.000  C
  C117     1.0000 0.06060  0.25110  0.78052  Biso   1.000  C
  C118     1.0000 0.43940  0.74890  0.28052  Biso   1.000  C
  C119     1.0000 0.56060  0.24890  0.21948  Biso   1.000  C
  C120     1.0000 0.93940  0.75110  0.71948  Biso   1.000  C
  C121     1.0000 0.86560  0.69870  0.19870  Biso   1.000  C
  C122     1.0000 0.63440  0.30130  0.69870  Biso   1.000  C
  C123     1.0000 0.36560  0.80130  0.80130  Biso   1.000  C
  C124     1.0000 0.13440  0.19870  0.30130  Biso   1.000  C
  C125     1.0000 0.13440  0.30130  0.80130  Biso   1.000  C
  C126     1.0000 0.36560  0.69870  0.30130  Biso   1.000  C
  C127     1.0000 0.63440  0.19870  0.19870  Biso   1.000  C
  C128     1.0000 0.86560  0.80130  0.69870  Biso   1.000  C
  C129     1.0000 0.95450  0.75810  0.28210  Biso   1.000  C
  C130     1.0000 0.54550  0.24190  0.78210  Biso   1.000  C
  C131     1.0000 0.45450  0.74190  0.71790  Biso   1.000  C
  C132     1.0000 0.04550  0.25810  0.21790  Biso   1.000  C
  C133     1.0000 0.04550  0.24190  0.71790  Biso   1.000  C
  C134     1.0000 0.45450  0.75810  0.21790  Biso   1.000  C
  C135     1.0000 0.54550  0.25810  0.28210  Biso   1.000  C
  C136     1.0000 0.95450  0.74190  0.78210  Biso   1.000  C
  H73      1.0000 0.85630  0.69240  0.15700  Biso   1.000  H
  H74      1.0000 0.64370  0.30760  0.65700  Biso   1.000  H
  H75      1.0000 0.35630  0.80760  0.84300  Biso   1.000  H
  H76      1.0000 0.14370  0.19240  0.34300  Biso   1.000  H
  H77      1.0000 0.14370  0.30760  0.84300  Biso   1.000  H
  H78      1.0000 0.35630  0.69240  0.34300  Biso   1.000  H
  H79      1.0000 0.64370  0.19240  0.15700  Biso   1.000  H
  H80      1.0000 0.85630  0.80760  0.65700  Biso   1.000  H
  C137     1.0000 0.80450  0.65710  0.23910  Biso   1.000  C
  C138     1.0000 0.69550  0.34290  0.73910  Biso   1.000  C
  C139     1.0000 0.30450  0.84290  0.76090  Biso   1.000  C
  C140     1.0000 0.19550  0.15710  0.26090  Biso   1.000  C
  C141     1.0000 0.19550  0.34290  0.76090  Biso   1.000  C
  C142     1.0000 0.30450  0.65710  0.26090  Biso   1.000  C
  C143     1.0000 0.69550  0.15710  0.23910  Biso   1.000  C
  C144     1.0000 0.80450  0.84290  0.73910  Biso   1.000  C
  C145     1.0000 0.89710  0.71570  0.32301  Biso   1.000  C
  C146     1.0000 0.60290  0.28430  0.82301  Biso   1.000  C
  C147     1.0000 0.39710  0.78430  0.67699  Biso   1.000  C
  C148     1.0000 0.10290  0.21570  0.17699  Biso   1.000  C
  C149     1.0000 0.10290  0.28430  0.67699  Biso   1.000  C
  C150     1.0000 0.39710  0.71570  0.17699  Biso   1.000  C
  C151     1.0000 0.60290  0.21570  0.32301  Biso   1.000  C
  C152     1.0000 0.89710  0.78430  0.82301  Biso   1.000  C
  H81      1.0000 0.00300  0.79250  0.29640  Biso   1.000  H
  H82      1.0000 0.49700  0.20750  0.79640  Biso   1.000  H
  H83      1.0000 0.50300  0.70750  0.70360  Biso   1.000  H
  H84      1.0000 0.99700  0.29250  0.20360  Biso   1.000  H
  H85      1.0000 0.99700  0.20750  0.70360  Biso   1.000  H
  H86      1.0000 0.50300  0.79250  0.20360  Biso   1.000  H
  H87      1.0000 0.49700  0.29250  0.29640  Biso   1.000  H
  H88      1.0000 0.00300  0.70750  0.79640  Biso   1.000  H
  C153     1.0000 0.72310  0.60420  0.21690  Biso   1.000  C
  C154     1.0000 0.77690  0.39580  0.71690  Biso   1.000  C
  C155     1.0000 0.22310  0.89580  0.78310  Biso   1.000  C
  C156     1.0000 0.27690  0.10420  0.28310  Biso   1.000  C
  C157     1.0000 0.27690  0.39580  0.78310  Biso   1.000  C
  C158     1.0000 0.22310  0.60420  0.28310  Biso   1.000  C
  C159     1.0000 0.77690  0.10420  0.21690  Biso   1.000  C
  C160     1.0000 0.72310  0.89580  0.71690  Biso   1.000  C
  C161     1.0000 0.82110  0.66630  0.30132  Biso   1.000  C
  C162     1.0000 0.67890  0.33370  0.80132  Biso   1.000  C
  C163     1.0000 0.32110  0.83370  0.69868  Biso   1.000  C
  C164     1.0000 0.17890  0.16630  0.19868  Biso   1.000  C
  C165     1.0000 0.17890  0.33370  0.69868  Biso   1.000  C
  C166     1.0000 0.32110  0.66630  0.19868  Biso   1.000  C
  C167     1.0000 0.67890  0.16630  0.30132  Biso   1.000  C
  C168     1.0000 0.82110  0.83370  0.80132  Biso   1.000  C
  C169     1.0000 0.92010  0.72070  0.39035  Biso   1.000  C
  C170     1.0000 0.57990  0.27930  0.89035  Biso   1.000  C
  C171     1.0000 0.42010  0.77930  0.60965  Biso   1.000  C
  C172     1.0000 0.07990  0.22070  0.10965  Biso   1.000  C
  C173     1.0000 0.07990  0.27930  0.60965  Biso   1.000  C
  C174     1.0000 0.42010  0.72070  0.10965  Biso   1.000  C
  C175     1.0000 0.57990  0.22070  0.39035  Biso   1.000  C
  C176     1.0000 0.92010  0.77930  0.89035  Biso   1.000  C
  C177     1.0000 0.64260  0.62030  0.17160  Biso   1.000  C
  C178     1.0000 0.85740  0.37970  0.67160  Biso   1.000  C
  C179     1.0000 0.14260  0.87970  0.82840  Biso   1.000  C
  C180     1.0000 0.35740  0.12030  0.32840  Biso   1.000  C
  C181     1.0000 0.35740  0.37970  0.82840  Biso   1.000  C
  C182     1.0000 0.14260  0.62030  0.32840  Biso   1.000  C
  C183     1.0000 0.85740  0.12030  0.17160  Biso   1.000  C
  C184     1.0000 0.64260  0.87970  0.67160  Biso   1.000  C
  C185     1.0000 0.72210  0.53810  0.23930  Biso   1.000  C
  C186     1.0000 0.77790  0.46190  0.73930  Biso   1.000  C
  C187     1.0000 0.22210  0.96190  0.76070  Biso   1.000  C
  C188     1.0000 0.27790  0.03810  0.26070  Biso   1.000  C
  C189     1.0000 0.27790  0.46190  0.76070  Biso   1.000  C
  C190     1.0000 0.22210  0.53810  0.26070  Biso   1.000  C
  C191     1.0000 0.77790  0.03810  0.23930  Biso   1.000  C
  C192     1.0000 0.72210  0.96190  0.73930  Biso   1.000  C
  H89      1.0000 0.78070  0.63900  0.32870  Biso   1.000  H
  H90      1.0000 0.71930  0.36100  0.82870  Biso   1.000  H
  H91      1.0000 0.28070  0.86100  0.67130  Biso   1.000  H
  H92      1.0000 0.21930  0.13900  0.17130  Biso   1.000  H
  H93      1.0000 0.21930  0.36100  0.67130  Biso   1.000  H
  H94      1.0000 0.28070  0.63900  0.17130  Biso   1.000  H
  H95      1.0000 0.71930  0.13900  0.32870  Biso   1.000  H
  H96      1.0000 0.78070  0.86100  0.82870  Biso   1.000  H
  C193     1.0000 0.56550  0.57050  0.15260  Biso   1.000  C
  C194     1.0000 0.93450  0.42950  0.65260  Biso   1.000  C
  C195     1.0000 0.06550  0.92950  0.84740  Biso   1.000  C
  C196     1.0000 0.43450  0.07050  0.34740  Biso   1.000  C
  C197     1.0000 0.43450  0.42950  0.84740  Biso   1.000  C
  C198     1.0000 0.06550  0.57050  0.34740  Biso   1.000  C
  C199     1.0000 0.93450  0.07050  0.15260  Biso   1.000  C
  C200     1.0000 0.56550  0.92950  0.65260  Biso   1.000  C
  H97      1.0000 0.64090  0.66380  0.15450  Biso   1.000  H
  H98      1.0000 0.85910  0.33620  0.65450  Biso   1.000  H
  H99      1.0000 0.14090  0.83620  0.84550  Biso   1.000  H
  H100     1.0000 0.35910  0.16380  0.34550  Biso   1.000  H
  H101     1.0000 0.35910  0.33620  0.84550  Biso   1.000  H
  H102     1.0000 0.14090  0.66380  0.34550  Biso   1.000  H
  H103     1.0000 0.85910  0.16380  0.15450  Biso   1.000  H
  H104     1.0000 0.64090  0.83620  0.65450  Biso   1.000  H
  H105     1.0000 0.77470  0.52520  0.26920  Biso   1.000  H
  H106     1.0000 0.72530  0.47480  0.76920  Biso   1.000  H
  H107     1.0000 0.27470  0.97480  0.73080  Biso   1.000  H
  H108     1.0000 0.22530  0.02520  0.23080  Biso   1.000  H
  H109     1.0000 0.22530  0.47480  0.73080  Biso   1.000  H
  H110     1.0000 0.27470  0.52520  0.23080  Biso   1.000  H
  H111     1.0000 0.72530  0.02520  0.26920  Biso   1.000  H
  H112     1.0000 0.77470  0.97480  0.76920  Biso   1.000  H
  C201     1.0000 0.64250  0.49100  0.21720  Biso   1.000  C
  C202     1.0000 0.85750  0.50900  0.71720  Biso   1.000  C
  C203     1.0000 0.14250  0.00900  0.78280  Biso   1.000  C
  C204     1.0000 0.35750  0.99100  0.28280  Biso   1.000  C
  C205     1.0000 0.35750  0.50900  0.78280  Biso   1.000  C
  C206     1.0000 0.14250  0.49100  0.28280  Biso   1.000  C
  C207     1.0000 0.85750  0.99100  0.21720  Biso   1.000  C
  C208     1.0000 0.64250  0.00900  0.71720  Biso   1.000  C
  H113     1.0000 0.51240  0.58200  0.12250  Biso   1.000  H
  H114     1.0000 0.98760  0.41800  0.62250  Biso   1.000  H
  H115     1.0000 0.01240  0.91800  0.87750  Biso   1.000  H
  H116     1.0000 0.48760  0.08200  0.37750  Biso   1.000  H
  H117     1.0000 0.48760  0.41800  0.87750  Biso   1.000  H
  H118     1.0000 0.01240  0.58200  0.37750  Biso   1.000  H
  H119     1.0000 0.98760  0.08200  0.12250  Biso   1.000  H
  H120     1.0000 0.51240  0.91800  0.62250  Biso   1.000  H
  H121     1.0000 0.64400  0.44650  0.23220  Biso   1.000  H
  H122     1.0000 0.85600  0.55350  0.73220  Biso   1.000  H
  H123     1.0000 0.14400  0.05350  0.76780  Biso   1.000  H
  H124     1.0000 0.35600  0.94650  0.26780  Biso   1.000  H
  H125     1.0000 0.35600  0.55350  0.76780  Biso   1.000  H
  H126     1.0000 0.14400  0.44650  0.26780  Biso   1.000  H
  H127     1.0000 0.85600  0.94650  0.23220  Biso   1.000  H
  H128     1.0000 0.64400  0.05350  0.73220  Biso   1.000  H
