data_image0
_cell_length_a       11.55
_cell_length_b       19.535
_cell_length_c       21.932
_cell_angle_alpha    90
_cell_angle_beta     90
_cell_angle_gamma    90

_symmetry_space_group_name_H-M    "P 1"
_symmetry_int_tables_number       1

loop_
  _symmetry_equiv_pos_as_xyz
  'x, y, z'

loop_
  _atom_site_label
  _atom_site_occupancy
  _atom_site_fract_x
  _atom_site_fract_y
  _atom_site_fract_z
  _atom_site_thermal_displace_type
  _atom_site_B_iso_or_equiv
  _atom_site_type_symbol
  Sm1      1.0000 0.47621  0.28391  0.01710  Biso   1.000  Sm
  Sm2      1.0000 0.02379  0.71609  0.51710  Biso   1.000  Sm
  Sm3      1.0000 0.97621  0.21609  0.98290  Biso   1.000  Sm
  Sm4      1.0000 0.52379  0.78391  0.48290  Biso   1.000  Sm
  Sm5      1.0000 0.52379  0.71609  0.98290  Biso   1.000  Sm
  Sm6      1.0000 0.97621  0.28391  0.48290  Biso   1.000  Sm
  Sm7      1.0000 0.02379  0.78391  0.01710  Biso   1.000  Sm
  Sm8      1.0000 0.47621  0.21609  0.51710  Biso   1.000  Sm
  O1       1.0000 0.49610  0.23940  0.91000  Biso   1.000  O
  O2       1.0000 0.00390  0.76060  0.41000  Biso   1.000  O
  O3       1.0000 0.99610  0.26060  0.09000  Biso   1.000  O
  O4       1.0000 0.50390  0.73940  0.59000  Biso   1.000  O
  O5       1.0000 0.50390  0.76060  0.09000  Biso   1.000  O
  O6       1.0000 0.99610  0.23940  0.59000  Biso   1.000  O
  O7       1.0000 0.00390  0.73940  0.91000  Biso   1.000  O
  O8       1.0000 0.49610  0.26060  0.41000  Biso   1.000  O
  O9       1.0000 0.36340  0.31850  0.92640  Biso   1.000  O
  O10      1.0000 0.13660  0.68150  0.42640  Biso   1.000  O
  O11      1.0000 0.86340  0.18150  0.07360  Biso   1.000  O
  O12      1.0000 0.63660  0.81850  0.57360  Biso   1.000  O
  O13      1.0000 0.63660  0.68150  0.07360  Biso   1.000  O
  O14      1.0000 0.86340  0.31850  0.57360  Biso   1.000  O
  O15      1.0000 0.13660  0.81850  0.92640  Biso   1.000  O
  O16      1.0000 0.36340  0.18150  0.42640  Biso   1.000  O
  C1       1.0000 0.41910  0.27940  0.89030  Biso   1.000  C
  C2       1.0000 0.08090  0.72060  0.39030  Biso   1.000  C
  C3       1.0000 0.91910  0.22060  0.10970  Biso   1.000  C
  C4       1.0000 0.58090  0.77940  0.60970  Biso   1.000  C
  C5       1.0000 0.58090  0.72060  0.10970  Biso   1.000  C
  C6       1.0000 0.91910  0.27940  0.60970  Biso   1.000  C
  C7       1.0000 0.08090  0.77940  0.89030  Biso   1.000  C
  C8       1.0000 0.41910  0.22060  0.39030  Biso   1.000  C
  C9       1.0000 0.39720  0.28380  0.82260  Biso   1.000  C
  C10      1.0000 0.10280  0.71620  0.32260  Biso   1.000  C
  C11      1.0000 0.89720  0.21620  0.17740  Biso   1.000  C
  C12      1.0000 0.60280  0.78380  0.67740  Biso   1.000  C
  C13      1.0000 0.60280  0.71620  0.17740  Biso   1.000  C
  C14      1.0000 0.89720  0.28380  0.67740  Biso   1.000  C
  C15      1.0000 0.10280  0.78380  0.82260  Biso   1.000  C
  C16      1.0000 0.39720  0.21620  0.32260  Biso   1.000  C
  C17      1.0000 0.45550  0.24290  0.78150  Biso   1.000  C
  C18      1.0000 0.04450  0.75710  0.28150  Biso   1.000  C
  C19      1.0000 0.95550  0.25710  0.21850  Biso   1.000  C
  C20      1.0000 0.54450  0.74290  0.71850  Biso   1.000  C
  C21      1.0000 0.54450  0.75710  0.21850  Biso   1.000  C
  C22      1.0000 0.95550  0.24290  0.71850  Biso   1.000  C
  C23      1.0000 0.04450  0.74290  0.78150  Biso   1.000  C
  C24      1.0000 0.45550  0.25710  0.28150  Biso   1.000  C
  C25      1.0000 0.32020  0.33370  0.80120  Biso   1.000  C
  C26      1.0000 0.17980  0.66630  0.30120  Biso   1.000  C
  C27      1.0000 0.82020  0.16630  0.19880  Biso   1.000  C
  C28      1.0000 0.67980  0.83370  0.69880  Biso   1.000  C
  C29      1.0000 0.67980  0.66630  0.19880  Biso   1.000  C
  C30      1.0000 0.82020  0.33370  0.69880  Biso   1.000  C
  C31      1.0000 0.17980  0.83370  0.80120  Biso   1.000  C
  C32      1.0000 0.32020  0.16630  0.30120  Biso   1.000  C
  C33      1.0000 0.43840  0.25090  0.71890  Biso   1.000  C
  C34      1.0000 0.06160  0.74910  0.21890  Biso   1.000  C
  C35      1.0000 0.93840  0.24910  0.28110  Biso   1.000  C
  C36      1.0000 0.56160  0.75090  0.78110  Biso   1.000  C
  C37      1.0000 0.56160  0.74910  0.28110  Biso   1.000  C
  C38      1.0000 0.93840  0.25090  0.78110  Biso   1.000  C
  C39      1.0000 0.06160  0.75090  0.71890  Biso   1.000  C
  C40      1.0000 0.43840  0.24910  0.21890  Biso   1.000  C
  H1       1.0000 0.50650  0.20970  0.79560  Biso   1.000  H
  H2       1.0000 0.99350  0.79030  0.29560  Biso   1.000  H
  H3       1.0000 0.00650  0.29030  0.20440  Biso   1.000  H
  H4       1.0000 0.49350  0.70970  0.70440  Biso   1.000  H
  H5       1.0000 0.49350  0.79030  0.20440  Biso   1.000  H
  H6       1.0000 0.00650  0.20970  0.70440  Biso   1.000  H
  H7       1.0000 0.99350  0.70970  0.79560  Biso   1.000  H
  H8       1.0000 0.50650  0.29030  0.29560  Biso   1.000  H
  C41      1.0000 0.30350  0.34290  0.73860  Biso   1.000  C
  C42      1.0000 0.19650  0.65710  0.23860  Biso   1.000  C
  C43      1.0000 0.80350  0.15710  0.26140  Biso   1.000  C
  C44      1.0000 0.69650  0.84290  0.76140  Biso   1.000  C
  C45      1.0000 0.69650  0.65710  0.26140  Biso   1.000  C
  C46      1.0000 0.80350  0.34290  0.76140  Biso   1.000  C
  C47      1.0000 0.19650  0.84290  0.73860  Biso   1.000  C
  C48      1.0000 0.30350  0.15710  0.23860  Biso   1.000  C
  H9       1.0000 0.27990  0.36090  0.82880  Biso   1.000  H
  H10      1.0000 0.22010  0.63910  0.32880  Biso   1.000  H
  H11      1.0000 0.77990  0.13910  0.17120  Biso   1.000  H
  H12      1.0000 0.72010  0.86090  0.67120  Biso   1.000  H
  H13      1.0000 0.72010  0.63910  0.17120  Biso   1.000  H
  H14      1.0000 0.77990  0.36090  0.67120  Biso   1.000  H
  H15      1.0000 0.22010  0.86090  0.82880  Biso   1.000  H
  H16      1.0000 0.27990  0.13910  0.32880  Biso   1.000  H
  C49      1.0000 0.49970  0.20420  0.67450  Biso   1.000  C
  C50      1.0000 0.00030  0.79580  0.17450  Biso   1.000  C
  C51      1.0000 0.99970  0.29580  0.32550  Biso   1.000  C
  C52      1.0000 0.50030  0.70420  0.82550  Biso   1.000  C
  C53      1.0000 0.50030  0.79580  0.32550  Biso   1.000  C
  C54      1.0000 0.99970  0.20420  0.82550  Biso   1.000  C
  C55      1.0000 0.00030  0.70420  0.67450  Biso   1.000  C
  C56      1.0000 0.49970  0.29580  0.17450  Biso   1.000  C
  C57      1.0000 0.36500  0.30150  0.69890  Biso   1.000  C
  C58      1.0000 0.13500  0.69850  0.19890  Biso   1.000  C
  C59      1.0000 0.86500  0.19850  0.30110  Biso   1.000  C
  C60      1.0000 0.63500  0.80150  0.80110  Biso   1.000  C
  C61      1.0000 0.63500  0.69850  0.30110  Biso   1.000  C
  C62      1.0000 0.86500  0.30150  0.80110  Biso   1.000  C
  C63      1.0000 0.13500  0.80150  0.69890  Biso   1.000  C
  C64      1.0000 0.36500  0.19850  0.19890  Biso   1.000  C
  C65      1.0000 0.22180  0.39640  0.71650  Biso   1.000  C
  C66      1.0000 0.27820  0.60360  0.21650  Biso   1.000  C
  C67      1.0000 0.72180  0.10360  0.28350  Biso   1.000  C
  C68      1.0000 0.77820  0.89640  0.78350  Biso   1.000  C
  C69      1.0000 0.77820  0.60360  0.28350  Biso   1.000  C
  C70      1.0000 0.72180  0.39640  0.78350  Biso   1.000  C
  C71      1.0000 0.27820  0.89640  0.71650  Biso   1.000  C
  C72      1.0000 0.22180  0.10360  0.21650  Biso   1.000  C
  O17      1.0000 0.51350  0.22680  0.62060  Biso   1.000  O
  O18      1.0000 0.98650  0.77320  0.12060  Biso   1.000  O
  O19      1.0000 0.01350  0.27320  0.37940  Biso   1.000  O
  O20      1.0000 0.48650  0.72680  0.87940  Biso   1.000  O
  O21      1.0000 0.48650  0.77320  0.37940  Biso   1.000  O
  O22      1.0000 0.01350  0.22680  0.87940  Biso   1.000  O
  O23      1.0000 0.98650  0.72680  0.62060  Biso   1.000  O
  O24      1.0000 0.51350  0.27320  0.12060  Biso   1.000  O
  O25      1.0000 0.52900  0.14770  0.69340  Biso   1.000  O
  O26      1.0000 0.97100  0.85230  0.19340  Biso   1.000  O
  O27      1.0000 0.02900  0.35230  0.30660  Biso   1.000  O
  O28      1.0000 0.47100  0.64770  0.80660  Biso   1.000  O
  O29      1.0000 0.47100  0.85230  0.30660  Biso   1.000  O
  O30      1.0000 0.02900  0.14770  0.80660  Biso   1.000  O
  O31      1.0000 0.97100  0.64770  0.69340  Biso   1.000  O
  O32      1.0000 0.52900  0.35230  0.19340  Biso   1.000  O
  H17      1.0000 0.35630  0.30820  0.65710  Biso   1.000  H
  H18      1.0000 0.14370  0.69180  0.15710  Biso   1.000  H
  H19      1.0000 0.85630  0.19180  0.34290  Biso   1.000  H
  H20      1.0000 0.64370  0.80820  0.84290  Biso   1.000  H
  H21      1.0000 0.64370  0.69180  0.34290  Biso   1.000  H
  H22      1.0000 0.85630  0.30820  0.84290  Biso   1.000  H
  H23      1.0000 0.14370  0.80820  0.65710  Biso   1.000  H
  H24      1.0000 0.35630  0.19180  0.15710  Biso   1.000  H
  C73      1.0000 0.14180  0.38070  0.67180  Biso   1.000  C
  C74      1.0000 0.35820  0.61930  0.17180  Biso   1.000  C
  C75      1.0000 0.64180  0.11930  0.32820  Biso   1.000  C
  C76      1.0000 0.85820  0.88070  0.82820  Biso   1.000  C
  C77      1.0000 0.85820  0.61930  0.32820  Biso   1.000  C
  C78      1.0000 0.64180  0.38070  0.82820  Biso   1.000  C
  C79      1.0000 0.35820  0.88070  0.67180  Biso   1.000  C
  C80      1.0000 0.14180  0.11930  0.17180  Biso   1.000  C
  C81      1.0000 0.22180  0.46280  0.73840  Biso   1.000  C
  C82      1.0000 0.27820  0.53720  0.23840  Biso   1.000  C
  C83      1.0000 0.72180  0.03720  0.26160  Biso   1.000  C
  C84      1.0000 0.77820  0.96280  0.76160  Biso   1.000  C
  C85      1.0000 0.77820  0.53720  0.26160  Biso   1.000  C
  C86      1.0000 0.72180  0.46280  0.76160  Biso   1.000  C
  C87      1.0000 0.27820  0.96280  0.73840  Biso   1.000  C
  C88      1.0000 0.22180  0.03720  0.23840  Biso   1.000  C
  Cu1      1.0000 0.54995  0.06054  0.64338  Biso   1.000  Cu
  Cu2      1.0000 0.95005  0.93946  0.14338  Biso   1.000  Cu
  Cu3      1.0000 0.04995  0.43946  0.35662  Biso   1.000  Cu
  Cu4      1.0000 0.45005  0.56054  0.85662  Biso   1.000  Cu
  Cu5      1.0000 0.45005  0.93946  0.35662  Biso   1.000  Cu
  Cu6      1.0000 0.04995  0.06054  0.85662  Biso   1.000  Cu
  Cu7      1.0000 0.95005  0.56054  0.64338  Biso   1.000  Cu
  Cu8      1.0000 0.54995  0.43946  0.14338  Biso   1.000  Cu
  H25      1.0000 0.13970  0.33700  0.65500  Biso   1.000  H
  H26      1.0000 0.36030  0.66300  0.15500  Biso   1.000  H
  H27      1.0000 0.63970  0.16300  0.34500  Biso   1.000  H
  H28      1.0000 0.86030  0.83700  0.84500  Biso   1.000  H
  H29      1.0000 0.86030  0.66300  0.34500  Biso   1.000  H
  H30      1.0000 0.63970  0.33700  0.84500  Biso   1.000  H
  H31      1.0000 0.36030  0.83700  0.65500  Biso   1.000  H
  H32      1.0000 0.13970  0.16300  0.15500  Biso   1.000  H
  C89      1.0000 0.06490  0.43030  0.65220  Biso   1.000  C
  C90      1.0000 0.43510  0.56970  0.15220  Biso   1.000  C
  C91      1.0000 0.56490  0.06970  0.34780  Biso   1.000  C
  C92      1.0000 0.93510  0.93030  0.84780  Biso   1.000  C
  C93      1.0000 0.93510  0.56970  0.34780  Biso   1.000  C
  C94      1.0000 0.56490  0.43030  0.84780  Biso   1.000  C
  C95      1.0000 0.43510  0.93030  0.65220  Biso   1.000  C
  C96      1.0000 0.06490  0.06970  0.15220  Biso   1.000  C
  C97      1.0000 0.14020  0.50860  0.71790  Biso   1.000  C
  C98      1.0000 0.35980  0.49140  0.21790  Biso   1.000  C
  C99      1.0000 0.64020  0.99140  0.28210  Biso   1.000  C
  C100     1.0000 0.85980  0.00860  0.78210  Biso   1.000  C
  C101     1.0000 0.85980  0.49140  0.28210  Biso   1.000  C
  C102     1.0000 0.64020  0.50860  0.78210  Biso   1.000  C
  C103     1.0000 0.35980  0.00860  0.71790  Biso   1.000  C
  C104     1.0000 0.14020  0.99140  0.21790  Biso   1.000  C
  H33      1.0000 0.27680  0.47640  0.76690  Biso   1.000  H
  H34      1.0000 0.22320  0.52360  0.26690  Biso   1.000  H
  H35      1.0000 0.77680  0.02360  0.23310  Biso   1.000  H
  H36      1.0000 0.72320  0.97640  0.73310  Biso   1.000  H
  H37      1.0000 0.72320  0.52360  0.23310  Biso   1.000  H
  H38      1.0000 0.77680  0.47640  0.73310  Biso   1.000  H
  H39      1.0000 0.22320  0.97640  0.76690  Biso   1.000  H
  H40      1.0000 0.27680  0.02360  0.26690  Biso   1.000  H
  O33      1.0000 0.44790  0.09030  0.54020  Biso   1.000  O
  O34      1.0000 0.05210  0.90970  0.04020  Biso   1.000  O
  O35      1.0000 0.94790  0.40970  0.45980  Biso   1.000  O
  O36      1.0000 0.55210  0.59030  0.95980  Biso   1.000  O
  O37      1.0000 0.55210  0.90970  0.45980  Biso   1.000  O
  O38      1.0000 0.94790  0.09030  0.95980  Biso   1.000  O
  O39      1.0000 0.05210  0.59030  0.54020  Biso   1.000  O
  O40      1.0000 0.44790  0.40970  0.04020  Biso   1.000  O
  N1       1.0000 0.43860  0.99290  0.67470  Biso   1.000  N
  N2       1.0000 0.06140  0.00710  0.17470  Biso   1.000  N
  N3       1.0000 0.93860  0.50710  0.32530  Biso   1.000  N
  N4       1.0000 0.56140  0.49290  0.82530  Biso   1.000  N
  N5       1.0000 0.56140  0.00710  0.32530  Biso   1.000  N
  N6       1.0000 0.93860  0.99290  0.82530  Biso   1.000  N
  N7       1.0000 0.06140  0.49290  0.67470  Biso   1.000  N
  N8       1.0000 0.43860  0.50710  0.17470  Biso   1.000  N
  N9       1.0000 0.70830  0.04570  0.61850  Biso   1.000  N
  N10      1.0000 0.79170  0.95430  0.11850  Biso   1.000  N
  N11      1.0000 0.20830  0.45430  0.38150  Biso   1.000  N
  N12      1.0000 0.29170  0.54570  0.88150  Biso   1.000  N
  N13      1.0000 0.29170  0.95430  0.38150  Biso   1.000  N
  N14      1.0000 0.20830  0.04570  0.88150  Biso   1.000  N
  N15      1.0000 0.79170  0.54570  0.61850  Biso   1.000  N
  N16      1.0000 0.70830  0.45430  0.11850  Biso   1.000  N
  H41      1.0000 0.01280  0.41890  0.62150  Biso   1.000  H
  H42      1.0000 0.48720  0.58110  0.12150  Biso   1.000  H
  H43      1.0000 0.51280  0.08110  0.37850  Biso   1.000  H
  H44      1.0000 0.98720  0.91890  0.87850  Biso   1.000  H
  H45      1.0000 0.98720  0.58110  0.37850  Biso   1.000  H
  H46      1.0000 0.51280  0.41890  0.87850  Biso   1.000  H
  H47      1.0000 0.48720  0.91890  0.62150  Biso   1.000  H
  H48      1.0000 0.01280  0.08110  0.12150  Biso   1.000  H
  H49      1.0000 0.13940  0.55240  0.73450  Biso   1.000  H
  H50      1.0000 0.36060  0.44760  0.23450  Biso   1.000  H
  H51      1.0000 0.63940  0.94760  0.26550  Biso   1.000  H
  H52      1.0000 0.86060  0.05240  0.76550  Biso   1.000  H
  H53      1.0000 0.86060  0.44760  0.26550  Biso   1.000  H
  H54      1.0000 0.63940  0.55240  0.76550  Biso   1.000  H
  H55      1.0000 0.36060  0.05240  0.73450  Biso   1.000  H
  H56      1.0000 0.13940  0.94760  0.23450  Biso   1.000  H
  C105     1.0000 0.79250  0.09270  0.62800  Biso   1.000  C
  C106     1.0000 0.70750  0.90730  0.12800  Biso   1.000  C
  C107     1.0000 0.29250  0.40730  0.37200  Biso   1.000  C
  C108     1.0000 0.20750  0.59270  0.87200  Biso   1.000  C
  C109     1.0000 0.20750  0.90730  0.37200  Biso   1.000  C
  C110     1.0000 0.29250  0.09270  0.87200  Biso   1.000  C
  C111     1.0000 0.70750  0.59270  0.62800  Biso   1.000  C
  C112     1.0000 0.79250  0.40730  0.12800  Biso   1.000  C
  C113     1.0000 0.74180  0.98470  0.59660  Biso   1.000  C
  C114     1.0000 0.75820  0.01530  0.09660  Biso   1.000  C
  C115     1.0000 0.24180  0.51530  0.40340  Biso   1.000  C
  C116     1.0000 0.25820  0.48470  0.90340  Biso   1.000  C
  C117     1.0000 0.25820  0.01530  0.40340  Biso   1.000  C
  C118     1.0000 0.24180  0.98470  0.90340  Biso   1.000  C
  C119     1.0000 0.75820  0.48470  0.59660  Biso   1.000  C
  C120     1.0000 0.74180  0.51530  0.09660  Biso   1.000  C
  C121     1.0000 0.90800  0.07910  0.61650  Biso   1.000  C
  C122     1.0000 0.59200  0.92090  0.11650  Biso   1.000  C
  C123     1.0000 0.40800  0.42090  0.38350  Biso   1.000  C
  C124     1.0000 0.09200  0.57910  0.88350  Biso   1.000  C
  C125     1.0000 0.09200  0.92090  0.38350  Biso   1.000  C
  C126     1.0000 0.40800  0.07910  0.88350  Biso   1.000  C
  C127     1.0000 0.59200  0.57910  0.61650  Biso   1.000  C
  C128     1.0000 0.90800  0.42090  0.11650  Biso   1.000  C
  H57      1.0000 0.77200  0.13570  0.64270  Biso   1.000  H
  H58      1.0000 0.72800  0.86430  0.14270  Biso   1.000  H
  H59      1.0000 0.27200  0.36430  0.35730  Biso   1.000  H
  H60      1.0000 0.22800  0.63570  0.85730  Biso   1.000  H
  H61      1.0000 0.22800  0.86430  0.35730  Biso   1.000  H
  H62      1.0000 0.27200  0.13570  0.85730  Biso   1.000  H
  H63      1.0000 0.72800  0.63570  0.64270  Biso   1.000  H
  H64      1.0000 0.77200  0.36430  0.14270  Biso   1.000  H
  C129     1.0000 0.85540  0.96890  0.58580  Biso   1.000  C
  C130     1.0000 0.64460  0.03110  0.08580  Biso   1.000  C
  C131     1.0000 0.35540  0.53110  0.41420  Biso   1.000  C
  C132     1.0000 0.14460  0.46890  0.91420  Biso   1.000  C
  C133     1.0000 0.14460  0.03110  0.41420  Biso   1.000  C
  C134     1.0000 0.35540  0.96890  0.91420  Biso   1.000  C
  C135     1.0000 0.64460  0.46890  0.58580  Biso   1.000  C
  C136     1.0000 0.85540  0.53110  0.08580  Biso   1.000  C
  H65      1.0000 0.68560  0.95190  0.58840  Biso   1.000  H
  H66      1.0000 0.81440  0.04810  0.08840  Biso   1.000  H
  H67      1.0000 0.18560  0.54810  0.41160  Biso   1.000  H
  H68      1.0000 0.31440  0.45190  0.91160  Biso   1.000  H
  H69      1.0000 0.31440  0.04810  0.41160  Biso   1.000  H
  H70      1.0000 0.18560  0.95190  0.91160  Biso   1.000  H
  H71      1.0000 0.81440  0.45190  0.58840  Biso   1.000  H
  H72      1.0000 0.68560  0.54810  0.08840  Biso   1.000  H
  H73      1.0000 0.96290  0.11300  0.62330  Biso   1.000  H
  H74      1.0000 0.53710  0.88700  0.12330  Biso   1.000  H
  H75      1.0000 0.46290  0.38700  0.37670  Biso   1.000  H
  H76      1.0000 0.03710  0.61300  0.87670  Biso   1.000  H
  H77      1.0000 0.03710  0.88700  0.37670  Biso   1.000  H
  H78      1.0000 0.46290  0.11300  0.87670  Biso   1.000  H
  H79      1.0000 0.53710  0.61300  0.62330  Biso   1.000  H
  H80      1.0000 0.96290  0.38700  0.12330  Biso   1.000  H
  C137     1.0000 0.94320  0.01600  0.59500  Biso   1.000  C
  C138     1.0000 0.55680  0.98400  0.09500  Biso   1.000  C
  C139     1.0000 0.44320  0.48400  0.40500  Biso   1.000  C
  C140     1.0000 0.05680  0.51600  0.90500  Biso   1.000  C
  C141     1.0000 0.05680  0.98400  0.40500  Biso   1.000  C
  C142     1.0000 0.44320  0.01600  0.90500  Biso   1.000  C
  C143     1.0000 0.55680  0.51600  0.59500  Biso   1.000  C
  C144     1.0000 0.94320  0.48400  0.09500  Biso   1.000  C
  H81      1.0000 0.87420  0.92530  0.57180  Biso   1.000  H
  H82      1.0000 0.62580  0.07470  0.07180  Biso   1.000  H
  H83      1.0000 0.37420  0.57470  0.42820  Biso   1.000  H
  H84      1.0000 0.12580  0.42530  0.92820  Biso   1.000  H
  H85      1.0000 0.12580  0.07470  0.42820  Biso   1.000  H
  H86      1.0000 0.37420  0.92530  0.92820  Biso   1.000  H
  H87      1.0000 0.62580  0.42530  0.57180  Biso   1.000  H
  H88      1.0000 0.87420  0.57470  0.07180  Biso   1.000  H
  C145     1.0000 0.06480  0.00150  0.57860  Biso   1.000  C
  C146     1.0000 0.43520  0.99850  0.07860  Biso   1.000  C
  C147     1.0000 0.56480  0.49850  0.42140  Biso   1.000  C
  C148     1.0000 0.93520  0.50150  0.92140  Biso   1.000  C
  C149     1.0000 0.93520  0.99850  0.42140  Biso   1.000  C
  C150     1.0000 0.56480  0.00150  0.92140  Biso   1.000  C
  C151     1.0000 0.43520  0.50150  0.57860  Biso   1.000  C
  C152     1.0000 0.06480  0.49850  0.07860  Biso   1.000  C
  C153     1.0000 0.09960  0.93470  0.56090  Biso   1.000  C
  C154     1.0000 0.40040  0.06530  0.06090  Biso   1.000  C
  C155     1.0000 0.59960  0.56530  0.43910  Biso   1.000  C
  C156     1.0000 0.90040  0.43470  0.93910  Biso   1.000  C
  C157     1.0000 0.90040  0.06530  0.43910  Biso   1.000  C
  C158     1.0000 0.59960  0.93470  0.93910  Biso   1.000  C
  C159     1.0000 0.40040  0.43470  0.56090  Biso   1.000  C
  C160     1.0000 0.09960  0.56530  0.06090  Biso   1.000  C
  C161     1.0000 0.14790  0.05260  0.57710  Biso   1.000  C
  C162     1.0000 0.35210  0.94740  0.07710  Biso   1.000  C
  C163     1.0000 0.64790  0.44740  0.42290  Biso   1.000  C
  C164     1.0000 0.85210  0.55260  0.92290  Biso   1.000  C
  C165     1.0000 0.85210  0.94740  0.42290  Biso   1.000  C
  C166     1.0000 0.64790  0.05260  0.92290  Biso   1.000  C
  C167     1.0000 0.35210  0.55260  0.57710  Biso   1.000  C
  C168     1.0000 0.14790  0.44740  0.07710  Biso   1.000  C
  C169     1.0000 0.21150  0.92140  0.54170  Biso   1.000  C
  C170     1.0000 0.28850  0.07860  0.04170  Biso   1.000  C
  C171     1.0000 0.71150  0.57860  0.45830  Biso   1.000  C
  C172     1.0000 0.78850  0.42140  0.95830  Biso   1.000  C
  C173     1.0000 0.78850  0.07860  0.45830  Biso   1.000  C
  C174     1.0000 0.71150  0.92140  0.95830  Biso   1.000  C
  C175     1.0000 0.28850  0.42140  0.54170  Biso   1.000  C
  C176     1.0000 0.21150  0.57860  0.04170  Biso   1.000  C
  H89      1.0000 0.04610  0.89920  0.56230  Biso   1.000  H
  H90      1.0000 0.45390  0.10080  0.06230  Biso   1.000  H
  H91      1.0000 0.54610  0.60080  0.43770  Biso   1.000  H
  H92      1.0000 0.95390  0.39920  0.93770  Biso   1.000  H
  H93      1.0000 0.95390  0.10080  0.43770  Biso   1.000  H
  H94      1.0000 0.54610  0.89920  0.93770  Biso   1.000  H
  H95      1.0000 0.45390  0.39920  0.56230  Biso   1.000  H
  H96      1.0000 0.04610  0.60080  0.06230  Biso   1.000  H
  C177     1.0000 0.26090  0.03990  0.55750  Biso   1.000  C
  C178     1.0000 0.23910  0.96010  0.05750  Biso   1.000  C
  C179     1.0000 0.76090  0.46010  0.44250  Biso   1.000  C
  C180     1.0000 0.73910  0.53990  0.94250  Biso   1.000  C
  C181     1.0000 0.73910  0.96010  0.44250  Biso   1.000  C
  C182     1.0000 0.76090  0.03990  0.94250  Biso   1.000  C
  C183     1.0000 0.23910  0.53990  0.55750  Biso   1.000  C
  C184     1.0000 0.26090  0.46010  0.05750  Biso   1.000  C
  H97      1.0000 0.12790  0.09650  0.58940  Biso   1.000  H
  H98      1.0000 0.37210  0.90350  0.08940  Biso   1.000  H
  H99      1.0000 0.62790  0.40350  0.41060  Biso   1.000  H
  H100     1.0000 0.87210  0.59650  0.91060  Biso   1.000  H
  H101     1.0000 0.87210  0.90350  0.41060  Biso   1.000  H
  H102     1.0000 0.62790  0.09650  0.91060  Biso   1.000  H
  H103     1.0000 0.37210  0.59650  0.58940  Biso   1.000  H
  H104     1.0000 0.12790  0.40350  0.08940  Biso   1.000  H
  C185     1.0000 0.24350  0.84920  0.52300  Biso   1.000  C
  C186     1.0000 0.25650  0.15080  0.02300  Biso   1.000  C
  C187     1.0000 0.74350  0.65080  0.47700  Biso   1.000  C
  C188     1.0000 0.75650  0.34920  0.97700  Biso   1.000  C
  C189     1.0000 0.75650  0.15080  0.47700  Biso   1.000  C
  C190     1.0000 0.74350  0.84920  0.97700  Biso   1.000  C
  C191     1.0000 0.25650  0.34920  0.52300  Biso   1.000  C
  C192     1.0000 0.24350  0.65080  0.02300  Biso   1.000  C
  C193     1.0000 0.29370  0.97400  0.53940  Biso   1.000  C
  C194     1.0000 0.20630  0.02600  0.03940  Biso   1.000  C
  C195     1.0000 0.79370  0.52600  0.46060  Biso   1.000  C
  C196     1.0000 0.70630  0.47400  0.96060  Biso   1.000  C
  C197     1.0000 0.70630  0.02600  0.46060  Biso   1.000  C
  C198     1.0000 0.79370  0.97400  0.96060  Biso   1.000  C
  C199     1.0000 0.20630  0.47400  0.53940  Biso   1.000  C
  C200     1.0000 0.29370  0.52600  0.03940  Biso   1.000  C
  C201     1.0000 0.34250  0.09960  0.55240  Biso   1.000  C
  C202     1.0000 0.15750  0.90040  0.05240  Biso   1.000  C
  C203     1.0000 0.84250  0.40040  0.44760  Biso   1.000  C
  C204     1.0000 0.65750  0.59960  0.94760  Biso   1.000  C
  C205     1.0000 0.65750  0.90040  0.44760  Biso   1.000  C
  C206     1.0000 0.84250  0.09960  0.94760  Biso   1.000  C
  C207     1.0000 0.15750  0.59960  0.55240  Biso   1.000  C
  C208     1.0000 0.34250  0.40040  0.05240  Biso   1.000  C
  O41      1.0000 0.16380  0.80520  0.52130  Biso   1.000  O
  O42      1.0000 0.33620  0.19480  0.02130  Biso   1.000  O
  O43      1.0000 0.66380  0.69480  0.47870  Biso   1.000  O
  O44      1.0000 0.83620  0.30520  0.97870  Biso   1.000  O
  O45      1.0000 0.83620  0.19480  0.47870  Biso   1.000  O
  O46      1.0000 0.66380  0.80520  0.97870  Biso   1.000  O
  O47      1.0000 0.33620  0.30520  0.52130  Biso   1.000  O
  O48      1.0000 0.16380  0.69480  0.02130  Biso   1.000  O
  O49      1.0000 0.34840  0.83760  0.51060  Biso   1.000  O
  O50      1.0000 0.15160  0.16240  0.01060  Biso   1.000  O
  O51      1.0000 0.84840  0.66240  0.48940  Biso   1.000  O
  O52      1.0000 0.65160  0.33760  0.98940  Biso   1.000  O
  O53      1.0000 0.65160  0.16240  0.48940  Biso   1.000  O
  O54      1.0000 0.84840  0.83760  0.98940  Biso   1.000  O
  O55      1.0000 0.15160  0.33760  0.51060  Biso   1.000  O
  O56      1.0000 0.34840  0.66240  0.01060  Biso   1.000  O
  H105     1.0000 0.36860  0.96530  0.52600  Biso   1.000  H
  H106     1.0000 0.13140  0.03470  0.02600  Biso   1.000  H
  H107     1.0000 0.86860  0.53470  0.47400  Biso   1.000  H
  H108     1.0000 0.63140  0.46530  0.97400  Biso   1.000  H
  H109     1.0000 0.63140  0.03470  0.47400  Biso   1.000  H
  H110     1.0000 0.86860  0.96530  0.97400  Biso   1.000  H
  H111     1.0000 0.13140  0.46530  0.52600  Biso   1.000  H
  H112     1.0000 0.36860  0.53470  0.02600  Biso   1.000  H
  O57      1.0000 0.30070  0.15990  0.55800  Biso   1.000  O
  O58      1.0000 0.19930  0.84010  0.05800  Biso   1.000  O
  O59      1.0000 0.80070  0.34010  0.44200  Biso   1.000  O
  O60      1.0000 0.69930  0.65990  0.94200  Biso   1.000  O
  O61      1.0000 0.69930  0.84010  0.44200  Biso   1.000  O
  O62      1.0000 0.80070  0.15990  0.94200  Biso   1.000  O
  O63      1.0000 0.19930  0.65990  0.55800  Biso   1.000  O
  O64      1.0000 0.30070  0.34010  0.05800  Biso   1.000  O
  O65      1.0000 0.62390  0.30790  0.52480  Biso   1.000  O
  O66      1.0000 0.87610  0.69210  0.02480  Biso   1.000  O
  O67      1.0000 0.12390  0.19210  0.47520  Biso   1.000  O
  O68      1.0000 0.37610  0.80790  0.97520  Biso   1.000  O
  O69      1.0000 0.37610  0.69210  0.47520  Biso   1.000  O
  O70      1.0000 0.12390  0.30790  0.97520  Biso   1.000  O
  O71      1.0000 0.87610  0.80790  0.52480  Biso   1.000  O
  O72      1.0000 0.62390  0.19210  0.02480  Biso   1.000  O
  H113     1.0000 0.64320  0.33050  0.49320  Biso   1.000  H
  H114     1.0000 0.85680  0.66950  0.99320  Biso   1.000  H
  H115     1.0000 0.14320  0.16950  0.50680  Biso   1.000  H
  H116     1.0000 0.35680  0.83050  0.00680  Biso   1.000  H
  H117     1.0000 0.35680  0.66950  0.50680  Biso   1.000  H
  H118     1.0000 0.14320  0.33050  0.00680  Biso   1.000  H
  H119     1.0000 0.85680  0.83050  0.49320  Biso   1.000  H
  H120     1.0000 0.64320  0.16950  0.99320  Biso   1.000  H
  H121     1.0000 0.65510  0.31690  0.55900  Biso   1.000  H
  H122     1.0000 0.84490  0.68310  0.05900  Biso   1.000  H
  H123     1.0000 0.15510  0.18310  0.44100  Biso   1.000  H
  H124     1.0000 0.34490  0.81690  0.94100  Biso   1.000  H
  H125     1.0000 0.34490  0.68310  0.44100  Biso   1.000  H
  H126     1.0000 0.15510  0.31690  0.94100  Biso   1.000  H
  H127     1.0000 0.84490  0.81690  0.55900  Biso   1.000  H
  H128     1.0000 0.65510  0.18310  0.05900  Biso   1.000  H
