data_image0
_cell_length_a       11.61
_cell_length_b       19.615
_cell_length_c       22.072
_cell_angle_alpha    90
_cell_angle_beta     90
_cell_angle_gamma    90

_symmetry_space_group_name_H-M    "P 1"
_symmetry_int_tables_number       1

loop_
  _symmetry_equiv_pos_as_xyz
  'x, y, z'

loop_
  _atom_site_label
  _atom_site_occupancy
  _atom_site_fract_x
  _atom_site_fract_y
  _atom_site_fract_z
  _atom_site_thermal_displace_type
  _atom_site_B_iso_or_equiv
  _atom_site_type_symbol
  N1       1.0000 0.29300  0.45400  0.88160  Biso   1.000  N
  N2       1.0000 0.20700  0.54600  0.38160  Biso   1.000  N
  N3       1.0000 0.79300  0.04600  0.11840  Biso   1.000  N
  N4       1.0000 0.70700  0.95400  0.61840  Biso   1.000  N
  N5       1.0000 0.70700  0.54600  0.11840  Biso   1.000  N
  N6       1.0000 0.79300  0.45400  0.61840  Biso   1.000  N
  N7       1.0000 0.20700  0.95400  0.88160  Biso   1.000  N
  N8       1.0000 0.29300  0.04600  0.38160  Biso   1.000  N
  O1       1.0000 0.37040  0.19120  0.97470  Biso   1.000  O
  O2       1.0000 0.12960  0.80880  0.47470  Biso   1.000  O
  O3       1.0000 0.87040  0.30880  0.02530  Biso   1.000  O
  O4       1.0000 0.62960  0.69120  0.52530  Biso   1.000  O
  O5       1.0000 0.62960  0.80880  0.02530  Biso   1.000  O
  O6       1.0000 0.87040  0.19120  0.52530  Biso   1.000  O
  O7       1.0000 0.12960  0.69120  0.97470  Biso   1.000  O
  O8       1.0000 0.37040  0.30880  0.47470  Biso   1.000  O
  Pr1      1.0000 0.52175  0.28398  0.98201  Biso   1.000  Pr
  Pr2      1.0000 0.97825  0.71602  0.48201  Biso   1.000  Pr
  Pr3      1.0000 0.02175  0.21602  0.01799  Biso   1.000  Pr
  Pr4      1.0000 0.47825  0.78398  0.51799  Biso   1.000  Pr
  Pr5      1.0000 0.47825  0.71602  0.01799  Biso   1.000  Pr
  Pr6      1.0000 0.02175  0.28398  0.51799  Biso   1.000  Pr
  Pr7      1.0000 0.97825  0.78398  0.98201  Biso   1.000  Pr
  Pr8      1.0000 0.52175  0.21602  0.48201  Biso   1.000  Pr
  Cu1      1.0000 0.45154  0.44048  0.85565  Biso   1.000  Cu
  Cu2      1.0000 0.04846  0.55952  0.35565  Biso   1.000  Cu
  Cu3      1.0000 0.95154  0.05952  0.14435  Biso   1.000  Cu
  Cu4      1.0000 0.54846  0.94048  0.64435  Biso   1.000  Cu
  Cu5      1.0000 0.54846  0.55952  0.14435  Biso   1.000  Cu
  Cu6      1.0000 0.95154  0.44048  0.64435  Biso   1.000  Cu
  Cu7      1.0000 0.04846  0.94048  0.85565  Biso   1.000  Cu
  Cu8      1.0000 0.45154  0.05952  0.35565  Biso   1.000  Cu
  O9       1.0000 0.69990  0.34057  0.94106  Biso   1.000  O
  O10      1.0000 0.80010  0.65943  0.44106  Biso   1.000  O
  O11      1.0000 0.19990  0.15943  0.05894  Biso   1.000  O
  O12      1.0000 0.30010  0.84057  0.55894  Biso   1.000  O
  O13      1.0000 0.30010  0.65943  0.05894  Biso   1.000  O
  O14      1.0000 0.19990  0.34057  0.55894  Biso   1.000  O
  O15      1.0000 0.80010  0.84057  0.94106  Biso   1.000  O
  O16      1.0000 0.69990  0.15943  0.44106  Biso   1.000  O
  O17      1.0000 0.55380  0.41060  0.95750  Biso   1.000  O
  O18      1.0000 0.94620  0.58940  0.45750  Biso   1.000  O
  O19      1.0000 0.05380  0.08940  0.04250  Biso   1.000  O
  O20      1.0000 0.44620  0.91060  0.54250  Biso   1.000  O
  O21      1.0000 0.44620  0.58940  0.04250  Biso   1.000  O
  O22      1.0000 0.05380  0.41060  0.54250  Biso   1.000  O
  O23      1.0000 0.94620  0.91060  0.95750  Biso   1.000  O
  O24      1.0000 0.55380  0.08940  0.45750  Biso   1.000  O
  O25      1.0000 0.65380  0.66110  0.98860  Biso   1.000  O
  O26      1.0000 0.84620  0.33890  0.48860  Biso   1.000  O
  O27      1.0000 0.15380  0.83890  0.01140  Biso   1.000  O
  O28      1.0000 0.34620  0.16110  0.51140  Biso   1.000  O
  O29      1.0000 0.34620  0.33890  0.01140  Biso   1.000  O
  O30      1.0000 0.15380  0.66110  0.51140  Biso   1.000  O
  O31      1.0000 0.84620  0.16110  0.98860  Biso   1.000  O
  O32      1.0000 0.65380  0.83890  0.48860  Biso   1.000  O
  O33      1.0000 0.83670  0.69379  0.97700  Biso   1.000  O
  O34      1.0000 0.66330  0.30621  0.47700  Biso   1.000  O
  O35      1.0000 0.33670  0.80621  0.02300  Biso   1.000  O
  O36      1.0000 0.16330  0.19379  0.52300  Biso   1.000  O
  O37      1.0000 0.16330  0.30621  0.02300  Biso   1.000  O
  O38      1.0000 0.33670  0.69379  0.52300  Biso   1.000  O
  O39      1.0000 0.66330  0.19379  0.97700  Biso   1.000  O
  O40      1.0000 0.83670  0.80621  0.47700  Biso   1.000  O
  O41      1.0000 0.63690  0.18180  0.57428  Biso   1.000  O
  O42      1.0000 0.86310  0.81820  0.07428  Biso   1.000  O
  O43      1.0000 0.13690  0.31820  0.42572  Biso   1.000  O
  O44      1.0000 0.36310  0.68180  0.92572  Biso   1.000  O
  O45      1.0000 0.36310  0.81820  0.42572  Biso   1.000  O
  O46      1.0000 0.13690  0.18180  0.92572  Biso   1.000  O
  O47      1.0000 0.86310  0.68180  0.57428  Biso   1.000  O
  O48      1.0000 0.63690  0.31820  0.07428  Biso   1.000  O
  O49      1.0000 0.50390  0.26080  0.59033  Biso   1.000  O
  O50      1.0000 0.99610  0.73920  0.09033  Biso   1.000  O
  O51      1.0000 0.00390  0.23920  0.40967  Biso   1.000  O
  O52      1.0000 0.49610  0.76080  0.90967  Biso   1.000  O
  O53      1.0000 0.49610  0.73920  0.40967  Biso   1.000  O
  O54      1.0000 0.00390  0.26080  0.90967  Biso   1.000  O
  O55      1.0000 0.99610  0.76080  0.59033  Biso   1.000  O
  O56      1.0000 0.50390  0.23920  0.09033  Biso   1.000  O
  O57      1.0000 0.48380  0.27460  0.87742  Biso   1.000  O
  O58      1.0000 0.01620  0.72540  0.37742  Biso   1.000  O
  O59      1.0000 0.98380  0.22540  0.12258  Biso   1.000  O
  O60      1.0000 0.51620  0.77460  0.62258  Biso   1.000  O
  O61      1.0000 0.51620  0.72540  0.12258  Biso   1.000  O
  O62      1.0000 0.98380  0.27460  0.62258  Biso   1.000  O
  O63      1.0000 0.01620  0.77460  0.87742  Biso   1.000  O
  O64      1.0000 0.48380  0.22540  0.37742  Biso   1.000  O
  O65      1.0000 0.47620  0.35450  0.80560  Biso   1.000  O
  O66      1.0000 0.02380  0.64550  0.30560  Biso   1.000  O
  O67      1.0000 0.97620  0.14550  0.19440  Biso   1.000  O
  O68      1.0000 0.52380  0.85450  0.69440  Biso   1.000  O
  O69      1.0000 0.52380  0.64550  0.19440  Biso   1.000  O
  O70      1.0000 0.97620  0.35450  0.69440  Biso   1.000  O
  O71      1.0000 0.02380  0.85450  0.80560  Biso   1.000  O
  O72      1.0000 0.47620  0.14550  0.30560  Biso   1.000  O
  H1       1.0000 0.34170  0.17850  0.93720  Biso   1.000  H
  H2       1.0000 0.15830  0.82150  0.43720  Biso   1.000  H
  H3       1.0000 0.84170  0.32150  0.06280  Biso   1.000  H
  H4       1.0000 0.65830  0.67850  0.56280  Biso   1.000  H
  H5       1.0000 0.65830  0.82150  0.06280  Biso   1.000  H
  H6       1.0000 0.84170  0.17850  0.56280  Biso   1.000  H
  H7       1.0000 0.15830  0.67850  0.93720  Biso   1.000  H
  H8       1.0000 0.34170  0.32150  0.43720  Biso   1.000  H
  H9       1.0000 0.34380  0.17000  0.00980  Biso   1.000  H
  H10      1.0000 0.15620  0.83000  0.50980  Biso   1.000  H
  H11      1.0000 0.84380  0.33000  0.99020  Biso   1.000  H
  H12      1.0000 0.65620  0.67000  0.49020  Biso   1.000  H
  H13      1.0000 0.65620  0.83000  0.99020  Biso   1.000  H
  H14      1.0000 0.84380  0.17000  0.49020  Biso   1.000  H
  H15      1.0000 0.15620  0.67000  0.00980  Biso   1.000  H
  H16      1.0000 0.34380  0.33000  0.50980  Biso   1.000  H
  N9       1.0000 0.93670  0.00730  0.82520  Biso   1.000  N
  N10      1.0000 0.56330  0.99270  0.32520  Biso   1.000  N
  N11      1.0000 0.43670  0.49270  0.17480  Biso   1.000  N
  N12      1.0000 0.06330  0.50730  0.67480  Biso   1.000  N
  N13      1.0000 0.06330  0.99270  0.17480  Biso   1.000  N
  N14      1.0000 0.43670  0.00730  0.67480  Biso   1.000  N
  N15      1.0000 0.56330  0.50730  0.82520  Biso   1.000  N
  N16      1.0000 0.93670  0.49270  0.32520  Biso   1.000  N
  C1       1.0000 0.20890  0.40760  0.87210  Biso   1.000  C
  C2       1.0000 0.29110  0.59240  0.37210  Biso   1.000  C
  C3       1.0000 0.70890  0.09240  0.12790  Biso   1.000  C
  C4       1.0000 0.79110  0.90760  0.62790  Biso   1.000  C
  C5       1.0000 0.79110  0.59240  0.12790  Biso   1.000  C
  C6       1.0000 0.70890  0.40760  0.62790  Biso   1.000  C
  C7       1.0000 0.29110  0.90760  0.87210  Biso   1.000  C
  C8       1.0000 0.20890  0.09240  0.37210  Biso   1.000  C
  H17      1.0000 0.22940  0.36510  0.85690  Biso   1.000  H
  H18      1.0000 0.27060  0.63490  0.35690  Biso   1.000  H
  H19      1.0000 0.72940  0.13490  0.14310  Biso   1.000  H
  H20      1.0000 0.77060  0.86510  0.64310  Biso   1.000  H
  H21      1.0000 0.77060  0.63490  0.14310  Biso   1.000  H
  H22      1.0000 0.72940  0.36510  0.64310  Biso   1.000  H
  H23      1.0000 0.27060  0.86510  0.85690  Biso   1.000  H
  H24      1.0000 0.22940  0.13490  0.35690  Biso   1.000  H
  C9       1.0000 0.09410  0.42020  0.88390  Biso   1.000  C
  C10      1.0000 0.40590  0.57980  0.38390  Biso   1.000  C
  C11      1.0000 0.59410  0.07980  0.11610  Biso   1.000  C
  C12      1.0000 0.90590  0.92020  0.61610  Biso   1.000  C
  C13      1.0000 0.90590  0.57980  0.11610  Biso   1.000  C
  C14      1.0000 0.59410  0.42020  0.61610  Biso   1.000  C
  C15      1.0000 0.40590  0.92020  0.88390  Biso   1.000  C
  C16      1.0000 0.09410  0.07980  0.38390  Biso   1.000  C
  H25      1.0000 0.03960  0.38620  0.87750  Biso   1.000  H
  H26      1.0000 0.46040  0.61380  0.37750  Biso   1.000  H
  H27      1.0000 0.53960  0.11380  0.12250  Biso   1.000  H
  H28      1.0000 0.96040  0.88620  0.62250  Biso   1.000  H
  H29      1.0000 0.96040  0.61380  0.12250  Biso   1.000  H
  H30      1.0000 0.53960  0.38620  0.62250  Biso   1.000  H
  H31      1.0000 0.46040  0.88620  0.87750  Biso   1.000  H
  H32      1.0000 0.03960  0.11380  0.37750  Biso   1.000  H
  C17      1.0000 0.05960  0.48410  0.90560  Biso   1.000  C
  C18      1.0000 0.44040  0.51590  0.40560  Biso   1.000  C
  C19      1.0000 0.55960  0.01590  0.09440  Biso   1.000  C
  C20      1.0000 0.94040  0.98410  0.59440  Biso   1.000  C
  C21      1.0000 0.94040  0.51590  0.09440  Biso   1.000  C
  C22      1.0000 0.55960  0.48410  0.59440  Biso   1.000  C
  C23      1.0000 0.44040  0.98410  0.90560  Biso   1.000  C
  C24      1.0000 0.05960  0.01590  0.40560  Biso   1.000  C
  C25      1.0000 0.14650  0.53060  0.91510  Biso   1.000  C
  C26      1.0000 0.35350  0.46940  0.41510  Biso   1.000  C
  C27      1.0000 0.64650  0.96940  0.08490  Biso   1.000  C
  C28      1.0000 0.85350  0.03060  0.58490  Biso   1.000  C
  C29      1.0000 0.85350  0.46940  0.08490  Biso   1.000  C
  C30      1.0000 0.64650  0.53060  0.58490  Biso   1.000  C
  C31      1.0000 0.35350  0.03060  0.91510  Biso   1.000  C
  C32      1.0000 0.14650  0.96940  0.41510  Biso   1.000  C
  H33      1.0000 0.12860  0.57350  0.93020  Biso   1.000  H
  H34      1.0000 0.37140  0.42650  0.43020  Biso   1.000  H
  H35      1.0000 0.62860  0.92650  0.06980  Biso   1.000  H
  H36      1.0000 0.87140  0.07350  0.56980  Biso   1.000  H
  H37      1.0000 0.87140  0.42650  0.06980  Biso   1.000  H
  H38      1.0000 0.62860  0.57350  0.56980  Biso   1.000  H
  H39      1.0000 0.37140  0.07350  0.93020  Biso   1.000  H
  H40      1.0000 0.12860  0.92650  0.43020  Biso   1.000  H
  C33      1.0000 0.25920  0.51470  0.90270  Biso   1.000  C
  C34      1.0000 0.24080  0.48530  0.40270  Biso   1.000  C
  C35      1.0000 0.75920  0.98530  0.09730  Biso   1.000  C
  C36      1.0000 0.74080  0.01470  0.59730  Biso   1.000  C
  C37      1.0000 0.74080  0.48530  0.09730  Biso   1.000  C
  C38      1.0000 0.75920  0.51470  0.59730  Biso   1.000  C
  C39      1.0000 0.24080  0.01470  0.90270  Biso   1.000  C
  C40      1.0000 0.25920  0.98530  0.40270  Biso   1.000  C
  H41      1.0000 0.31500  0.54790  0.90940  Biso   1.000  H
  H42      1.0000 0.18500  0.45210  0.40940  Biso   1.000  H
  H43      1.0000 0.81500  0.95210  0.09060  Biso   1.000  H
  H44      1.0000 0.68500  0.04790  0.59060  Biso   1.000  H
  H45      1.0000 0.68500  0.45210  0.09060  Biso   1.000  H
  H46      1.0000 0.81500  0.54790  0.59060  Biso   1.000  H
  H47      1.0000 0.18500  0.04790  0.90940  Biso   1.000  H
  H48      1.0000 0.31500  0.95210  0.40940  Biso   1.000  H
  C41      1.0000 0.93780  0.49870  0.92170  Biso   1.000  C
  C42      1.0000 0.56220  0.50130  0.42170  Biso   1.000  C
  C43      1.0000 0.43780  0.00130  0.07830  Biso   1.000  C
  C44      1.0000 0.06220  0.99870  0.57830  Biso   1.000  C
  C45      1.0000 0.06220  0.50130  0.07830  Biso   1.000  C
  C46      1.0000 0.43780  0.49870  0.57830  Biso   1.000  C
  C47      1.0000 0.56220  0.99870  0.92170  Biso   1.000  C
  C48      1.0000 0.93780  0.00130  0.42170  Biso   1.000  C
  C49      1.0000 0.85460  0.44720  0.92320  Biso   1.000  C
  C50      1.0000 0.64540  0.55280  0.42320  Biso   1.000  C
  C51      1.0000 0.35460  0.05280  0.07680  Biso   1.000  C
  C52      1.0000 0.14540  0.94720  0.57680  Biso   1.000  C
  C53      1.0000 0.14540  0.55280  0.07680  Biso   1.000  C
  C54      1.0000 0.35460  0.44720  0.57680  Biso   1.000  C
  C55      1.0000 0.64540  0.94720  0.92320  Biso   1.000  C
  C56      1.0000 0.85460  0.05280  0.42320  Biso   1.000  C
  H49      1.0000 0.87490  0.40330  0.91150  Biso   1.000  H
  H50      1.0000 0.62510  0.59670  0.41150  Biso   1.000  H
  H51      1.0000 0.37490  0.09670  0.08850  Biso   1.000  H
  H52      1.0000 0.12510  0.90330  0.58850  Biso   1.000  H
  H53      1.0000 0.12510  0.59670  0.08850  Biso   1.000  H
  H54      1.0000 0.37490  0.40330  0.58850  Biso   1.000  H
  H55      1.0000 0.62510  0.90330  0.91150  Biso   1.000  H
  H56      1.0000 0.87490  0.09670  0.41150  Biso   1.000  H
  C57      1.0000 0.74250  0.46010  0.94180  Biso   1.000  C
  C58      1.0000 0.75750  0.53990  0.44180  Biso   1.000  C
  C59      1.0000 0.24250  0.03990  0.05820  Biso   1.000  C
  C60      1.0000 0.25750  0.96010  0.55820  Biso   1.000  C
  C61      1.0000 0.25750  0.53990  0.05820  Biso   1.000  C
  C62      1.0000 0.24250  0.46010  0.55820  Biso   1.000  C
  C63      1.0000 0.75750  0.96010  0.94180  Biso   1.000  C
  C64      1.0000 0.74250  0.03990  0.44180  Biso   1.000  C
  C65      1.0000 0.65970  0.40100  0.94630  Biso   1.000  C
  C66      1.0000 0.84030  0.59900  0.44630  Biso   1.000  C
  C67      1.0000 0.15970  0.09900  0.05370  Biso   1.000  C
  C68      1.0000 0.34030  0.90100  0.55370  Biso   1.000  C
  C69      1.0000 0.34030  0.59900  0.05370  Biso   1.000  C
  C70      1.0000 0.15970  0.40100  0.55370  Biso   1.000  C
  C71      1.0000 0.84030  0.90100  0.94630  Biso   1.000  C
  C72      1.0000 0.65970  0.09900  0.44630  Biso   1.000  C
  C73      1.0000 0.70970  0.52520  0.95900  Biso   1.000  C
  C74      1.0000 0.79030  0.47480  0.45900  Biso   1.000  C
  C75      1.0000 0.20970  0.97480  0.04100  Biso   1.000  C
  C76      1.0000 0.29030  0.02520  0.54100  Biso   1.000  C
  C77      1.0000 0.29030  0.47480  0.04100  Biso   1.000  C
  C78      1.0000 0.20970  0.52520  0.54100  Biso   1.000  C
  C79      1.0000 0.79030  0.02520  0.95900  Biso   1.000  C
  C80      1.0000 0.70970  0.97480  0.45900  Biso   1.000  C
  H57      1.0000 0.63470  0.53370  0.97180  Biso   1.000  H
  H58      1.0000 0.86530  0.46630  0.47180  Biso   1.000  H
  H59      1.0000 0.13470  0.96630  0.02820  Biso   1.000  H
  H60      1.0000 0.36530  0.03370  0.52820  Biso   1.000  H
  H61      1.0000 0.36530  0.46630  0.02820  Biso   1.000  H
  H62      1.0000 0.13470  0.53370  0.52820  Biso   1.000  H
  H63      1.0000 0.86530  0.03370  0.97180  Biso   1.000  H
  H64      1.0000 0.63470  0.96630  0.47180  Biso   1.000  H
  C81      1.0000 0.79060  0.57800  0.95710  Biso   1.000  C
  C82      1.0000 0.70940  0.42200  0.45710  Biso   1.000  C
  C83      1.0000 0.29060  0.92200  0.04290  Biso   1.000  C
  C84      1.0000 0.20940  0.07800  0.54290  Biso   1.000  C
  C85      1.0000 0.20940  0.42200  0.04290  Biso   1.000  C
  C86      1.0000 0.29060  0.57800  0.54290  Biso   1.000  C
  C87      1.0000 0.70940  0.07800  0.95710  Biso   1.000  C
  C88      1.0000 0.79060  0.92200  0.45710  Biso   1.000  C
  C89      1.0000 0.90290  0.56390  0.93900  Biso   1.000  C
  C90      1.0000 0.59710  0.43610  0.43900  Biso   1.000  C
  C91      1.0000 0.40290  0.93610  0.06100  Biso   1.000  C
  C92      1.0000 0.09710  0.06390  0.56100  Biso   1.000  C
  C93      1.0000 0.09710  0.43610  0.06100  Biso   1.000  C
  C94      1.0000 0.40290  0.56390  0.56100  Biso   1.000  C
  C95      1.0000 0.59710  0.06390  0.93900  Biso   1.000  C
  C96      1.0000 0.90290  0.93610  0.43900  Biso   1.000  C
  H65      1.0000 0.95650  0.59910  0.93850  Biso   1.000  H
  H66      1.0000 0.54350  0.40090  0.43850  Biso   1.000  H
  H67      1.0000 0.45650  0.90090  0.06150  Biso   1.000  H
  H68      1.0000 0.04350  0.09910  0.56150  Biso   1.000  H
  H69      1.0000 0.04350  0.40090  0.06150  Biso   1.000  H
  H70      1.0000 0.45650  0.59910  0.56150  Biso   1.000  H
  H71      1.0000 0.54350  0.09910  0.93850  Biso   1.000  H
  H72      1.0000 0.95650  0.90090  0.43850  Biso   1.000  H
  C97      1.0000 0.75880  0.64980  0.97550  Biso   1.000  C
  C98      1.0000 0.74120  0.35020  0.47550  Biso   1.000  C
  C99      1.0000 0.25880  0.85020  0.02450  Biso   1.000  C
  C100     1.0000 0.24120  0.14980  0.52450  Biso   1.000  C
  C101     1.0000 0.24120  0.35020  0.02450  Biso   1.000  C
  C102     1.0000 0.25880  0.64980  0.52450  Biso   1.000  C
  C103     1.0000 0.74120  0.14980  0.97550  Biso   1.000  C
  C104     1.0000 0.75880  0.85020  0.47550  Biso   1.000  C
  C105     1.0000 0.85830  0.99170  0.78210  Biso   1.000  C
  C106     1.0000 0.64170  0.00830  0.28210  Biso   1.000  C
  C107     1.0000 0.35830  0.50830  0.21790  Biso   1.000  C
  C108     1.0000 0.14170  0.49170  0.71790  Biso   1.000  C
  C109     1.0000 0.14170  0.00830  0.21790  Biso   1.000  C
  C110     1.0000 0.35830  0.99170  0.71790  Biso   1.000  C
  C111     1.0000 0.64170  0.49170  0.78210  Biso   1.000  C
  C112     1.0000 0.85830  0.50830  0.28210  Biso   1.000  C
  H73      1.0000 0.85710  0.94780  0.76630  Biso   1.000  H
  H74      1.0000 0.64290  0.05220  0.26630  Biso   1.000  H
  H75      1.0000 0.35710  0.55220  0.23370  Biso   1.000  H
  H76      1.0000 0.14290  0.44780  0.73370  Biso   1.000  H
  H77      1.0000 0.14290  0.05220  0.23370  Biso   1.000  H
  H78      1.0000 0.35710  0.94780  0.73370  Biso   1.000  H
  H79      1.0000 0.64290  0.44780  0.76630  Biso   1.000  H
  H80      1.0000 0.85710  0.55220  0.26630  Biso   1.000  H
  C113     1.0000 0.77910  0.03940  0.76060  Biso   1.000  C
  C114     1.0000 0.72090  0.96060  0.26060  Biso   1.000  C
  C115     1.0000 0.27910  0.46060  0.23940  Biso   1.000  C
  C116     1.0000 0.22090  0.53940  0.73940  Biso   1.000  C
  C117     1.0000 0.22090  0.96060  0.23940  Biso   1.000  C
  C118     1.0000 0.27910  0.03940  0.73940  Biso   1.000  C
  C119     1.0000 0.72090  0.53940  0.76060  Biso   1.000  C
  C120     1.0000 0.77910  0.46060  0.26060  Biso   1.000  C
  H81      1.0000 0.72660  0.02700  0.73070  Biso   1.000  H
  H82      1.0000 0.77340  0.97300  0.23070  Biso   1.000  H
  H83      1.0000 0.22660  0.47300  0.26930  Biso   1.000  H
  H84      1.0000 0.27340  0.52700  0.76930  Biso   1.000  H
  H85      1.0000 0.27340  0.97300  0.26930  Biso   1.000  H
  H86      1.0000 0.22660  0.02700  0.76930  Biso   1.000  H
  H87      1.0000 0.77340  0.52700  0.73070  Biso   1.000  H
  H88      1.0000 0.72660  0.47300  0.23070  Biso   1.000  H
  C121     1.0000 0.77820  0.10440  0.78310  Biso   1.000  C
  C122     1.0000 0.72180  0.89560  0.28310  Biso   1.000  C
  C123     1.0000 0.27820  0.39560  0.21690  Biso   1.000  C
  C124     1.0000 0.22180  0.60440  0.71690  Biso   1.000  C
  C125     1.0000 0.22180  0.89560  0.21690  Biso   1.000  C
  C126     1.0000 0.27820  0.10440  0.71690  Biso   1.000  C
  C127     1.0000 0.72180  0.60440  0.78310  Biso   1.000  C
  C128     1.0000 0.77820  0.39560  0.28310  Biso   1.000  C
  C129     1.0000 0.85760  0.11990  0.82770  Biso   1.000  C
  C130     1.0000 0.64240  0.88010  0.32770  Biso   1.000  C
  C131     1.0000 0.35760  0.38010  0.17230  Biso   1.000  C
  C132     1.0000 0.14240  0.61990  0.67230  Biso   1.000  C
  C133     1.0000 0.14240  0.88010  0.17230  Biso   1.000  C
  C134     1.0000 0.35760  0.11990  0.67230  Biso   1.000  C
  C135     1.0000 0.64240  0.61990  0.82770  Biso   1.000  C
  C136     1.0000 0.85760  0.38010  0.32770  Biso   1.000  C
  H89      1.0000 0.85940  0.16330  0.84450  Biso   1.000  H
  H90      1.0000 0.64060  0.83670  0.34450  Biso   1.000  H
  H91      1.0000 0.35940  0.33670  0.15550  Biso   1.000  H
  H92      1.0000 0.14060  0.66330  0.65550  Biso   1.000  H
  H93      1.0000 0.14060  0.83670  0.15550  Biso   1.000  H
  H94      1.0000 0.35940  0.16330  0.65550  Biso   1.000  H
  H95      1.0000 0.64060  0.66330  0.84450  Biso   1.000  H
  H96      1.0000 0.85940  0.33670  0.34450  Biso   1.000  H
  C137     1.0000 0.93420  0.07060  0.84720  Biso   1.000  C
  C138     1.0000 0.56580  0.92940  0.34720  Biso   1.000  C
  C139     1.0000 0.43420  0.42940  0.15280  Biso   1.000  C
  C140     1.0000 0.06580  0.57060  0.65280  Biso   1.000  C
  C141     1.0000 0.06580  0.92940  0.15280  Biso   1.000  C
  C142     1.0000 0.43420  0.07060  0.65280  Biso   1.000  C
  C143     1.0000 0.56580  0.57060  0.84720  Biso   1.000  C
  C144     1.0000 0.93420  0.42940  0.34720  Biso   1.000  C
  H97      1.0000 0.98680  0.08220  0.87730  Biso   1.000  H
  H98      1.0000 0.51320  0.91780  0.37730  Biso   1.000  H
  H99      1.0000 0.48680  0.41780  0.12270  Biso   1.000  H
  H100     1.0000 0.01320  0.58220  0.62270  Biso   1.000  H
  H101     1.0000 0.01320  0.91780  0.12270  Biso   1.000  H
  H102     1.0000 0.48680  0.08220  0.62270  Biso   1.000  H
  H103     1.0000 0.51320  0.58220  0.87730  Biso   1.000  H
  H104     1.0000 0.98680  0.41780  0.37730  Biso   1.000  H
  C145     1.0000 0.69540  0.15760  0.76100  Biso   1.000  C
  C146     1.0000 0.80460  0.84240  0.26100  Biso   1.000  C
  C147     1.0000 0.19540  0.34240  0.23900  Biso   1.000  C
  C148     1.0000 0.30460  0.65760  0.73900  Biso   1.000  C
  C149     1.0000 0.30460  0.84240  0.23900  Biso   1.000  C
  C150     1.0000 0.19540  0.15760  0.73900  Biso   1.000  C
  C151     1.0000 0.80460  0.65760  0.76100  Biso   1.000  C
  C152     1.0000 0.69540  0.34240  0.26100  Biso   1.000  C
  C153     1.0000 0.63550  0.19920  0.80140  Biso   1.000  C
  C154     1.0000 0.86450  0.80080  0.30140  Biso   1.000  C
  C155     1.0000 0.13550  0.30080  0.19860  Biso   1.000  C
  C156     1.0000 0.36450  0.69920  0.69860  Biso   1.000  C
  C157     1.0000 0.36450  0.80080  0.19860  Biso   1.000  C
  C158     1.0000 0.13550  0.19920  0.69860  Biso   1.000  C
  C159     1.0000 0.86450  0.69920  0.80140  Biso   1.000  C
  C160     1.0000 0.63550  0.30080  0.30140  Biso   1.000  C
  H105     1.0000 0.64490  0.19330  0.84290  Biso   1.000  H
  H106     1.0000 0.85510  0.80670  0.34290  Biso   1.000  H
  H107     1.0000 0.14490  0.30670  0.15710  Biso   1.000  H
  H108     1.0000 0.35510  0.69330  0.65710  Biso   1.000  H
  H109     1.0000 0.35510  0.80670  0.15710  Biso   1.000  H
  H110     1.0000 0.14490  0.19330  0.65710  Biso   1.000  H
  H111     1.0000 0.85510  0.69330  0.84290  Biso   1.000  H
  H112     1.0000 0.64490  0.30670  0.34290  Biso   1.000  H
  C161     1.0000 0.56210  0.24920  0.78000  Biso   1.000  C
  C162     1.0000 0.93790  0.75080  0.28000  Biso   1.000  C
  C163     1.0000 0.06210  0.25080  0.22000  Biso   1.000  C
  C164     1.0000 0.43790  0.74920  0.72000  Biso   1.000  C
  C165     1.0000 0.43790  0.75080  0.22000  Biso   1.000  C
  C166     1.0000 0.06210  0.24920  0.72000  Biso   1.000  C
  C167     1.0000 0.93790  0.74920  0.78000  Biso   1.000  C
  C168     1.0000 0.56210  0.25080  0.28000  Biso   1.000  C
  C169     1.0000 0.50190  0.29660  0.82420  Biso   1.000  C
  C170     1.0000 0.99810  0.70340  0.32420  Biso   1.000  C
  C171     1.0000 0.00190  0.20340  0.17580  Biso   1.000  C
  C172     1.0000 0.49810  0.79660  0.67580  Biso   1.000  C
  C173     1.0000 0.49810  0.70340  0.17580  Biso   1.000  C
  C174     1.0000 0.00190  0.29660  0.67580  Biso   1.000  C
  C175     1.0000 0.99810  0.79660  0.82420  Biso   1.000  C
  C176     1.0000 0.50190  0.20340  0.32420  Biso   1.000  C
  C177     1.0000 0.54560  0.25790  0.71790  Biso   1.000  C
  C178     1.0000 0.95440  0.74210  0.21790  Biso   1.000  C
  C179     1.0000 0.04560  0.24210  0.28210  Biso   1.000  C
  C180     1.0000 0.45440  0.75790  0.78210  Biso   1.000  C
  C181     1.0000 0.45440  0.74210  0.28210  Biso   1.000  C
  C182     1.0000 0.04560  0.25790  0.78210  Biso   1.000  C
  C183     1.0000 0.95440  0.75790  0.71790  Biso   1.000  C
  C184     1.0000 0.54560  0.24210  0.21790  Biso   1.000  C
  H113     1.0000 0.49600  0.29160  0.70380  Biso   1.000  H
  H114     1.0000 0.00400  0.70840  0.20380  Biso   1.000  H
  H115     1.0000 0.99600  0.20840  0.29620  Biso   1.000  H
  H116     1.0000 0.50400  0.79160  0.79620  Biso   1.000  H
  H117     1.0000 0.50400  0.70840  0.29620  Biso   1.000  H
  H118     1.0000 0.99600  0.29160  0.79620  Biso   1.000  H
  H119     1.0000 0.00400  0.79160  0.70380  Biso   1.000  H
  H120     1.0000 0.49600  0.20840  0.20380  Biso   1.000  H
  C185     1.0000 0.60370  0.21600  0.67710  Biso   1.000  C
  C186     1.0000 0.89630  0.78400  0.17710  Biso   1.000  C
  C187     1.0000 0.10370  0.28400  0.32290  Biso   1.000  C
  C188     1.0000 0.39630  0.71600  0.82290  Biso   1.000  C
  C189     1.0000 0.39630  0.78400  0.32290  Biso   1.000  C
  C190     1.0000 0.10370  0.21600  0.82290  Biso   1.000  C
  C191     1.0000 0.89630  0.71600  0.67710  Biso   1.000  C
  C192     1.0000 0.60370  0.28400  0.17710  Biso   1.000  C
  C193     1.0000 0.67890  0.16660  0.69880  Biso   1.000  C
  C194     1.0000 0.82110  0.83340  0.19880  Biso   1.000  C
  C195     1.0000 0.17890  0.33340  0.30120  Biso   1.000  C
  C196     1.0000 0.32110  0.66660  0.80120  Biso   1.000  C
  C197     1.0000 0.32110  0.83340  0.30120  Biso   1.000  C
  C198     1.0000 0.17890  0.16660  0.80120  Biso   1.000  C
  C199     1.0000 0.82110  0.66660  0.69880  Biso   1.000  C
  C200     1.0000 0.67890  0.33340  0.19880  Biso   1.000  C
  H121     1.0000 0.71870  0.13910  0.67160  Biso   1.000  H
  H122     1.0000 0.78130  0.86090  0.17160  Biso   1.000  H
  H123     1.0000 0.21870  0.36090  0.32840  Biso   1.000  H
  H124     1.0000 0.28130  0.63910  0.82840  Biso   1.000  H
  H125     1.0000 0.28130  0.86090  0.32840  Biso   1.000  H
  H126     1.0000 0.21870  0.13910  0.82840  Biso   1.000  H
  H127     1.0000 0.78130  0.63910  0.67160  Biso   1.000  H
  H128     1.0000 0.71870  0.36090  0.17160  Biso   1.000  H
  C201     1.0000 0.58100  0.22080  0.60960  Biso   1.000  C
  C202     1.0000 0.91900  0.77920  0.10960  Biso   1.000  C
  C203     1.0000 0.08100  0.27920  0.39040  Biso   1.000  C
  C204     1.0000 0.41900  0.72080  0.89040  Biso   1.000  C
  C205     1.0000 0.41900  0.77920  0.39040  Biso   1.000  C
  C206     1.0000 0.08100  0.22080  0.89040  Biso   1.000  C
  C207     1.0000 0.91900  0.72080  0.60960  Biso   1.000  C
  C208     1.0000 0.58100  0.27920  0.10960  Biso   1.000  C
