data_image0
_cell_length_a       11.514
_cell_length_b       19.438
_cell_length_c       21.82
_cell_angle_alpha    90
_cell_angle_beta     90
_cell_angle_gamma    90

_symmetry_space_group_name_H-M    "P 1"
_symmetry_int_tables_number       1

loop_
  _symmetry_equiv_pos_as_xyz
  'x, y, z'

loop_
  _atom_site_label
  _atom_site_occupancy
  _atom_site_fract_x
  _atom_site_fract_y
  _atom_site_fract_z
  _atom_site_thermal_displace_type
  _atom_site_B_iso_or_equiv
  _atom_site_type_symbol
  Eu1      1.0000 0.97565  0.78386  0.01673  Biso   1.000  Eu
  Eu2      1.0000 0.52435  0.21614  0.51673  Biso   1.000  Eu
  Eu3      1.0000 0.47565  0.71614  0.98327  Biso   1.000  Eu
  Eu4      1.0000 0.02435  0.28386  0.48327  Biso   1.000  Eu
  Eu5      1.0000 0.02435  0.21614  0.98327  Biso   1.000  Eu
  Eu6      1.0000 0.47565  0.78386  0.48327  Biso   1.000  Eu
  Eu7      1.0000 0.52435  0.28386  0.01673  Biso   1.000  Eu
  Eu8      1.0000 0.97565  0.71614  0.51673  Biso   1.000  Eu
  O1       1.0000 0.15110  0.83683  0.98933  Biso   1.000  O
  O2       1.0000 0.34890  0.16317  0.48933  Biso   1.000  O
  O3       1.0000 0.65110  0.66317  0.01067  Biso   1.000  O
  O4       1.0000 0.84890  0.33683  0.51067  Biso   1.000  O
  O5       1.0000 0.84890  0.16317  0.01067  Biso   1.000  O
  O6       1.0000 0.65110  0.83683  0.51067  Biso   1.000  O
  O7       1.0000 0.34890  0.33683  0.98933  Biso   1.000  O
  O8       1.0000 0.15110  0.66317  0.48933  Biso   1.000  O
  C1       1.0000 0.25560  0.84840  0.97727  Biso   1.000  C
  C2       1.0000 0.24440  0.15160  0.47727  Biso   1.000  C
  C3       1.0000 0.75560  0.65160  0.02273  Biso   1.000  C
  C4       1.0000 0.74440  0.34840  0.52273  Biso   1.000  C
  C5       1.0000 0.74440  0.15160  0.02273  Biso   1.000  C
  C6       1.0000 0.75560  0.84840  0.52273  Biso   1.000  C
  C7       1.0000 0.24440  0.34840  0.97727  Biso   1.000  C
  C8       1.0000 0.25560  0.65160  0.47727  Biso   1.000  C
  O9       1.0000 0.33560  0.80450  0.97937  Biso   1.000  O
  O10      1.0000 0.16440  0.19550  0.47937  Biso   1.000  O
  O11      1.0000 0.83560  0.69550  0.02063  Biso   1.000  O
  O12      1.0000 0.66440  0.30450  0.52063  Biso   1.000  O
  O13      1.0000 0.66440  0.19550  0.02063  Biso   1.000  O
  O14      1.0000 0.83560  0.80450  0.52063  Biso   1.000  O
  O15      1.0000 0.16440  0.30450  0.97937  Biso   1.000  O
  O16      1.0000 0.33560  0.69550  0.47937  Biso   1.000  O
  C9       1.0000 0.28770  0.92090  0.95893  Biso   1.000  C
  C10      1.0000 0.21230  0.07910  0.45893  Biso   1.000  C
  C11      1.0000 0.78770  0.57910  0.04107  Biso   1.000  C
  C12      1.0000 0.71230  0.42090  0.54107  Biso   1.000  C
  C13      1.0000 0.71230  0.07910  0.04107  Biso   1.000  C
  C14      1.0000 0.78770  0.92090  0.54107  Biso   1.000  C
  C15      1.0000 0.21230  0.42090  0.95893  Biso   1.000  C
  C16      1.0000 0.28770  0.57910  0.45893  Biso   1.000  C
  C17      1.0000 0.40030  0.93430  0.93955  Biso   1.000  C
  C18      1.0000 0.09970  0.06570  0.43955  Biso   1.000  C
  C19      1.0000 0.90030  0.56570  0.06045  Biso   1.000  C
  C20      1.0000 0.59970  0.43430  0.56045  Biso   1.000  C
  C21      1.0000 0.59970  0.06570  0.06045  Biso   1.000  C
  C22      1.0000 0.90030  0.93430  0.56045  Biso   1.000  C
  C23      1.0000 0.09970  0.43430  0.93955  Biso   1.000  C
  C24      1.0000 0.40030  0.56570  0.43955  Biso   1.000  C
  C25      1.0000 0.20640  0.97360  0.96064  Biso   1.000  C
  C26      1.0000 0.29360  0.02640  0.46064  Biso   1.000  C
  C27      1.0000 0.70640  0.52640  0.03936  Biso   1.000  C
  C28      1.0000 0.79360  0.47360  0.53936  Biso   1.000  C
  C29      1.0000 0.79360  0.02640  0.03936  Biso   1.000  C
  C30      1.0000 0.70640  0.97360  0.53936  Biso   1.000  C
  C31      1.0000 0.29360  0.47360  0.96064  Biso   1.000  C
  C32      1.0000 0.20640  0.52640  0.46064  Biso   1.000  C
  H1       1.0000 0.45410  0.89870  0.93840  Biso   1.000  H
  H2       1.0000 0.04590  0.10130  0.43840  Biso   1.000  H
  H3       1.0000 0.95410  0.60130  0.06160  Biso   1.000  H
  H4       1.0000 0.54590  0.39870  0.56160  Biso   1.000  H
  H5       1.0000 0.54590  0.10130  0.06160  Biso   1.000  H
  H6       1.0000 0.95410  0.89870  0.56160  Biso   1.000  H
  H7       1.0000 0.04590  0.39870  0.93840  Biso   1.000  H
  H8       1.0000 0.45410  0.60130  0.43840  Biso   1.000  H
  C33      1.0000 0.43460  0.00050  0.92171  Biso   1.000  C
  C34      1.0000 0.06540  0.99950  0.42171  Biso   1.000  C
  C35      1.0000 0.93460  0.49950  0.07829  Biso   1.000  C
  C36      1.0000 0.56540  0.50050  0.57829  Biso   1.000  C
  C37      1.0000 0.56540  0.99950  0.07829  Biso   1.000  C
  C38      1.0000 0.93460  0.00050  0.57829  Biso   1.000  C
  C39      1.0000 0.06540  0.50050  0.92171  Biso   1.000  C
  C40      1.0000 0.43460  0.49950  0.42171  Biso   1.000  C
  H9       1.0000 0.13080  0.96480  0.97340  Biso   1.000  H
  H10      1.0000 0.36920  0.03520  0.47340  Biso   1.000  H
  H11      1.0000 0.63080  0.53520  0.02660  Biso   1.000  H
  H12      1.0000 0.86920  0.46480  0.52660  Biso   1.000  H
  H13      1.0000 0.86920  0.03520  0.02660  Biso   1.000  H
  H14      1.0000 0.63080  0.96480  0.52660  Biso   1.000  H
  H15      1.0000 0.36920  0.46480  0.97340  Biso   1.000  H
  H16      1.0000 0.13080  0.53520  0.47340  Biso   1.000  H
  C41      1.0000 0.23880  0.03990  0.94305  Biso   1.000  C
  C42      1.0000 0.26120  0.96010  0.44305  Biso   1.000  C
  C43      1.0000 0.73880  0.46010  0.05695  Biso   1.000  C
  C44      1.0000 0.76120  0.53990  0.55695  Biso   1.000  C
  C45      1.0000 0.76120  0.96010  0.05695  Biso   1.000  C
  C46      1.0000 0.73880  0.03990  0.55695  Biso   1.000  C
  C47      1.0000 0.26120  0.53990  0.94305  Biso   1.000  C
  C48      1.0000 0.23880  0.46010  0.44305  Biso   1.000  C
  C49      1.0000 0.35130  0.05240  0.92345  Biso   1.000  C
  C50      1.0000 0.14870  0.94760  0.42345  Biso   1.000  C
  C51      1.0000 0.85130  0.44760  0.07655  Biso   1.000  C
  C52      1.0000 0.64870  0.55240  0.57655  Biso   1.000  C
  C53      1.0000 0.64870  0.94760  0.07655  Biso   1.000  C
  C54      1.0000 0.85130  0.05240  0.57655  Biso   1.000  C
  C55      1.0000 0.14870  0.55240  0.92345  Biso   1.000  C
  C56      1.0000 0.35130  0.44760  0.42345  Biso   1.000  C
  C57      1.0000 0.55630  0.01590  0.90510  Biso   1.000  C
  C58      1.0000 0.94370  0.98410  0.40510  Biso   1.000  C
  C59      1.0000 0.05630  0.48410  0.09490  Biso   1.000  C
  C60      1.0000 0.44370  0.51590  0.59490  Biso   1.000  C
  C61      1.0000 0.44370  0.98410  0.09490  Biso   1.000  C
  C62      1.0000 0.05630  0.01590  0.59490  Biso   1.000  C
  C63      1.0000 0.94370  0.51590  0.90510  Biso   1.000  C
  C64      1.0000 0.55630  0.48410  0.40510  Biso   1.000  C
  C65      1.0000 0.15740  0.09950  0.94811  Biso   1.000  C
  C66      1.0000 0.34260  0.90050  0.44811  Biso   1.000  C
  C67      1.0000 0.65740  0.40050  0.05189  Biso   1.000  C
  C68      1.0000 0.84260  0.59950  0.55189  Biso   1.000  C
  C69      1.0000 0.84260  0.90050  0.05189  Biso   1.000  C
  C70      1.0000 0.65740  0.09950  0.55189  Biso   1.000  C
  C71      1.0000 0.34260  0.59950  0.94811  Biso   1.000  C
  C72      1.0000 0.15740  0.40050  0.44811  Biso   1.000  C
  H17      1.0000 0.37180  0.09650  0.91110  Biso   1.000  H
  H18      1.0000 0.12820  0.90350  0.41110  Biso   1.000  H
  H19      1.0000 0.87180  0.40350  0.08890  Biso   1.000  H
  H20      1.0000 0.62820  0.59650  0.58890  Biso   1.000  H
  H21      1.0000 0.62820  0.90350  0.08890  Biso   1.000  H
  H22      1.0000 0.87180  0.09650  0.58890  Biso   1.000  H
  H23      1.0000 0.12820  0.59650  0.91110  Biso   1.000  H
  H24      1.0000 0.37180  0.40350  0.41110  Biso   1.000  H
  C73      1.0000 0.59110  0.08000  0.88330  Biso   1.000  C
  C74      1.0000 0.90890  0.92000  0.38330  Biso   1.000  C
  C75      1.0000 0.09110  0.42000  0.11670  Biso   1.000  C
  C76      1.0000 0.40890  0.58000  0.61670  Biso   1.000  C
  C77      1.0000 0.40890  0.92000  0.11670  Biso   1.000  C
  C78      1.0000 0.09110  0.08000  0.61670  Biso   1.000  C
  C79      1.0000 0.90890  0.58000  0.88330  Biso   1.000  C
  C80      1.0000 0.59110  0.42000  0.38330  Biso   1.000  C
  C81      1.0000 0.64450  0.96840  0.91430  Biso   1.000  C
  C82      1.0000 0.85550  0.03160  0.41430  Biso   1.000  C
  C83      1.0000 0.14450  0.53160  0.08570  Biso   1.000  C
  C84      1.0000 0.35550  0.46840  0.58570  Biso   1.000  C
  C85      1.0000 0.35550  0.03160  0.08570  Biso   1.000  C
  C86      1.0000 0.14450  0.96840  0.58570  Biso   1.000  C
  C87      1.0000 0.85550  0.46840  0.91430  Biso   1.000  C
  C88      1.0000 0.64450  0.53160  0.41430  Biso   1.000  C
  O17      1.0000 0.05140  0.09092  0.96017  Biso   1.000  O
  O18      1.0000 0.44860  0.90908  0.46017  Biso   1.000  O
  O19      1.0000 0.55140  0.40908  0.03983  Biso   1.000  O
  O20      1.0000 0.94860  0.59092  0.53983  Biso   1.000  O
  O21      1.0000 0.94860  0.90908  0.03983  Biso   1.000  O
  O22      1.0000 0.55140  0.09092  0.53983  Biso   1.000  O
  O23      1.0000 0.44860  0.59092  0.96017  Biso   1.000  O
  O24      1.0000 0.05140  0.40908  0.46017  Biso   1.000  O
  O25      1.0000 0.19820  0.15986  0.94261  Biso   1.000  O
  O26      1.0000 0.30180  0.84014  0.44261  Biso   1.000  O
  O27      1.0000 0.69820  0.34014  0.05739  Biso   1.000  O
  O28      1.0000 0.80180  0.65986  0.55739  Biso   1.000  O
  O29      1.0000 0.80180  0.84014  0.05739  Biso   1.000  O
  O30      1.0000 0.69820  0.15986  0.55739  Biso   1.000  O
  O31      1.0000 0.30180  0.65986  0.94261  Biso   1.000  O
  O32      1.0000 0.19820  0.34014  0.44261  Biso   1.000  O
  H25      1.0000 0.53620  0.11430  0.87670  Biso   1.000  H
  H26      1.0000 0.96380  0.88570  0.37670  Biso   1.000  H
  H27      1.0000 0.03620  0.38570  0.12330  Biso   1.000  H
  H28      1.0000 0.46380  0.61430  0.62330  Biso   1.000  H
  H29      1.0000 0.46380  0.88570  0.12330  Biso   1.000  H
  H30      1.0000 0.03620  0.11430  0.62330  Biso   1.000  H
  H31      1.0000 0.96380  0.61430  0.87670  Biso   1.000  H
  H32      1.0000 0.53620  0.38570  0.37670  Biso   1.000  H
  C89      1.0000 0.70620  0.09290  0.87150  Biso   1.000  C
  C90      1.0000 0.79380  0.90710  0.37150  Biso   1.000  C
  C91      1.0000 0.20620  0.40710  0.12850  Biso   1.000  C
  C92      1.0000 0.29380  0.59290  0.62850  Biso   1.000  C
  C93      1.0000 0.29380  0.90710  0.12850  Biso   1.000  C
  C94      1.0000 0.20620  0.09290  0.62850  Biso   1.000  C
  C95      1.0000 0.79380  0.59290  0.87150  Biso   1.000  C
  C96      1.0000 0.70620  0.40710  0.37150  Biso   1.000  C
  C97      1.0000 0.75740  0.98540  0.90250  Biso   1.000  C
  C98      1.0000 0.74260  0.01460  0.40250  Biso   1.000  C
  C99      1.0000 0.25740  0.51460  0.09750  Biso   1.000  C
  C100     1.0000 0.24260  0.48540  0.59750  Biso   1.000  C
  C101     1.0000 0.24260  0.01460  0.09750  Biso   1.000  C
  C102     1.0000 0.25740  0.98540  0.59750  Biso   1.000  C
  C103     1.0000 0.74260  0.48540  0.90250  Biso   1.000  C
  C104     1.0000 0.75740  0.51460  0.40250  Biso   1.000  C
  H33      1.0000 0.62660  0.92460  0.92850  Biso   1.000  H
  H34      1.0000 0.87340  0.07540  0.42850  Biso   1.000  H
  H35      1.0000 0.12660  0.57540  0.07150  Biso   1.000  H
  H36      1.0000 0.37340  0.42460  0.57150  Biso   1.000  H
  H37      1.0000 0.37340  0.07540  0.07150  Biso   1.000  H
  H38      1.0000 0.12660  0.92460  0.57150  Biso   1.000  H
  H39      1.0000 0.87340  0.42460  0.92850  Biso   1.000  H
  H40      1.0000 0.62660  0.57540  0.42850  Biso   1.000  H
  Cu1      1.0000 0.95002  0.06089  0.85700  Biso   1.000  Cu
  Cu2      1.0000 0.54998  0.93911  0.35700  Biso   1.000  Cu
  Cu3      1.0000 0.45002  0.43911  0.14300  Biso   1.000  Cu
  Cu4      1.0000 0.04998  0.56089  0.64300  Biso   1.000  Cu
  Cu5      1.0000 0.04998  0.93911  0.14300  Biso   1.000  Cu
  Cu6      1.0000 0.45002  0.06089  0.64300  Biso   1.000  Cu
  Cu7      1.0000 0.54998  0.56089  0.85700  Biso   1.000  Cu
  Cu8      1.0000 0.95002  0.43911  0.35700  Biso   1.000  Cu
  N1       1.0000 0.79060  0.04655  0.88144  Biso   1.000  N
  N2       1.0000 0.70940  0.95345  0.38144  Biso   1.000  N
  N3       1.0000 0.29060  0.45345  0.11856  Biso   1.000  N
  N4       1.0000 0.20940  0.54655  0.61856  Biso   1.000  N
  N5       1.0000 0.20940  0.95345  0.11856  Biso   1.000  N
  N6       1.0000 0.29060  0.04655  0.61856  Biso   1.000  N
  N7       1.0000 0.70940  0.54655  0.88144  Biso   1.000  N
  N8       1.0000 0.79060  0.45345  0.38144  Biso   1.000  N
  H41      1.0000 0.72670  0.13570  0.85590  Biso   1.000  H
  H42      1.0000 0.77330  0.86430  0.35590  Biso   1.000  H
  H43      1.0000 0.22670  0.36430  0.14410  Biso   1.000  H
  H44      1.0000 0.27330  0.63570  0.64410  Biso   1.000  H
  H45      1.0000 0.27330  0.86430  0.14410  Biso   1.000  H
  H46      1.0000 0.22670  0.13570  0.64410  Biso   1.000  H
  H47      1.0000 0.77330  0.63570  0.85590  Biso   1.000  H
  H48      1.0000 0.72670  0.36430  0.35590  Biso   1.000  H
  H49      1.0000 0.81420  0.95240  0.90960  Biso   1.000  H
  H50      1.0000 0.68580  0.04760  0.40960  Biso   1.000  H
  H51      1.0000 0.31420  0.54760  0.09040  Biso   1.000  H
  H52      1.0000 0.18580  0.45240  0.59040  Biso   1.000  H
  H53      1.0000 0.18580  0.04760  0.09040  Biso   1.000  H
  H54      1.0000 0.31420  0.95240  0.59040  Biso   1.000  H
  H55      1.0000 0.68580  0.45240  0.90960  Biso   1.000  H
  H56      1.0000 0.81420  0.54760  0.40960  Biso   1.000  H
  O33      1.0000 0.13610  0.18098  0.07401  Biso   1.000  O
  O34      1.0000 0.36390  0.81902  0.57401  Biso   1.000  O
  O35      1.0000 0.63610  0.31902  0.92599  Biso   1.000  O
  O36      1.0000 0.86390  0.68098  0.42599  Biso   1.000  O
  O37      1.0000 0.86390  0.81902  0.92599  Biso   1.000  O
  O38      1.0000 0.63610  0.18098  0.42599  Biso   1.000  O
  O39      1.0000 0.36390  0.68098  0.07401  Biso   1.000  O
  O40      1.0000 0.13610  0.31902  0.57401  Biso   1.000  O
  O41      1.0000 0.87730  0.30786  0.97550  Biso   1.000  O
  O42      1.0000 0.62270  0.69214  0.47550  Biso   1.000  O
  O43      1.0000 0.37730  0.19214  0.02450  Biso   1.000  O
  O44      1.0000 0.12270  0.80786  0.52450  Biso   1.000  O
  O45      1.0000 0.12270  0.69214  0.02450  Biso   1.000  O
  O46      1.0000 0.37730  0.30786  0.52450  Biso   1.000  O
  O47      1.0000 0.62270  0.80786  0.97550  Biso   1.000  O
  O48      1.0000 0.87730  0.19214  0.47550  Biso   1.000  O
  O49      1.0000 0.98670  0.22701  0.88067  Biso   1.000  O
  O50      1.0000 0.51330  0.77299  0.38067  Biso   1.000  O
  O51      1.0000 0.48670  0.27299  0.11933  Biso   1.000  O
  O52      1.0000 0.01330  0.72701  0.61933  Biso   1.000  O
  O53      1.0000 0.01330  0.77299  0.11933  Biso   1.000  O
  O54      1.0000 0.48670  0.22701  0.61933  Biso   1.000  O
  O55      1.0000 0.51330  0.72701  0.88067  Biso   1.000  O
  O56      1.0000 0.98670  0.27299  0.38067  Biso   1.000  O
  O57      1.0000 0.00390  0.26031  0.08969  Biso   1.000  O
  O58      1.0000 0.49610  0.73969  0.58969  Biso   1.000  O
  O59      1.0000 0.50390  0.23969  0.91031  Biso   1.000  O
  O60      1.0000 0.99610  0.76031  0.41031  Biso   1.000  O
  O61      1.0000 0.99610  0.73969  0.91031  Biso   1.000  O
  O62      1.0000 0.50390  0.26031  0.41031  Biso   1.000  O
  O63      1.0000 0.49610  0.76031  0.08969  Biso   1.000  O
  O64      1.0000 0.00390  0.23969  0.58969  Biso   1.000  O
  H57      1.0000 0.84610  0.31690  0.94110  Biso   1.000  H
  H58      1.0000 0.65390  0.68310  0.44110  Biso   1.000  H
  H59      1.0000 0.34610  0.18310  0.05890  Biso   1.000  H
  H60      1.0000 0.15390  0.81690  0.55890  Biso   1.000  H
  H61      1.0000 0.15390  0.68310  0.05890  Biso   1.000  H
  H62      1.0000 0.34610  0.31690  0.55890  Biso   1.000  H
  H63      1.0000 0.65390  0.81690  0.94110  Biso   1.000  H
  H64      1.0000 0.84610  0.18310  0.44110  Biso   1.000  H
  H65      1.0000 0.85780  0.33050  0.00720  Biso   1.000  H
  H66      1.0000 0.64220  0.66950  0.50720  Biso   1.000  H
  H67      1.0000 0.35780  0.16950  0.99280  Biso   1.000  H
  H68      1.0000 0.14220  0.83050  0.49280  Biso   1.000  H
  H69      1.0000 0.14220  0.66950  0.99280  Biso   1.000  H
  H70      1.0000 0.35780  0.33050  0.49280  Biso   1.000  H
  H71      1.0000 0.64220  0.83050  0.00720  Biso   1.000  H
  H72      1.0000 0.85780  0.16950  0.50720  Biso   1.000  H
  O65      1.0000 0.97030  0.14800  0.80727  Biso   1.000  O
  O66      1.0000 0.52970  0.85200  0.30727  Biso   1.000  O
  O67      1.0000 0.47030  0.35200  0.19273  Biso   1.000  O
  O68      1.0000 0.02970  0.64800  0.69273  Biso   1.000  O
  O69      1.0000 0.02970  0.85200  0.19273  Biso   1.000  O
  O70      1.0000 0.47030  0.14800  0.69273  Biso   1.000  O
  O71      1.0000 0.52970  0.64800  0.80727  Biso   1.000  O
  O72      1.0000 0.97030  0.35200  0.30727  Biso   1.000  O
  N9       1.0000 0.06150  0.99380  0.82571  Biso   1.000  N
  N10      1.0000 0.43850  0.00620  0.32571  Biso   1.000  N
  N11      1.0000 0.56150  0.50620  0.17429  Biso   1.000  N
  N12      1.0000 0.93850  0.49380  0.67429  Biso   1.000  N
  N13      1.0000 0.93850  0.00620  0.17429  Biso   1.000  N
  N14      1.0000 0.56150  0.99380  0.67429  Biso   1.000  N
  N15      1.0000 0.43850  0.49380  0.82571  Biso   1.000  N
  N16      1.0000 0.06150  0.50620  0.32571  Biso   1.000  N
  C105     1.0000 0.99990  0.20530  0.82650  Biso   1.000  C
  C106     1.0000 0.50010  0.79470  0.32650  Biso   1.000  C
  C107     1.0000 0.49990  0.29470  0.17350  Biso   1.000  C
  C108     1.0000 0.00010  0.70530  0.67350  Biso   1.000  C
  C109     1.0000 0.00010  0.79470  0.17350  Biso   1.000  C
  C110     1.0000 0.49990  0.20530  0.67350  Biso   1.000  C
  C111     1.0000 0.50010  0.70530  0.82650  Biso   1.000  C
  C112     1.0000 0.99990  0.29470  0.32650  Biso   1.000  C
  C113     1.0000 0.06060  0.25190  0.78140  Biso   1.000  C
  C114     1.0000 0.43940  0.74810  0.28140  Biso   1.000  C
  C115     1.0000 0.56060  0.24810  0.21860  Biso   1.000  C
  C116     1.0000 0.93940  0.75190  0.71860  Biso   1.000  C
  C117     1.0000 0.93940  0.74810  0.21860  Biso   1.000  C
  C118     1.0000 0.56060  0.25190  0.71860  Biso   1.000  C
  C119     1.0000 0.43940  0.75190  0.78140  Biso   1.000  C
  C120     1.0000 0.06060  0.24810  0.28140  Biso   1.000  C
  C121     1.0000 0.13560  0.30180  0.80230  Biso   1.000  C
  C122     1.0000 0.36440  0.69820  0.30230  Biso   1.000  C
  C123     1.0000 0.63560  0.19820  0.19770  Biso   1.000  C
  C124     1.0000 0.86440  0.80180  0.69770  Biso   1.000  C
  C125     1.0000 0.86440  0.69820  0.19770  Biso   1.000  C
  C126     1.0000 0.63560  0.30180  0.69770  Biso   1.000  C
  C127     1.0000 0.36440  0.80180  0.80230  Biso   1.000  C
  C128     1.0000 0.13560  0.19820  0.30230  Biso   1.000  C
  C129     1.0000 0.04440  0.24240  0.71880  Biso   1.000  C
  C130     1.0000 0.45560  0.75760  0.21880  Biso   1.000  C
  C131     1.0000 0.54440  0.25760  0.28120  Biso   1.000  C
  C132     1.0000 0.95560  0.74240  0.78120  Biso   1.000  C
  C133     1.0000 0.95560  0.75760  0.28120  Biso   1.000  C
  C134     1.0000 0.54440  0.24240  0.78120  Biso   1.000  C
  C135     1.0000 0.45560  0.74240  0.71880  Biso   1.000  C
  C136     1.0000 0.04440  0.25760  0.21880  Biso   1.000  C
  C137     1.0000 0.19650  0.34320  0.76120  Biso   1.000  C
  C138     1.0000 0.30350  0.65680  0.26120  Biso   1.000  C
  C139     1.0000 0.69650  0.15680  0.23880  Biso   1.000  C
  C140     1.0000 0.80350  0.84320  0.73880  Biso   1.000  C
  C141     1.0000 0.80350  0.65680  0.23880  Biso   1.000  C
  C142     1.0000 0.69650  0.34320  0.73880  Biso   1.000  C
  C143     1.0000 0.30350  0.84320  0.76120  Biso   1.000  C
  C144     1.0000 0.19650  0.15680  0.26120  Biso   1.000  C
  H73      1.0000 0.14570  0.30800  0.84420  Biso   1.000  H
  H74      1.0000 0.35430  0.69200  0.34420  Biso   1.000  H
  H75      1.0000 0.64570  0.19200  0.15580  Biso   1.000  H
  H76      1.0000 0.85430  0.80800  0.65580  Biso   1.000  H
  H77      1.0000 0.85430  0.69200  0.15580  Biso   1.000  H
  H78      1.0000 0.64570  0.30800  0.65580  Biso   1.000  H
  H79      1.0000 0.35430  0.80800  0.84420  Biso   1.000  H
  H80      1.0000 0.14570  0.19200  0.34420  Biso   1.000  H
  C145     1.0000 0.10310  0.28430  0.67720  Biso   1.000  C
  C146     1.0000 0.39690  0.71570  0.17720  Biso   1.000  C
  C147     1.0000 0.60310  0.21570  0.32280  Biso   1.000  C
  C148     1.0000 0.89690  0.78430  0.82280  Biso   1.000  C
  C149     1.0000 0.89690  0.71570  0.32280  Biso   1.000  C
  C150     1.0000 0.60310  0.28430  0.82280  Biso   1.000  C
  C151     1.0000 0.39690  0.78430  0.67720  Biso   1.000  C
  C152     1.0000 0.10310  0.21570  0.17720  Biso   1.000  C
  H81      1.0000 0.99450  0.20830  0.70480  Biso   1.000  H
  H82      1.0000 0.50550  0.79170  0.20480  Biso   1.000  H
  H83      1.0000 0.49450  0.29170  0.29520  Biso   1.000  H
  H84      1.0000 0.00550  0.70830  0.79520  Biso   1.000  H
  H85      1.0000 0.00550  0.79170  0.29520  Biso   1.000  H
  H86      1.0000 0.49450  0.20830  0.79520  Biso   1.000  H
  H87      1.0000 0.50550  0.70830  0.70480  Biso   1.000  H
  H88      1.0000 0.99450  0.29170  0.20480  Biso   1.000  H
  C153     1.0000 0.17910  0.33370  0.69840  Biso   1.000  C
  C154     1.0000 0.32090  0.66630  0.19840  Biso   1.000  C
  C155     1.0000 0.67910  0.16630  0.30160  Biso   1.000  C
  C156     1.0000 0.82090  0.83370  0.80160  Biso   1.000  C
  C157     1.0000 0.82090  0.66630  0.30160  Biso   1.000  C
  C158     1.0000 0.67910  0.33370  0.80160  Biso   1.000  C
  C159     1.0000 0.32090  0.83370  0.69840  Biso   1.000  C
  C160     1.0000 0.17910  0.16630  0.19840  Biso   1.000  C
  C161     1.0000 0.27900  0.39610  0.78350  Biso   1.000  C
  C162     1.0000 0.22100  0.60390  0.28350  Biso   1.000  C
  C163     1.0000 0.77900  0.10390  0.21650  Biso   1.000  C
  C164     1.0000 0.72100  0.89610  0.71650  Biso   1.000  C
  C165     1.0000 0.72100  0.60390  0.21650  Biso   1.000  C
  C166     1.0000 0.77900  0.39610  0.71650  Biso   1.000  C
  C167     1.0000 0.22100  0.89610  0.78350  Biso   1.000  C
  C168     1.0000 0.27900  0.10390  0.28350  Biso   1.000  C
  C169     1.0000 0.08030  0.27980  0.60955  Biso   1.000  C
  C170     1.0000 0.41970  0.72020  0.10955  Biso   1.000  C
  C171     1.0000 0.58030  0.22020  0.39045  Biso   1.000  C
  C172     1.0000 0.91970  0.77980  0.89045  Biso   1.000  C
  C173     1.0000 0.91970  0.72020  0.39045  Biso   1.000  C
  C174     1.0000 0.58030  0.27980  0.89045  Biso   1.000  C
  C175     1.0000 0.41970  0.77980  0.60955  Biso   1.000  C
  C176     1.0000 0.08030  0.22020  0.10955  Biso   1.000  C
  H89      1.0000 0.21930  0.36110  0.67060  Biso   1.000  H
  H90      1.0000 0.28070  0.63890  0.17060  Biso   1.000  H
  H91      1.0000 0.71930  0.13890  0.32940  Biso   1.000  H
  H92      1.0000 0.78070  0.86110  0.82940  Biso   1.000  H
  H93      1.0000 0.78070  0.63890  0.32940  Biso   1.000  H
  H94      1.0000 0.71930  0.36110  0.82940  Biso   1.000  H
  H95      1.0000 0.28070  0.86110  0.67060  Biso   1.000  H
  H96      1.0000 0.21930  0.13890  0.17060  Biso   1.000  H
  C177     1.0000 0.35870  0.38050  0.82880  Biso   1.000  C
  C178     1.0000 0.14130  0.61950  0.32880  Biso   1.000  C
  C179     1.0000 0.85870  0.11950  0.17120  Biso   1.000  C
  C180     1.0000 0.64130  0.88050  0.67120  Biso   1.000  C
  C181     1.0000 0.64130  0.61950  0.17120  Biso   1.000  C
  C182     1.0000 0.85870  0.38050  0.67120  Biso   1.000  C
  C183     1.0000 0.14130  0.88050  0.82880  Biso   1.000  C
  C184     1.0000 0.35870  0.11950  0.32880  Biso   1.000  C
  C185     1.0000 0.27910  0.46300  0.76070  Biso   1.000  C
  C186     1.0000 0.22090  0.53700  0.26070  Biso   1.000  C
  C187     1.0000 0.77910  0.03700  0.23930  Biso   1.000  C
  C188     1.0000 0.72090  0.96300  0.73930  Biso   1.000  C
  C189     1.0000 0.72090  0.53700  0.23930  Biso   1.000  C
  C190     1.0000 0.77910  0.46300  0.73930  Biso   1.000  C
  C191     1.0000 0.22090  0.96300  0.76070  Biso   1.000  C
  C192     1.0000 0.27910  0.03700  0.26070  Biso   1.000  C
  C193     1.0000 0.43530  0.43000  0.84760  Biso   1.000  C
  C194     1.0000 0.06470  0.57000  0.34760  Biso   1.000  C
  C195     1.0000 0.93530  0.07000  0.15240  Biso   1.000  C
  C196     1.0000 0.56470  0.93000  0.65240  Biso   1.000  C
  C197     1.0000 0.56470  0.57000  0.15240  Biso   1.000  C
  C198     1.0000 0.93530  0.43000  0.65240  Biso   1.000  C
  C199     1.0000 0.06470  0.93000  0.84760  Biso   1.000  C
  C200     1.0000 0.43530  0.07000  0.34760  Biso   1.000  C
  H97      1.0000 0.36020  0.33680  0.84630  Biso   1.000  H
  H98      1.0000 0.13980  0.66320  0.34630  Biso   1.000  H
  H99      1.0000 0.86020  0.16320  0.15370  Biso   1.000  H
  H100     1.0000 0.63980  0.83680  0.65370  Biso   1.000  H
  H101     1.0000 0.63980  0.66320  0.15370  Biso   1.000  H
  H102     1.0000 0.86020  0.33680  0.65370  Biso   1.000  H
  H103     1.0000 0.13980  0.83680  0.84630  Biso   1.000  H
  H104     1.0000 0.36020  0.16320  0.34630  Biso   1.000  H
  C201     1.0000 0.35870  0.50950  0.78260  Biso   1.000  C
  C202     1.0000 0.14130  0.49050  0.28260  Biso   1.000  C
  C203     1.0000 0.85870  0.99050  0.21740  Biso   1.000  C
  C204     1.0000 0.64130  0.00950  0.71740  Biso   1.000  C
  C205     1.0000 0.64130  0.49050  0.21740  Biso   1.000  C
  C206     1.0000 0.85870  0.50950  0.71740  Biso   1.000  C
  C207     1.0000 0.14130  0.00950  0.78260  Biso   1.000  C
  C208     1.0000 0.35870  0.99050  0.28260  Biso   1.000  C
  H105     1.0000 0.22570  0.47610  0.73090  Biso   1.000  H
  H106     1.0000 0.27430  0.52390  0.23090  Biso   1.000  H
  H107     1.0000 0.72570  0.02390  0.26910  Biso   1.000  H
  H108     1.0000 0.77430  0.97610  0.76910  Biso   1.000  H
  H109     1.0000 0.77430  0.52390  0.26910  Biso   1.000  H
  H110     1.0000 0.72570  0.47610  0.76910  Biso   1.000  H
  H111     1.0000 0.27430  0.97610  0.73090  Biso   1.000  H
  H112     1.0000 0.22570  0.02390  0.23090  Biso   1.000  H
  H113     1.0000 0.48880  0.41830  0.87780  Biso   1.000  H
  H114     1.0000 0.01120  0.58170  0.37780  Biso   1.000  H
  H115     1.0000 0.98880  0.08170  0.12220  Biso   1.000  H
  H116     1.0000 0.51120  0.91830  0.62220  Biso   1.000  H
  H117     1.0000 0.51120  0.58170  0.12220  Biso   1.000  H
  H118     1.0000 0.98880  0.41830  0.62220  Biso   1.000  H
  H119     1.0000 0.01120  0.91830  0.87780  Biso   1.000  H
  H120     1.0000 0.48880  0.08170  0.37780  Biso   1.000  H
  H121     1.0000 0.35760  0.55400  0.76690  Biso   1.000  H
  H122     1.0000 0.14240  0.44600  0.26690  Biso   1.000  H
  H123     1.0000 0.85760  0.94600  0.23310  Biso   1.000  H
  H124     1.0000 0.64240  0.05400  0.73310  Biso   1.000  H
  H125     1.0000 0.64240  0.44600  0.23310  Biso   1.000  H
  H126     1.0000 0.85760  0.55400  0.73310  Biso   1.000  H
  H127     1.0000 0.14240  0.05400  0.76690  Biso   1.000  H
  H128     1.0000 0.35760  0.94600  0.26690  Biso   1.000  H
