data_image0
_cell_length_a       11.54
_cell_length_b       19.426
_cell_length_c       21.789
_cell_angle_alpha    90
_cell_angle_beta     90
_cell_angle_gamma    90

_symmetry_space_group_name_H-M    "P 1"
_symmetry_int_tables_number       1

loop_
  _symmetry_equiv_pos_as_xyz
  'x, y, z'

loop_
  _atom_site_label
  _atom_site_occupancy
  _atom_site_fract_x
  _atom_site_fract_y
  _atom_site_fract_z
  _atom_site_thermal_displace_type
  _atom_site_B_iso_or_equiv
  _atom_site_type_symbol
  Ho1      1.0000 0.52631  0.28359  0.01575  Biso   1.000  Ho
  Ho2      1.0000 0.97369  0.71641  0.51575  Biso   1.000  Ho
  Ho3      1.0000 0.02631  0.21641  0.98425  Biso   1.000  Ho
  Ho4      1.0000 0.47369  0.78359  0.48425  Biso   1.000  Ho
  Ho5      1.0000 0.47369  0.71641  0.98425  Biso   1.000  Ho
  Ho6      1.0000 0.02631  0.28359  0.48425  Biso   1.000  Ho
  Ho7      1.0000 0.97369  0.78359  0.01575  Biso   1.000  Ho
  Ho8      1.0000 0.52631  0.21641  0.51575  Biso   1.000  Ho
  N1       1.0000 0.56000  0.99510  0.67380  Biso   1.000  N
  N2       1.0000 0.94000  0.00490  0.17380  Biso   1.000  N
  N3       1.0000 0.06000  0.50490  0.32620  Biso   1.000  N
  N4       1.0000 0.44000  0.49510  0.82620  Biso   1.000  N
  N5       1.0000 0.44000  0.00490  0.32620  Biso   1.000  N
  N6       1.0000 0.06000  0.99510  0.82620  Biso   1.000  N
  N7       1.0000 0.94000  0.49510  0.67380  Biso   1.000  N
  N8       1.0000 0.56000  0.50490  0.17380  Biso   1.000  N
  O1       1.0000 0.50350  0.23890  0.91190  Biso   1.000  O
  O2       1.0000 0.99650  0.76110  0.41190  Biso   1.000  O
  O3       1.0000 0.00350  0.26110  0.08810  Biso   1.000  O
  O4       1.0000 0.49650  0.73890  0.58810  Biso   1.000  O
  O5       1.0000 0.49650  0.76110  0.08810  Biso   1.000  O
  O6       1.0000 0.00350  0.23890  0.58810  Biso   1.000  O
  O7       1.0000 0.99650  0.73890  0.91190  Biso   1.000  O
  O8       1.0000 0.50350  0.26110  0.41190  Biso   1.000  O
  O9       1.0000 0.63410  0.31980  0.92680  Biso   1.000  O
  O10      1.0000 0.86590  0.68020  0.42680  Biso   1.000  O
  O11      1.0000 0.13410  0.18020  0.07320  Biso   1.000  O
  O12      1.0000 0.36590  0.81980  0.57320  Biso   1.000  O
  O13      1.0000 0.36590  0.68020  0.07320  Biso   1.000  O
  O14      1.0000 0.13410  0.31980  0.57320  Biso   1.000  O
  O15      1.0000 0.86590  0.81980  0.92680  Biso   1.000  O
  O16      1.0000 0.63410  0.18020  0.42680  Biso   1.000  O
  Cu1      1.0000 0.44865  0.06219  0.64169  Biso   1.000  Cu
  Cu2      1.0000 0.05135  0.93781  0.14169  Biso   1.000  Cu
  Cu3      1.0000 0.94865  0.43781  0.35831  Biso   1.000  Cu
  Cu4      1.0000 0.55135  0.56219  0.85831  Biso   1.000  Cu
  Cu5      1.0000 0.55135  0.93781  0.35831  Biso   1.000  Cu
  Cu6      1.0000 0.94865  0.06219  0.85831  Biso   1.000  Cu
  Cu7      1.0000 0.05135  0.56219  0.64169  Biso   1.000  Cu
  Cu8      1.0000 0.44865  0.43781  0.14169  Biso   1.000  Cu
  C1       1.0000 0.57770  0.27970  0.89120  Biso   1.000  C
  C2       1.0000 0.92230  0.72030  0.39120  Biso   1.000  C
  C3       1.0000 0.07770  0.22030  0.10880  Biso   1.000  C
  C4       1.0000 0.42230  0.77970  0.60880  Biso   1.000  C
  C5       1.0000 0.42230  0.72030  0.10880  Biso   1.000  C
  C6       1.0000 0.07770  0.27970  0.60880  Biso   1.000  C
  C7       1.0000 0.92230  0.77970  0.89120  Biso   1.000  C
  C8       1.0000 0.57770  0.22030  0.39120  Biso   1.000  C
  O17      1.0000 0.46400  0.15100  0.69040  Biso   1.000  O
  O18      1.0000 0.03600  0.84900  0.19040  Biso   1.000  O
  O19      1.0000 0.96400  0.34900  0.30960  Biso   1.000  O
  O20      1.0000 0.53600  0.65100  0.80960  Biso   1.000  O
  O21      1.0000 0.53600  0.84900  0.30960  Biso   1.000  O
  O22      1.0000 0.96400  0.15100  0.80960  Biso   1.000  O
  O23      1.0000 0.03600  0.65100  0.69040  Biso   1.000  O
  O24      1.0000 0.46400  0.34900  0.19040  Biso   1.000  O
  O25      1.0000 0.54800  0.09310  0.53810  Biso   1.000  O
  O26      1.0000 0.95200  0.90690  0.03810  Biso   1.000  O
  O27      1.0000 0.04800  0.40690  0.46190  Biso   1.000  O
  O28      1.0000 0.45200  0.59310  0.96190  Biso   1.000  O
  O29      1.0000 0.45200  0.90690  0.46190  Biso   1.000  O
  O30      1.0000 0.04800  0.09310  0.96190  Biso   1.000  O
  O31      1.0000 0.95200  0.59310  0.53810  Biso   1.000  O
  O32      1.0000 0.54800  0.40690  0.03810  Biso   1.000  O
  N9       1.0000 0.28890  0.04590  0.61730  Biso   1.000  N
  N10      1.0000 0.21110  0.95410  0.11730  Biso   1.000  N
  N11      1.0000 0.78890  0.45410  0.38270  Biso   1.000  N
  N12      1.0000 0.71110  0.54590  0.88270  Biso   1.000  N
  N13      1.0000 0.71110  0.95410  0.38270  Biso   1.000  N
  N14      1.0000 0.78890  0.04590  0.88270  Biso   1.000  N
  N15      1.0000 0.21110  0.54590  0.61730  Biso   1.000  N
  N16      1.0000 0.28890  0.45410  0.11730  Biso   1.000  N
  C9       1.0000 0.60140  0.28650  0.82300  Biso   1.000  C
  C10      1.0000 0.89860  0.71350  0.32300  Biso   1.000  C
  C11      1.0000 0.10140  0.21350  0.17700  Biso   1.000  C
  C12      1.0000 0.39860  0.78650  0.67700  Biso   1.000  C
  C13      1.0000 0.39860  0.71350  0.17700  Biso   1.000  C
  C14      1.0000 0.10140  0.28650  0.67700  Biso   1.000  C
  C15      1.0000 0.89860  0.78650  0.82300  Biso   1.000  C
  C16      1.0000 0.60140  0.21350  0.32300  Biso   1.000  C
  C17      1.0000 0.50000  0.20680  0.67230  Biso   1.000  C
  C18      1.0000 0.00000  0.79320  0.17230  Biso   1.000  C
  C19      1.0000 0.00000  0.29320  0.32770  Biso   1.000  C
  C20      1.0000 0.50000  0.70680  0.82770  Biso   1.000  C
  C21      1.0000 0.50000  0.79320  0.32770  Biso   1.000  C
  C22      1.0000 0.00000  0.20680  0.82770  Biso   1.000  C
  C23      1.0000 0.00000  0.70680  0.67230  Biso   1.000  C
  C24      1.0000 0.50000  0.29320  0.17230  Biso   1.000  C
  C25      1.0000 0.25550  0.98520  0.59720  Biso   1.000  C
  C26      1.0000 0.24450  0.01480  0.09720  Biso   1.000  C
  C27      1.0000 0.75550  0.51480  0.40280  Biso   1.000  C
  C28      1.0000 0.74450  0.48520  0.90280  Biso   1.000  C
  C29      1.0000 0.74450  0.01480  0.40280  Biso   1.000  C
  C30      1.0000 0.75550  0.98520  0.90280  Biso   1.000  C
  C31      1.0000 0.24450  0.48520  0.59720  Biso   1.000  C
  C32      1.0000 0.25550  0.51480  0.09720  Biso   1.000  C
  C33      1.0000 0.20350  0.09130  0.62730  Biso   1.000  C
  C34      1.0000 0.29650  0.90870  0.12730  Biso   1.000  C
  C35      1.0000 0.70350  0.40870  0.37270  Biso   1.000  C
  C36      1.0000 0.79650  0.59130  0.87270  Biso   1.000  C
  C37      1.0000 0.79650  0.90870  0.37270  Biso   1.000  C
  C38      1.0000 0.70350  0.09130  0.87270  Biso   1.000  C
  C39      1.0000 0.29650  0.59130  0.62730  Biso   1.000  C
  C40      1.0000 0.20350  0.40870  0.12730  Biso   1.000  C
  C41      1.0000 0.67970  0.33440  0.80100  Biso   1.000  C
  C42      1.0000 0.82030  0.66560  0.30100  Biso   1.000  C
  C43      1.0000 0.17970  0.16560  0.19900  Biso   1.000  C
  C44      1.0000 0.32030  0.83440  0.69900  Biso   1.000  C
  C45      1.0000 0.32030  0.66560  0.19900  Biso   1.000  C
  C46      1.0000 0.17970  0.33440  0.69900  Biso   1.000  C
  C47      1.0000 0.82030  0.83440  0.80100  Biso   1.000  C
  C48      1.0000 0.67970  0.16560  0.30100  Biso   1.000  C
  C49      1.0000 0.54210  0.24330  0.78090  Biso   1.000  C
  C50      1.0000 0.95790  0.75670  0.28090  Biso   1.000  C
  C51      1.0000 0.04210  0.25670  0.21910  Biso   1.000  C
  C52      1.0000 0.45790  0.74330  0.71910  Biso   1.000  C
  C53      1.0000 0.45790  0.75670  0.21910  Biso   1.000  C
  C54      1.0000 0.04210  0.24330  0.71910  Biso   1.000  C
  C55      1.0000 0.95790  0.74330  0.78090  Biso   1.000  C
  C56      1.0000 0.54210  0.25670  0.28090  Biso   1.000  C
  C57      1.0000 0.56160  0.25350  0.71810  Biso   1.000  C
  C58      1.0000 0.93840  0.74650  0.21810  Biso   1.000  C
  C59      1.0000 0.06160  0.24650  0.28190  Biso   1.000  C
  C60      1.0000 0.43840  0.75350  0.78190  Biso   1.000  C
  C61      1.0000 0.43840  0.74650  0.28190  Biso   1.000  C
  C62      1.0000 0.06160  0.25350  0.78190  Biso   1.000  C
  C63      1.0000 0.93840  0.75350  0.71810  Biso   1.000  C
  C64      1.0000 0.56160  0.24650  0.21810  Biso   1.000  C
  O33      1.0000 0.49100  0.22840  0.61650  Biso   1.000  O
  O34      1.0000 0.00900  0.77160  0.11650  Biso   1.000  O
  O35      1.0000 0.99100  0.27160  0.38350  Biso   1.000  O
  O36      1.0000 0.50900  0.72840  0.88350  Biso   1.000  O
  O37      1.0000 0.50900  0.77160  0.38350  Biso   1.000  O
  O38      1.0000 0.99100  0.22840  0.88350  Biso   1.000  O
  O39      1.0000 0.00900  0.72840  0.61650  Biso   1.000  O
  O40      1.0000 0.49100  0.27160  0.11650  Biso   1.000  O
  C65      1.0000 0.14160  0.96810  0.58570  Biso   1.000  C
  C66      1.0000 0.35840  0.03190  0.08570  Biso   1.000  C
  C67      1.0000 0.64160  0.53190  0.41430  Biso   1.000  C
  C68      1.0000 0.85840  0.46810  0.91430  Biso   1.000  C
  C69      1.0000 0.85840  0.03190  0.41430  Biso   1.000  C
  C70      1.0000 0.64160  0.96810  0.91430  Biso   1.000  C
  C71      1.0000 0.35840  0.46810  0.58570  Biso   1.000  C
  C72      1.0000 0.14160  0.53190  0.08570  Biso   1.000  C
  H1       1.0000 0.31200  0.95190  0.59040  Biso   1.000  H
  H2       1.0000 0.18800  0.04810  0.09040  Biso   1.000  H
  H3       1.0000 0.81200  0.54810  0.40960  Biso   1.000  H
  H4       1.0000 0.68800  0.45190  0.90960  Biso   1.000  H
  H5       1.0000 0.68800  0.04810  0.40960  Biso   1.000  H
  H6       1.0000 0.81200  0.95190  0.90960  Biso   1.000  H
  H7       1.0000 0.18800  0.45190  0.59040  Biso   1.000  H
  H8       1.0000 0.31200  0.54810  0.09040  Biso   1.000  H
  C73      1.0000 0.08590  0.07990  0.61720  Biso   1.000  C
  C74      1.0000 0.41410  0.92010  0.11720  Biso   1.000  C
  C75      1.0000 0.58590  0.42010  0.38280  Biso   1.000  C
  C76      1.0000 0.91410  0.57990  0.88280  Biso   1.000  C
  C77      1.0000 0.91410  0.92010  0.38280  Biso   1.000  C
  C78      1.0000 0.58590  0.07990  0.88280  Biso   1.000  C
  C79      1.0000 0.41410  0.57990  0.61720  Biso   1.000  C
  C80      1.0000 0.08590  0.42010  0.11720  Biso   1.000  C
  H9       1.0000 0.22470  0.13430  0.64240  Biso   1.000  H
  H10      1.0000 0.27530  0.86570  0.14240  Biso   1.000  H
  H11      1.0000 0.72470  0.36570  0.35760  Biso   1.000  H
  H12      1.0000 0.77530  0.63430  0.85760  Biso   1.000  H
  H13      1.0000 0.77530  0.86570  0.35760  Biso   1.000  H
  H14      1.0000 0.72470  0.13430  0.85760  Biso   1.000  H
  H15      1.0000 0.27530  0.63430  0.64240  Biso   1.000  H
  H16      1.0000 0.22470  0.36570  0.14240  Biso   1.000  H
  C81      1.0000 0.69520  0.34480  0.73930  Biso   1.000  C
  C82      1.0000 0.80480  0.65520  0.23930  Biso   1.000  C
  C83      1.0000 0.19520  0.15520  0.26070  Biso   1.000  C
  C84      1.0000 0.30480  0.84480  0.76070  Biso   1.000  C
  C85      1.0000 0.30480  0.65520  0.26070  Biso   1.000  C
  C86      1.0000 0.19520  0.34480  0.76070  Biso   1.000  C
  C87      1.0000 0.80480  0.84480  0.73930  Biso   1.000  C
  C88      1.0000 0.69520  0.15520  0.23930  Biso   1.000  C
  H17      1.0000 0.72300  0.36020  0.82870  Biso   1.000  H
  H18      1.0000 0.77700  0.63980  0.32870  Biso   1.000  H
  H19      1.0000 0.22300  0.13980  0.17130  Biso   1.000  H
  H20      1.0000 0.27700  0.86020  0.67130  Biso   1.000  H
  H21      1.0000 0.27700  0.63980  0.17130  Biso   1.000  H
  H22      1.0000 0.22300  0.36020  0.67130  Biso   1.000  H
  H23      1.0000 0.77700  0.86020  0.82870  Biso   1.000  H
  H24      1.0000 0.72300  0.13980  0.32870  Biso   1.000  H
  H25      1.0000 0.49180  0.20920  0.79460  Biso   1.000  H
  H26      1.0000 0.00820  0.79080  0.29460  Biso   1.000  H
  H27      1.0000 0.99180  0.29080  0.20540  Biso   1.000  H
  H28      1.0000 0.50820  0.70920  0.70540  Biso   1.000  H
  H29      1.0000 0.50820  0.79080  0.20540  Biso   1.000  H
  H30      1.0000 0.99180  0.20920  0.70540  Biso   1.000  H
  H31      1.0000 0.00820  0.70920  0.79460  Biso   1.000  H
  H32      1.0000 0.49180  0.29080  0.29460  Biso   1.000  H
  C89      1.0000 0.63440  0.30420  0.69780  Biso   1.000  C
  C90      1.0000 0.86560  0.69580  0.19780  Biso   1.000  C
  C91      1.0000 0.13440  0.19580  0.30220  Biso   1.000  C
  C92      1.0000 0.36560  0.80420  0.80220  Biso   1.000  C
  C93      1.0000 0.36560  0.69580  0.30220  Biso   1.000  C
  C94      1.0000 0.13440  0.30420  0.80220  Biso   1.000  C
  C95      1.0000 0.86560  0.80420  0.69780  Biso   1.000  C
  C96      1.0000 0.63440  0.19580  0.19780  Biso   1.000  C
  C97      1.0000 0.05260  0.01620  0.59540  Biso   1.000  C
  C98      1.0000 0.44740  0.98380  0.09540  Biso   1.000  C
  C99      1.0000 0.55260  0.48380  0.40460  Biso   1.000  C
  C100     1.0000 0.94740  0.51620  0.90460  Biso   1.000  C
  C101     1.0000 0.94740  0.98380  0.40460  Biso   1.000  C
  C102     1.0000 0.55260  0.01620  0.90460  Biso   1.000  C
  C103     1.0000 0.44740  0.51620  0.59540  Biso   1.000  C
  C104     1.0000 0.05260  0.48380  0.09540  Biso   1.000  C
  H33      1.0000 0.12360  0.92430  0.57150  Biso   1.000  H
  H34      1.0000 0.37640  0.07570  0.07150  Biso   1.000  H
  H35      1.0000 0.62360  0.57570  0.42850  Biso   1.000  H
  H36      1.0000 0.87640  0.42430  0.92850  Biso   1.000  H
  H37      1.0000 0.87640  0.07570  0.42850  Biso   1.000  H
  H38      1.0000 0.62360  0.92430  0.92850  Biso   1.000  H
  H39      1.0000 0.37640  0.42430  0.57150  Biso   1.000  H
  H40      1.0000 0.12360  0.57570  0.07150  Biso   1.000  H
  H41      1.0000 0.03150  0.11420  0.62490  Biso   1.000  H
  H42      1.0000 0.46850  0.88580  0.12490  Biso   1.000  H
  H43      1.0000 0.53150  0.38580  0.37510  Biso   1.000  H
  H44      1.0000 0.96850  0.61420  0.87510  Biso   1.000  H
  H45      1.0000 0.96850  0.88580  0.37510  Biso   1.000  H
  H46      1.0000 0.53150  0.11420  0.87510  Biso   1.000  H
  H47      1.0000 0.46850  0.61420  0.62490  Biso   1.000  H
  H48      1.0000 0.03150  0.38580  0.12490  Biso   1.000  H
  C105     1.0000 0.78000  0.39890  0.71670  Biso   1.000  C
  C106     1.0000 0.72000  0.60110  0.21670  Biso   1.000  C
  C107     1.0000 0.28000  0.10110  0.28330  Biso   1.000  C
  C108     1.0000 0.22000  0.89890  0.78330  Biso   1.000  C
  C109     1.0000 0.22000  0.60110  0.28330  Biso   1.000  C
  C110     1.0000 0.28000  0.39890  0.78330  Biso   1.000  C
  C111     1.0000 0.72000  0.89890  0.71670  Biso   1.000  C
  C112     1.0000 0.78000  0.10110  0.21670  Biso   1.000  C
  H49      1.0000 0.64330  0.31170  0.65590  Biso   1.000  H
  H50      1.0000 0.85670  0.68830  0.15590  Biso   1.000  H
  H51      1.0000 0.14330  0.18830  0.34410  Biso   1.000  H
  H52      1.0000 0.35670  0.81170  0.84410  Biso   1.000  H
  H53      1.0000 0.35670  0.68830  0.34410  Biso   1.000  H
  H54      1.0000 0.14330  0.31170  0.84410  Biso   1.000  H
  H55      1.0000 0.85670  0.81170  0.65590  Biso   1.000  H
  H56      1.0000 0.64330  0.18830  0.15590  Biso   1.000  H
  C113     1.0000 0.93100  0.00100  0.57770  Biso   1.000  C
  C114     1.0000 0.56900  0.99900  0.07770  Biso   1.000  C
  C115     1.0000 0.43100  0.49900  0.42230  Biso   1.000  C
  C116     1.0000 0.06900  0.50100  0.92230  Biso   1.000  C
  C117     1.0000 0.06900  0.99900  0.42230  Biso   1.000  C
  C118     1.0000 0.43100  0.00100  0.92230  Biso   1.000  C
  C119     1.0000 0.56900  0.50100  0.57770  Biso   1.000  C
  C120     1.0000 0.93100  0.49900  0.07770  Biso   1.000  C
  C121     1.0000 0.85960  0.38170  0.67120  Biso   1.000  C
  C122     1.0000 0.64040  0.61830  0.17120  Biso   1.000  C
  C123     1.0000 0.35960  0.11830  0.32880  Biso   1.000  C
  C124     1.0000 0.14040  0.88170  0.82880  Biso   1.000  C
  C125     1.0000 0.14040  0.61830  0.32880  Biso   1.000  C
  C126     1.0000 0.35960  0.38170  0.82880  Biso   1.000  C
  C127     1.0000 0.64040  0.88170  0.67120  Biso   1.000  C
  C128     1.0000 0.85960  0.11830  0.17120  Biso   1.000  C
  C129     1.0000 0.77980  0.46540  0.73880  Biso   1.000  C
  C130     1.0000 0.72020  0.53460  0.23880  Biso   1.000  C
  C131     1.0000 0.27980  0.03460  0.26120  Biso   1.000  C
  C132     1.0000 0.22020  0.96540  0.76120  Biso   1.000  C
  C133     1.0000 0.22020  0.53460  0.26120  Biso   1.000  C
  C134     1.0000 0.27980  0.46540  0.76120  Biso   1.000  C
  C135     1.0000 0.72020  0.96540  0.73880  Biso   1.000  C
  C136     1.0000 0.77980  0.03460  0.23880  Biso   1.000  C
  C137     1.0000 0.84870  0.05180  0.57680  Biso   1.000  C
  C138     1.0000 0.65130  0.94820  0.07680  Biso   1.000  C
  C139     1.0000 0.34870  0.44820  0.42320  Biso   1.000  C
  C140     1.0000 0.15130  0.55180  0.92320  Biso   1.000  C
  C141     1.0000 0.15130  0.94820  0.42320  Biso   1.000  C
  C142     1.0000 0.34870  0.05180  0.92320  Biso   1.000  C
  C143     1.0000 0.65130  0.55180  0.57680  Biso   1.000  C
  C144     1.0000 0.84870  0.44820  0.07680  Biso   1.000  C
  C145     1.0000 0.89610  0.93330  0.56100  Biso   1.000  C
  C146     1.0000 0.60390  0.06670  0.06100  Biso   1.000  C
  C147     1.0000 0.39610  0.56670  0.43900  Biso   1.000  C
  C148     1.0000 0.10390  0.43330  0.93900  Biso   1.000  C
  C149     1.0000 0.10390  0.06670  0.43900  Biso   1.000  C
  C150     1.0000 0.39610  0.93330  0.93900  Biso   1.000  C
  C151     1.0000 0.60390  0.43330  0.56100  Biso   1.000  C
  C152     1.0000 0.89610  0.56670  0.06100  Biso   1.000  C
  C153     1.0000 0.93670  0.42940  0.65260  Biso   1.000  C
  C154     1.0000 0.56330  0.57060  0.15260  Biso   1.000  C
  C155     1.0000 0.43670  0.07060  0.34740  Biso   1.000  C
  C156     1.0000 0.06330  0.92940  0.84740  Biso   1.000  C
  C157     1.0000 0.06330  0.57060  0.34740  Biso   1.000  C
  C158     1.0000 0.43670  0.42940  0.84740  Biso   1.000  C
  C159     1.0000 0.56330  0.92940  0.65260  Biso   1.000  C
  C160     1.0000 0.93670  0.07060  0.15260  Biso   1.000  C
  H57      1.0000 0.85960  0.33800  0.65400  Biso   1.000  H
  H58      1.0000 0.64040  0.66200  0.15400  Biso   1.000  H
  H59      1.0000 0.35960  0.16200  0.34600  Biso   1.000  H
  H60      1.0000 0.14040  0.83800  0.84600  Biso   1.000  H
  H61      1.0000 0.14040  0.66200  0.34600  Biso   1.000  H
  H62      1.0000 0.35960  0.33800  0.84600  Biso   1.000  H
  H63      1.0000 0.64040  0.83800  0.65400  Biso   1.000  H
  H64      1.0000 0.85960  0.16200  0.15400  Biso   1.000  H
  C161     1.0000 0.85910  0.51200  0.71740  Biso   1.000  C
  C162     1.0000 0.64090  0.48800  0.21740  Biso   1.000  C
  C163     1.0000 0.35910  0.98800  0.28260  Biso   1.000  C
  C164     1.0000 0.14090  0.01200  0.78260  Biso   1.000  C
  C165     1.0000 0.14090  0.48800  0.28260  Biso   1.000  C
  C166     1.0000 0.35910  0.51200  0.78260  Biso   1.000  C
  C167     1.0000 0.64090  0.01200  0.71740  Biso   1.000  C
  C168     1.0000 0.85910  0.98800  0.21740  Biso   1.000  C
  H65      1.0000 0.72590  0.47860  0.76820  Biso   1.000  H
  H66      1.0000 0.77410  0.52140  0.26820  Biso   1.000  H
  H67      1.0000 0.22590  0.02140  0.23180  Biso   1.000  H
  H68      1.0000 0.27410  0.97860  0.73180  Biso   1.000  H
  H69      1.0000 0.27410  0.52140  0.23180  Biso   1.000  H
  H70      1.0000 0.22590  0.47860  0.73180  Biso   1.000  H
  H71      1.0000 0.77410  0.97860  0.76820  Biso   1.000  H
  H72      1.0000 0.72590  0.02140  0.26820  Biso   1.000  H
  C169     1.0000 0.73760  0.03870  0.55700  Biso   1.000  C
  C170     1.0000 0.76240  0.96130  0.05700  Biso   1.000  C
  C171     1.0000 0.23760  0.46130  0.44300  Biso   1.000  C
  C172     1.0000 0.26240  0.53870  0.94300  Biso   1.000  C
  C173     1.0000 0.26240  0.96130  0.44300  Biso   1.000  C
  C174     1.0000 0.23760  0.03870  0.94300  Biso   1.000  C
  C175     1.0000 0.76240  0.53870  0.55700  Biso   1.000  C
  C176     1.0000 0.73760  0.46130  0.05700  Biso   1.000  C
  H73      1.0000 0.86820  0.09590  0.58990  Biso   1.000  H
  H74      1.0000 0.63180  0.90410  0.08990  Biso   1.000  H
  H75      1.0000 0.36820  0.40410  0.41010  Biso   1.000  H
  H76      1.0000 0.13180  0.59590  0.91010  Biso   1.000  H
  H77      1.0000 0.13180  0.90410  0.41010  Biso   1.000  H
  H78      1.0000 0.36820  0.09590  0.91010  Biso   1.000  H
  H79      1.0000 0.63180  0.59590  0.58990  Biso   1.000  H
  H80      1.0000 0.86820  0.40410  0.08990  Biso   1.000  H
  C177     1.0000 0.78470  0.92000  0.54080  Biso   1.000  C
  C178     1.0000 0.71530  0.08000  0.04080  Biso   1.000  C
  C179     1.0000 0.28470  0.58000  0.45920  Biso   1.000  C
  C180     1.0000 0.21530  0.42000  0.95920  Biso   1.000  C
  C181     1.0000 0.21530  0.08000  0.45920  Biso   1.000  C
  C182     1.0000 0.28470  0.92000  0.95920  Biso   1.000  C
  C183     1.0000 0.71530  0.42000  0.54080  Biso   1.000  C
  C184     1.0000 0.78470  0.58000  0.04080  Biso   1.000  C
  H81      1.0000 0.94920  0.89740  0.56380  Biso   1.000  H
  H82      1.0000 0.55080  0.10260  0.06380  Biso   1.000  H
  H83      1.0000 0.44920  0.60260  0.43620  Biso   1.000  H
  H84      1.0000 0.05080  0.39740  0.93620  Biso   1.000  H
  H85      1.0000 0.05080  0.10260  0.43620  Biso   1.000  H
  H86      1.0000 0.44920  0.89740  0.93620  Biso   1.000  H
  H87      1.0000 0.55080  0.39740  0.56380  Biso   1.000  H
  H88      1.0000 0.94920  0.60260  0.06380  Biso   1.000  H
  H89      1.0000 0.99120  0.41640  0.62340  Biso   1.000  H
  H90      1.0000 0.50880  0.58360  0.12340  Biso   1.000  H
  H91      1.0000 0.49120  0.08360  0.37660  Biso   1.000  H
  H92      1.0000 0.00880  0.91640  0.87660  Biso   1.000  H
  H93      1.0000 0.00880  0.58360  0.37660  Biso   1.000  H
  H94      1.0000 0.49120  0.41640  0.87660  Biso   1.000  H
  H95      1.0000 0.50880  0.91640  0.62340  Biso   1.000  H
  H96      1.0000 0.99120  0.08360  0.12340  Biso   1.000  H
  H97      1.0000 0.85800  0.55660  0.73290  Biso   1.000  H
  H98      1.0000 0.64200  0.44340  0.23290  Biso   1.000  H
  H99      1.0000 0.35800  0.94340  0.26710  Biso   1.000  H
  H100     1.0000 0.14200  0.05660  0.76710  Biso   1.000  H
  H101     1.0000 0.14200  0.44340  0.26710  Biso   1.000  H
  H102     1.0000 0.35800  0.55660  0.76710  Biso   1.000  H
  H103     1.0000 0.64200  0.05660  0.73290  Biso   1.000  H
  H104     1.0000 0.85800  0.94340  0.23290  Biso   1.000  H
  C185     1.0000 0.65590  0.10010  0.55050  Biso   1.000  C
  C186     1.0000 0.84410  0.89990  0.05050  Biso   1.000  C
  C187     1.0000 0.15590  0.39990  0.44950  Biso   1.000  C
  C188     1.0000 0.34410  0.60010  0.94950  Biso   1.000  C
  C189     1.0000 0.34410  0.89990  0.44950  Biso   1.000  C
  C190     1.0000 0.15590  0.10010  0.94950  Biso   1.000  C
  C191     1.0000 0.84410  0.60010  0.55050  Biso   1.000  C
  C192     1.0000 0.65590  0.39990  0.05050  Biso   1.000  C
  C193     1.0000 0.70270  0.97230  0.53830  Biso   1.000  C
  C194     1.0000 0.79730  0.02770  0.03830  Biso   1.000  C
  C195     1.0000 0.20270  0.52770  0.46170  Biso   1.000  C
  C196     1.0000 0.29730  0.47230  0.96170  Biso   1.000  C
  C197     1.0000 0.29730  0.02770  0.46170  Biso   1.000  C
  C198     1.0000 0.20270  0.97230  0.96170  Biso   1.000  C
  C199     1.0000 0.79730  0.47230  0.53830  Biso   1.000  C
  C200     1.0000 0.70270  0.52770  0.03830  Biso   1.000  C
  C201     1.0000 0.75260  0.84700  0.52270  Biso   1.000  C
  C202     1.0000 0.74740  0.15300  0.02270  Biso   1.000  C
  C203     1.0000 0.25260  0.65300  0.47730  Biso   1.000  C
  C204     1.0000 0.24740  0.34700  0.97730  Biso   1.000  C
  C205     1.0000 0.24740  0.15300  0.47730  Biso   1.000  C
  C206     1.0000 0.25260  0.84700  0.97730  Biso   1.000  C
  C207     1.0000 0.74740  0.34700  0.52270  Biso   1.000  C
  C208     1.0000 0.75260  0.65300  0.02270  Biso   1.000  C
  O41      1.0000 0.69840  0.16080  0.55680  Biso   1.000  O
  O42      1.0000 0.80160  0.83920  0.05680  Biso   1.000  O
  O43      1.0000 0.19840  0.33920  0.44320  Biso   1.000  O
  O44      1.0000 0.30160  0.66080  0.94320  Biso   1.000  O
  O45      1.0000 0.30160  0.83920  0.44320  Biso   1.000  O
  O46      1.0000 0.19840  0.16080  0.94320  Biso   1.000  O
  O47      1.0000 0.80160  0.66080  0.55680  Biso   1.000  O
  O48      1.0000 0.69840  0.33920  0.05680  Biso   1.000  O
  H105     1.0000 0.62760  0.96390  0.52470  Biso   1.000  H
  H106     1.0000 0.87240  0.03610  0.02470  Biso   1.000  H
  H107     1.0000 0.12760  0.53610  0.47530  Biso   1.000  H
  H108     1.0000 0.37240  0.46390  0.97530  Biso   1.000  H
  H109     1.0000 0.37240  0.03610  0.47530  Biso   1.000  H
  H110     1.0000 0.12760  0.96390  0.97530  Biso   1.000  H
  H111     1.0000 0.87240  0.46390  0.52470  Biso   1.000  H
  H112     1.0000 0.62760  0.53610  0.02470  Biso   1.000  H
  O49      1.0000 0.83430  0.80360  0.51840  Biso   1.000  O
  O50      1.0000 0.66570  0.19640  0.01840  Biso   1.000  O
  O51      1.0000 0.33430  0.69640  0.48160  Biso   1.000  O
  O52      1.0000 0.16570  0.30360  0.98160  Biso   1.000  O
  O53      1.0000 0.16570  0.19640  0.48160  Biso   1.000  O
  O54      1.0000 0.33430  0.80360  0.98160  Biso   1.000  O
  O55      1.0000 0.66570  0.30360  0.51840  Biso   1.000  O
  O56      1.0000 0.83430  0.69640  0.01840  Biso   1.000  O
  O57      1.0000 0.64720  0.83490  0.51030  Biso   1.000  O
  O58      1.0000 0.85280  0.16510  0.01030  Biso   1.000  O
  O59      1.0000 0.14720  0.66510  0.48970  Biso   1.000  O
  O60      1.0000 0.35280  0.33490  0.98970  Biso   1.000  O
  O61      1.0000 0.35280  0.16510  0.48970  Biso   1.000  O
  O62      1.0000 0.14720  0.83490  0.98970  Biso   1.000  O
  O63      1.0000 0.85280  0.33490  0.51030  Biso   1.000  O
  O64      1.0000 0.64720  0.66510  0.01030  Biso   1.000  O
  O65      1.0000 0.38250  0.30770  0.52440  Biso   1.000  O
  O66      1.0000 0.11750  0.69230  0.02440  Biso   1.000  O
  O67      1.0000 0.88250  0.19230  0.47560  Biso   1.000  O
  O68      1.0000 0.61750  0.80770  0.97560  Biso   1.000  O
  O69      1.0000 0.61750  0.69230  0.47560  Biso   1.000  O
  O70      1.0000 0.88250  0.30770  0.97560  Biso   1.000  O
  O71      1.0000 0.11750  0.80770  0.52440  Biso   1.000  O
  O72      1.0000 0.38250  0.19230  0.02440  Biso   1.000  O
  H113     1.0000 0.36230  0.33040  0.49280  Biso   1.000  H
  H114     1.0000 0.13770  0.66960  0.99280  Biso   1.000  H
  H115     1.0000 0.86230  0.16960  0.50720  Biso   1.000  H
  H116     1.0000 0.63770  0.83040  0.00720  Biso   1.000  H
  H117     1.0000 0.63770  0.66960  0.50720  Biso   1.000  H
  H118     1.0000 0.86230  0.33040  0.00720  Biso   1.000  H
  H119     1.0000 0.13770  0.83040  0.49280  Biso   1.000  H
  H120     1.0000 0.36230  0.16960  0.99280  Biso   1.000  H
  H121     1.0000 0.35240  0.31690  0.55900  Biso   1.000  H
  H122     1.0000 0.14760  0.68310  0.05900  Biso   1.000  H
  H123     1.0000 0.85240  0.18310  0.44100  Biso   1.000  H
  H124     1.0000 0.64760  0.81690  0.94100  Biso   1.000  H
  H125     1.0000 0.64760  0.68310  0.44100  Biso   1.000  H
  H126     1.0000 0.85240  0.31690  0.94100  Biso   1.000  H
  H127     1.0000 0.14760  0.81690  0.55900  Biso   1.000  H
  H128     1.0000 0.35240  0.18310  0.05900  Biso   1.000  H
