data_image0
_cell_length_a       11.528
_cell_length_b       19.491
_cell_length_c       21.891
_cell_angle_alpha    90
_cell_angle_beta     90
_cell_angle_gamma    90

_symmetry_space_group_name_H-M    "P 1"
_symmetry_int_tables_number       1

loop_
  _symmetry_equiv_pos_as_xyz
  'x, y, z'

loop_
  _atom_site_label
  _atom_site_occupancy
  _atom_site_fract_x
  _atom_site_fract_y
  _atom_site_fract_z
  _atom_site_thermal_displace_type
  _atom_site_B_iso_or_equiv
  _atom_site_type_symbol
  Gd1      1.0000 0.02453  0.78373  0.48343  Biso   1.000  Gd
  Gd2      1.0000 0.47547  0.21627  0.98343  Biso   1.000  Gd
  Gd3      1.0000 0.52453  0.71627  0.51657  Biso   1.000  Gd
  Gd4      1.0000 0.97547  0.28373  0.01657  Biso   1.000  Gd
  Gd5      1.0000 0.97547  0.21627  0.51657  Biso   1.000  Gd
  Gd6      1.0000 0.52453  0.78373  0.01657  Biso   1.000  Gd
  Gd7      1.0000 0.47547  0.28373  0.48343  Biso   1.000  Gd
  Gd8      1.0000 0.02453  0.71627  0.98343  Biso   1.000  Gd
  O1       1.0000 0.16510  0.69570  0.47960  Biso   1.000  O
  O2       1.0000 0.33490  0.30430  0.97960  Biso   1.000  O
  O3       1.0000 0.66510  0.80430  0.52040  Biso   1.000  O
  O4       1.0000 0.83490  0.19570  0.02040  Biso   1.000  O
  O5       1.0000 0.83490  0.30430  0.52040  Biso   1.000  O
  O6       1.0000 0.66510  0.69570  0.02040  Biso   1.000  O
  O7       1.0000 0.33490  0.19570  0.47960  Biso   1.000  O
  O8       1.0000 0.16510  0.80430  0.97960  Biso   1.000  O
  C1       1.0000 0.24480  0.65270  0.47750  Biso   1.000  C
  C2       1.0000 0.25520  0.34730  0.97750  Biso   1.000  C
  C3       1.0000 0.74480  0.84730  0.52250  Biso   1.000  C
  C4       1.0000 0.75520  0.15270  0.02250  Biso   1.000  C
  C5       1.0000 0.75520  0.34730  0.52250  Biso   1.000  C
  C6       1.0000 0.74480  0.65270  0.02250  Biso   1.000  C
  C7       1.0000 0.25520  0.15270  0.47750  Biso   1.000  C
  C8       1.0000 0.24480  0.84730  0.97750  Biso   1.000  C
  O9       1.0000 0.34940  0.66380  0.48950  Biso   1.000  O
  O10      1.0000 0.15060  0.33620  0.98950  Biso   1.000  O
  O11      1.0000 0.84940  0.83620  0.51050  Biso   1.000  O
  O12      1.0000 0.65060  0.16380  0.01050  Biso   1.000  O
  O13      1.0000 0.65060  0.33620  0.51050  Biso   1.000  O
  O14      1.0000 0.84940  0.66380  0.01050  Biso   1.000  O
  O15      1.0000 0.15060  0.16380  0.48950  Biso   1.000  O
  O16      1.0000 0.34940  0.83620  0.98950  Biso   1.000  O
  C9       1.0000 0.21210  0.57850  0.45830  Biso   1.000  C
  C10      1.0000 0.28790  0.42150  0.95830  Biso   1.000  C
  C11      1.0000 0.71210  0.92150  0.54170  Biso   1.000  C
  C12      1.0000 0.78790  0.07850  0.04170  Biso   1.000  C
  C13      1.0000 0.78790  0.42150  0.54170  Biso   1.000  C
  C14      1.0000 0.71210  0.57850  0.04170  Biso   1.000  C
  C15      1.0000 0.28790  0.07850  0.45830  Biso   1.000  C
  C16      1.0000 0.21210  0.92150  0.95830  Biso   1.000  C
  C17      1.0000 0.10050  0.56490  0.43990  Biso   1.000  C
  C18      1.0000 0.39950  0.43510  0.93990  Biso   1.000  C
  C19      1.0000 0.60050  0.93510  0.56010  Biso   1.000  C
  C20      1.0000 0.89950  0.06490  0.06010  Biso   1.000  C
  C21      1.0000 0.89950  0.43510  0.56010  Biso   1.000  C
  C22      1.0000 0.60050  0.56490  0.06010  Biso   1.000  C
  C23      1.0000 0.39950  0.06490  0.43990  Biso   1.000  C
  C24      1.0000 0.10050  0.93510  0.93990  Biso   1.000  C
  C25      1.0000 0.29350  0.52640  0.46090  Biso   1.000  C
  C26      1.0000 0.20650  0.47360  0.96090  Biso   1.000  C
  C27      1.0000 0.79350  0.97360  0.53910  Biso   1.000  C
  C28      1.0000 0.70650  0.02640  0.03910  Biso   1.000  C
  C29      1.0000 0.70650  0.47360  0.53910  Biso   1.000  C
  C30      1.0000 0.79350  0.52640  0.03910  Biso   1.000  C
  C31      1.0000 0.20650  0.02640  0.46090  Biso   1.000  C
  C32      1.0000 0.29350  0.97360  0.96090  Biso   1.000  C
  H1       1.0000 0.04640  0.60030  0.43950  Biso   1.000  H
  H2       1.0000 0.45360  0.39970  0.93950  Biso   1.000  H
  H3       1.0000 0.54640  0.89970  0.56050  Biso   1.000  H
  H4       1.0000 0.95360  0.10030  0.06050  Biso   1.000  H
  H5       1.0000 0.95360  0.39970  0.56050  Biso   1.000  H
  H6       1.0000 0.54640  0.60030  0.06050  Biso   1.000  H
  H7       1.0000 0.45360  0.10030  0.43950  Biso   1.000  H
  H8       1.0000 0.04640  0.89970  0.93950  Biso   1.000  H
  C33      1.0000 0.06630  0.49890  0.42180  Biso   1.000  C
  C34      1.0000 0.43370  0.50110  0.92180  Biso   1.000  C
  C35      1.0000 0.56630  0.00110  0.57820  Biso   1.000  C
  C36      1.0000 0.93370  0.99890  0.07820  Biso   1.000  C
  C37      1.0000 0.93370  0.50110  0.57820  Biso   1.000  C
  C38      1.0000 0.56630  0.49890  0.07820  Biso   1.000  C
  C39      1.0000 0.43370  0.99890  0.42180  Biso   1.000  C
  C40      1.0000 0.06630  0.00110  0.92180  Biso   1.000  C
  C41      1.0000 0.26240  0.46090  0.44330  Biso   1.000  C
  C42      1.0000 0.23760  0.53910  0.94330  Biso   1.000  C
  C43      1.0000 0.76240  0.03910  0.55670  Biso   1.000  C
  C44      1.0000 0.73760  0.96090  0.05670  Biso   1.000  C
  C45      1.0000 0.73760  0.53910  0.55670  Biso   1.000  C
  C46      1.0000 0.76240  0.46090  0.05670  Biso   1.000  C
  C47      1.0000 0.23760  0.96090  0.44330  Biso   1.000  C
  C48      1.0000 0.26240  0.03910  0.94330  Biso   1.000  C
  H9       1.0000 0.36850  0.53540  0.47430  Biso   1.000  H
  H10      1.0000 0.13150  0.46460  0.97430  Biso   1.000  H
  H11      1.0000 0.86850  0.96460  0.52570  Biso   1.000  H
  H12      1.0000 0.63150  0.03540  0.02570  Biso   1.000  H
  H13      1.0000 0.63150  0.46460  0.52570  Biso   1.000  H
  H14      1.0000 0.86850  0.53540  0.02570  Biso   1.000  H
  H15      1.0000 0.13150  0.03540  0.47430  Biso   1.000  H
  H16      1.0000 0.36850  0.96460  0.97430  Biso   1.000  H
  C49      1.0000 0.94470  0.48360  0.40480  Biso   1.000  C
  C50      1.0000 0.55530  0.51640  0.90480  Biso   1.000  C
  C51      1.0000 0.44470  0.01640  0.59520  Biso   1.000  C
  C52      1.0000 0.05530  0.98360  0.09520  Biso   1.000  C
  C53      1.0000 0.05530  0.51640  0.59520  Biso   1.000  C
  C54      1.0000 0.44470  0.48360  0.09520  Biso   1.000  C
  C55      1.0000 0.55530  0.98360  0.40480  Biso   1.000  C
  C56      1.0000 0.94470  0.01640  0.90480  Biso   1.000  C
  C57      1.0000 0.14870  0.44750  0.42340  Biso   1.000  C
  C58      1.0000 0.35130  0.55250  0.92340  Biso   1.000  C
  C59      1.0000 0.64870  0.05250  0.57660  Biso   1.000  C
  C60      1.0000 0.85130  0.94750  0.07660  Biso   1.000  C
  C61      1.0000 0.85130  0.55250  0.57660  Biso   1.000  C
  C62      1.0000 0.64870  0.44750  0.07660  Biso   1.000  C
  C63      1.0000 0.35130  0.94750  0.42340  Biso   1.000  C
  C64      1.0000 0.14870  0.05250  0.92340  Biso   1.000  C
  C65      1.0000 0.34260  0.40000  0.44890  Biso   1.000  C
  C66      1.0000 0.15740  0.60000  0.94890  Biso   1.000  C
  C67      1.0000 0.84260  0.10000  0.55110  Biso   1.000  C
  C68      1.0000 0.65740  0.90000  0.05110  Biso   1.000  C
  C69      1.0000 0.65740  0.60000  0.55110  Biso   1.000  C
  C70      1.0000 0.84260  0.40000  0.05110  Biso   1.000  C
  C71      1.0000 0.15740  0.90000  0.44890  Biso   1.000  C
  C72      1.0000 0.34260  0.10000  0.94890  Biso   1.000  C
  C73      1.0000 0.85600  0.53180  0.41430  Biso   1.000  C
  C74      1.0000 0.64400  0.46820  0.91430  Biso   1.000  C
  C75      1.0000 0.35600  0.96820  0.58570  Biso   1.000  C
  C76      1.0000 0.14400  0.03180  0.08570  Biso   1.000  C
  C77      1.0000 0.14400  0.46820  0.58570  Biso   1.000  C
  C78      1.0000 0.35600  0.53180  0.08570  Biso   1.000  C
  C79      1.0000 0.64400  0.03180  0.41430  Biso   1.000  C
  C80      1.0000 0.85600  0.96820  0.91430  Biso   1.000  C
  C81      1.0000 0.91030  0.42070  0.38240  Biso   1.000  C
  C82      1.0000 0.58970  0.57930  0.88240  Biso   1.000  C
  C83      1.0000 0.41030  0.07930  0.61760  Biso   1.000  C
  C84      1.0000 0.08970  0.92070  0.11760  Biso   1.000  C
  C85      1.0000 0.08970  0.57930  0.61760  Biso   1.000  C
  C86      1.0000 0.41030  0.42070  0.11760  Biso   1.000  C
  C87      1.0000 0.58970  0.92070  0.38240  Biso   1.000  C
  C88      1.0000 0.91030  0.07930  0.88240  Biso   1.000  C
  H17      1.0000 0.12870  0.40350  0.41100  Biso   1.000  H
  H18      1.0000 0.37130  0.59650  0.91100  Biso   1.000  H
  H19      1.0000 0.62870  0.09650  0.58900  Biso   1.000  H
  H20      1.0000 0.87130  0.90350  0.08900  Biso   1.000  H
  H21      1.0000 0.87130  0.59650  0.58900  Biso   1.000  H
  H22      1.0000 0.62870  0.40350  0.08900  Biso   1.000  H
  H23      1.0000 0.37130  0.90350  0.41100  Biso   1.000  H
  H24      1.0000 0.12870  0.09650  0.91100  Biso   1.000  H
  O17      1.0000 0.30080  0.33980  0.44320  Biso   1.000  O
  O18      1.0000 0.19920  0.66020  0.94320  Biso   1.000  O
  O19      1.0000 0.80080  0.16020  0.55680  Biso   1.000  O
  O20      1.0000 0.69920  0.83980  0.05680  Biso   1.000  O
  O21      1.0000 0.69920  0.66020  0.55680  Biso   1.000  O
  O22      1.0000 0.80080  0.33980  0.05680  Biso   1.000  O
  O23      1.0000 0.19920  0.83980  0.44320  Biso   1.000  O
  O24      1.0000 0.30080  0.16020  0.94320  Biso   1.000  O
  O25      1.0000 0.45020  0.40840  0.46070  Biso   1.000  O
  O26      1.0000 0.04980  0.59160  0.96070  Biso   1.000  O
  O27      1.0000 0.95020  0.09160  0.53930  Biso   1.000  O
  O28      1.0000 0.54980  0.90840  0.03930  Biso   1.000  O
  O29      1.0000 0.54980  0.59160  0.53930  Biso   1.000  O
  O30      1.0000 0.95020  0.40840  0.03930  Biso   1.000  O
  O31      1.0000 0.04980  0.90840  0.46070  Biso   1.000  O
  O32      1.0000 0.45020  0.09160  0.96070  Biso   1.000  O
  C89      1.0000 0.74340  0.51450  0.40260  Biso   1.000  C
  C90      1.0000 0.75660  0.48550  0.90260  Biso   1.000  C
  C91      1.0000 0.24340  0.98550  0.59740  Biso   1.000  C
  C92      1.0000 0.25660  0.01450  0.09740  Biso   1.000  C
  C93      1.0000 0.25660  0.48550  0.59740  Biso   1.000  C
  C94      1.0000 0.24340  0.51450  0.09740  Biso   1.000  C
  C95      1.0000 0.75660  0.01450  0.40260  Biso   1.000  C
  C96      1.0000 0.74340  0.98550  0.90260  Biso   1.000  C
  H25      1.0000 0.87390  0.57550  0.42850  Biso   1.000  H
  H26      1.0000 0.62610  0.42450  0.92850  Biso   1.000  H
  H27      1.0000 0.37390  0.92450  0.57150  Biso   1.000  H
  H28      1.0000 0.12610  0.07550  0.07150  Biso   1.000  H
  H29      1.0000 0.12610  0.42450  0.57150  Biso   1.000  H
  H30      1.0000 0.37390  0.57550  0.07150  Biso   1.000  H
  H31      1.0000 0.62610  0.07550  0.42850  Biso   1.000  H
  H32      1.0000 0.87390  0.92450  0.92850  Biso   1.000  H
  C97      1.0000 0.79230  0.40530  0.37240  Biso   1.000  C
  C98      1.0000 0.70770  0.59470  0.87240  Biso   1.000  C
  C99      1.0000 0.29230  0.09470  0.62760  Biso   1.000  C
  C100     1.0000 0.20770  0.90530  0.12760  Biso   1.000  C
  C101     1.0000 0.20770  0.59470  0.62760  Biso   1.000  C
  C102     1.0000 0.29230  0.40530  0.12760  Biso   1.000  C
  C103     1.0000 0.70770  0.90530  0.37240  Biso   1.000  C
  C104     1.0000 0.79230  0.09470  0.87240  Biso   1.000  C
  H33      1.0000 0.96620  0.38770  0.37370  Biso   1.000  H
  H34      1.0000 0.53380  0.61230  0.87370  Biso   1.000  H
  H35      1.0000 0.46620  0.11230  0.62630  Biso   1.000  H
  H36      1.0000 0.03380  0.88770  0.12630  Biso   1.000  H
  H37      1.0000 0.03380  0.61230  0.62630  Biso   1.000  H
  H38      1.0000 0.46620  0.38770  0.12630  Biso   1.000  H
  H39      1.0000 0.53380  0.88770  0.37370  Biso   1.000  H
  H40      1.0000 0.96620  0.11230  0.87370  Biso   1.000  H
  Cu1      1.0000 0.54993  0.43862  0.35740  Biso   1.000  Cu
  Cu2      1.0000 0.95007  0.56138  0.85740  Biso   1.000  Cu
  Cu3      1.0000 0.04993  0.06138  0.64260  Biso   1.000  Cu
  Cu4      1.0000 0.45007  0.93862  0.14260  Biso   1.000  Cu
  Cu5      1.0000 0.45007  0.56138  0.64260  Biso   1.000  Cu
  Cu6      1.0000 0.04993  0.43862  0.14260  Biso   1.000  Cu
  Cu7      1.0000 0.95007  0.93862  0.35740  Biso   1.000  Cu
  Cu8      1.0000 0.54993  0.06138  0.85740  Biso   1.000  Cu
  N1       1.0000 0.70930  0.45310  0.38170  Biso   1.000  N
  N2       1.0000 0.79070  0.54690  0.88170  Biso   1.000  N
  N3       1.0000 0.20930  0.04690  0.61830  Biso   1.000  N
  N4       1.0000 0.29070  0.95310  0.11830  Biso   1.000  N
  N5       1.0000 0.29070  0.54690  0.61830  Biso   1.000  N
  N6       1.0000 0.20930  0.45310  0.11830  Biso   1.000  N
  N7       1.0000 0.79070  0.95310  0.38170  Biso   1.000  N
  N8       1.0000 0.70930  0.04690  0.88170  Biso   1.000  N
  H41      1.0000 0.68660  0.54740  0.40970  Biso   1.000  H
  H42      1.0000 0.81340  0.45260  0.90970  Biso   1.000  H
  H43      1.0000 0.18660  0.95260  0.59030  Biso   1.000  H
  H44      1.0000 0.31340  0.04740  0.09030  Biso   1.000  H
  H45      1.0000 0.31340  0.45260  0.59030  Biso   1.000  H
  H46      1.0000 0.18660  0.54740  0.09030  Biso   1.000  H
  H47      1.0000 0.81340  0.04740  0.40970  Biso   1.000  H
  H48      1.0000 0.68660  0.95260  0.90970  Biso   1.000  H
  H49      1.0000 0.77140  0.36170  0.35930  Biso   1.000  H
  H50      1.0000 0.72860  0.63830  0.85930  Biso   1.000  H
  H51      1.0000 0.27140  0.13830  0.64070  Biso   1.000  H
  H52      1.0000 0.22860  0.86170  0.14070  Biso   1.000  H
  H53      1.0000 0.22860  0.63830  0.64070  Biso   1.000  H
  H54      1.0000 0.27140  0.36170  0.14070  Biso   1.000  H
  H55      1.0000 0.72860  0.86170  0.35930  Biso   1.000  H
  H56      1.0000 0.77140  0.13830  0.85930  Biso   1.000  H
  O33      1.0000 0.49810  0.24040  0.58900  Biso   1.000  O
  O34      1.0000 0.00190  0.75960  0.08900  Biso   1.000  O
  O35      1.0000 0.99810  0.25960  0.41100  Biso   1.000  O
  O36      1.0000 0.50190  0.74040  0.91100  Biso   1.000  O
  O37      1.0000 0.50190  0.75960  0.41100  Biso   1.000  O
  O38      1.0000 0.99810  0.24040  0.91100  Biso   1.000  O
  O39      1.0000 0.00190  0.74040  0.58900  Biso   1.000  O
  O40      1.0000 0.49810  0.25960  0.08900  Biso   1.000  O
  O41      1.0000 0.62280  0.19210  0.47530  Biso   1.000  O
  O42      1.0000 0.87720  0.80790  0.97530  Biso   1.000  O
  O43      1.0000 0.12280  0.30790  0.52470  Biso   1.000  O
  O44      1.0000 0.37720  0.69210  0.02470  Biso   1.000  O
  O45      1.0000 0.37720  0.80790  0.52470  Biso   1.000  O
  O46      1.0000 0.12280  0.19210  0.02470  Biso   1.000  O
  O47      1.0000 0.87720  0.69210  0.47530  Biso   1.000  O
  O48      1.0000 0.62280  0.30790  0.97530  Biso   1.000  O
  O49      1.0000 0.51140  0.27240  0.38140  Biso   1.000  O
  O50      1.0000 0.98860  0.72760  0.88140  Biso   1.000  O
  O51      1.0000 0.01140  0.22760  0.61860  Biso   1.000  O
  O52      1.0000 0.48860  0.77240  0.11860  Biso   1.000  O
  O53      1.0000 0.48860  0.72760  0.61860  Biso   1.000  O
  O54      1.0000 0.01140  0.27240  0.11860  Biso   1.000  O
  O55      1.0000 0.98860  0.77240  0.38140  Biso   1.000  O
  O56      1.0000 0.51140  0.22760  0.88140  Biso   1.000  O
  O57      1.0000 0.36430  0.31960  0.57350  Biso   1.000  O
  O58      1.0000 0.13570  0.68040  0.07350  Biso   1.000  O
  O59      1.0000 0.86430  0.18040  0.42650  Biso   1.000  O
  O60      1.0000 0.63570  0.81960  0.92650  Biso   1.000  O
  O61      1.0000 0.63570  0.68040  0.42650  Biso   1.000  O
  O62      1.0000 0.86430  0.31960  0.92650  Biso   1.000  O
  O63      1.0000 0.13570  0.81960  0.57350  Biso   1.000  O
  O64      1.0000 0.36430  0.18040  0.07350  Biso   1.000  O
  H57      1.0000 0.65370  0.18320  0.44100  Biso   1.000  H
  H58      1.0000 0.84630  0.81680  0.94100  Biso   1.000  H
  H59      1.0000 0.15370  0.31680  0.55900  Biso   1.000  H
  H60      1.0000 0.34630  0.68320  0.05900  Biso   1.000  H
  H61      1.0000 0.34630  0.81680  0.55900  Biso   1.000  H
  H62      1.0000 0.15370  0.18320  0.05900  Biso   1.000  H
  H63      1.0000 0.84630  0.68320  0.44100  Biso   1.000  H
  H64      1.0000 0.65370  0.31680  0.94100  Biso   1.000  H
  H65      1.0000 0.64250  0.16950  0.50690  Biso   1.000  H
  H66      1.0000 0.85750  0.83050  0.00690  Biso   1.000  H
  H67      1.0000 0.14250  0.33050  0.49310  Biso   1.000  H
  H68      1.0000 0.35750  0.66950  0.99310  Biso   1.000  H
  H69      1.0000 0.35750  0.83050  0.49310  Biso   1.000  H
  H70      1.0000 0.14250  0.16950  0.99310  Biso   1.000  H
  H71      1.0000 0.85750  0.66950  0.50690  Biso   1.000  H
  H72      1.0000 0.64250  0.33050  0.00690  Biso   1.000  H
  O65      1.0000 0.53200  0.35070  0.30770  Biso   1.000  O
  O66      1.0000 0.96800  0.64930  0.80770  Biso   1.000  O
  O67      1.0000 0.03200  0.14930  0.69230  Biso   1.000  O
  O68      1.0000 0.46800  0.85070  0.19230  Biso   1.000  O
  O69      1.0000 0.46800  0.64930  0.69230  Biso   1.000  O
  O70      1.0000 0.03200  0.35070  0.19230  Biso   1.000  O
  O71      1.0000 0.96800  0.85070  0.30770  Biso   1.000  O
  O72      1.0000 0.53200  0.14930  0.80770  Biso   1.000  O
  N9       1.0000 0.43860  0.50700  0.32540  Biso   1.000  N
  N10      1.0000 0.06140  0.49300  0.82540  Biso   1.000  N
  N11      1.0000 0.93860  0.99300  0.67460  Biso   1.000  N
  N12      1.0000 0.56140  0.00700  0.17460  Biso   1.000  N
  N13      1.0000 0.56140  0.49300  0.67460  Biso   1.000  N
  N14      1.0000 0.93860  0.50700  0.17460  Biso   1.000  N
  N15      1.0000 0.06140  0.00700  0.32540  Biso   1.000  N
  N16      1.0000 0.43860  0.99300  0.82540  Biso   1.000  N
  C105     1.0000 0.50000  0.29380  0.32690  Biso   1.000  C
  C106     1.0000 0.00000  0.70620  0.82690  Biso   1.000  C
  C107     1.0000 0.00000  0.20620  0.67310  Biso   1.000  C
  C108     1.0000 0.50000  0.79380  0.17310  Biso   1.000  C
  C109     1.0000 0.50000  0.70620  0.67310  Biso   1.000  C
  C110     1.0000 0.00000  0.29380  0.17310  Biso   1.000  C
  C111     1.0000 0.00000  0.79380  0.32690  Biso   1.000  C
  C112     1.0000 0.50000  0.20620  0.82690  Biso   1.000  C
  C113     1.0000 0.44070  0.24740  0.28140  Biso   1.000  C
  C114     1.0000 0.05930  0.75260  0.78140  Biso   1.000  C
  C115     1.0000 0.94070  0.25260  0.71860  Biso   1.000  C
  C116     1.0000 0.55930  0.74740  0.21860  Biso   1.000  C
  C117     1.0000 0.55930  0.75260  0.71860  Biso   1.000  C
  C118     1.0000 0.94070  0.24740  0.21860  Biso   1.000  C
  C119     1.0000 0.05930  0.74740  0.28140  Biso   1.000  C
  C120     1.0000 0.44070  0.25260  0.78140  Biso   1.000  C
  C121     1.0000 0.45600  0.25660  0.21890  Biso   1.000  C
  C122     1.0000 0.04400  0.74340  0.71890  Biso   1.000  C
  C123     1.0000 0.95600  0.24340  0.78110  Biso   1.000  C
  C124     1.0000 0.54400  0.75660  0.28110  Biso   1.000  C
  C125     1.0000 0.54400  0.74340  0.78110  Biso   1.000  C
  C126     1.0000 0.95600  0.25660  0.28110  Biso   1.000  C
  C127     1.0000 0.04400  0.75660  0.21890  Biso   1.000  C
  C128     1.0000 0.45600  0.24340  0.71890  Biso   1.000  C
  C129     1.0000 0.36550  0.19660  0.30170  Biso   1.000  C
  C130     1.0000 0.13450  0.80340  0.80170  Biso   1.000  C
  C131     1.0000 0.86550  0.30340  0.69830  Biso   1.000  C
  C132     1.0000 0.63450  0.69660  0.19830  Biso   1.000  C
  C133     1.0000 0.63450  0.80340  0.69830  Biso   1.000  C
  C134     1.0000 0.86550  0.19660  0.19830  Biso   1.000  C
  C135     1.0000 0.13450  0.69660  0.30170  Biso   1.000  C
  C136     1.0000 0.36550  0.30340  0.80170  Biso   1.000  C
  C137     1.0000 0.39800  0.21510  0.17740  Biso   1.000  C
  C138     1.0000 0.10200  0.78490  0.67740  Biso   1.000  C
  C139     1.0000 0.89800  0.28490  0.82260  Biso   1.000  C
  C140     1.0000 0.60200  0.71510  0.32260  Biso   1.000  C
  C141     1.0000 0.60200  0.78490  0.82260  Biso   1.000  C
  C142     1.0000 0.89800  0.21510  0.32260  Biso   1.000  C
  C143     1.0000 0.10200  0.71510  0.17740  Biso   1.000  C
  C144     1.0000 0.39800  0.28490  0.67740  Biso   1.000  C
  H73      1.0000 0.50550  0.29080  0.20470  Biso   1.000  H
  H74      1.0000 0.99450  0.70920  0.70470  Biso   1.000  H
  H75      1.0000 0.00550  0.20920  0.79530  Biso   1.000  H
  H76      1.0000 0.49450  0.79080  0.29530  Biso   1.000  H
  H77      1.0000 0.49450  0.70920  0.79530  Biso   1.000  H
  H78      1.0000 0.00550  0.29080  0.29530  Biso   1.000  H
  H79      1.0000 0.99450  0.79080  0.20470  Biso   1.000  H
  H80      1.0000 0.50550  0.20920  0.70470  Biso   1.000  H
  C145     1.0000 0.30430  0.15560  0.26140  Biso   1.000  C
  C146     1.0000 0.19570  0.84440  0.76140  Biso   1.000  C
  C147     1.0000 0.80430  0.34440  0.73860  Biso   1.000  C
  C148     1.0000 0.69570  0.65560  0.23860  Biso   1.000  C
  C149     1.0000 0.69570  0.84440  0.73860  Biso   1.000  C
  C150     1.0000 0.80430  0.15560  0.23860  Biso   1.000  C
  C151     1.0000 0.19570  0.65560  0.26140  Biso   1.000  C
  C152     1.0000 0.30430  0.34440  0.76140  Biso   1.000  C
  H81      1.0000 0.35590  0.19010  0.34350  Biso   1.000  H
  H82      1.0000 0.14410  0.80990  0.84350  Biso   1.000  H
  H83      1.0000 0.85590  0.30990  0.65650  Biso   1.000  H
  H84      1.0000 0.64410  0.69010  0.15650  Biso   1.000  H
  H85      1.0000 0.64410  0.80990  0.65650  Biso   1.000  H
  H86      1.0000 0.85590  0.19010  0.15650  Biso   1.000  H
  H87      1.0000 0.14410  0.69010  0.34350  Biso   1.000  H
  H88      1.0000 0.35590  0.30990  0.84350  Biso   1.000  H
  C153     1.0000 0.41870  0.21980  0.10970  Biso   1.000  C
  C154     1.0000 0.08130  0.78020  0.60970  Biso   1.000  C
  C155     1.0000 0.91870  0.28020  0.89030  Biso   1.000  C
  C156     1.0000 0.58130  0.71980  0.39030  Biso   1.000  C
  C157     1.0000 0.58130  0.78020  0.89030  Biso   1.000  C
  C158     1.0000 0.91870  0.21980  0.39030  Biso   1.000  C
  C159     1.0000 0.08130  0.71980  0.10970  Biso   1.000  C
  C160     1.0000 0.41870  0.28020  0.60970  Biso   1.000  C
  C161     1.0000 0.32100  0.16530  0.19790  Biso   1.000  C
  C162     1.0000 0.17900  0.83470  0.69790  Biso   1.000  C
  C163     1.0000 0.82100  0.33470  0.80210  Biso   1.000  C
  C164     1.0000 0.67900  0.66530  0.30210  Biso   1.000  C
  C165     1.0000 0.67900  0.83470  0.80210  Biso   1.000  C
  C166     1.0000 0.82100  0.16530  0.30210  Biso   1.000  C
  C167     1.0000 0.17900  0.66530  0.19790  Biso   1.000  C
  C168     1.0000 0.32100  0.33470  0.69790  Biso   1.000  C
  C169     1.0000 0.22120  0.10290  0.28320  Biso   1.000  C
  C170     1.0000 0.27880  0.89710  0.78320  Biso   1.000  C
  C171     1.0000 0.72120  0.39710  0.71680  Biso   1.000  C
  C172     1.0000 0.77880  0.60290  0.21680  Biso   1.000  C
  C173     1.0000 0.77880  0.89710  0.71680  Biso   1.000  C
  C174     1.0000 0.72120  0.10290  0.21680  Biso   1.000  C
  C175     1.0000 0.27880  0.60290  0.28320  Biso   1.000  C
  C176     1.0000 0.22120  0.39710  0.78320  Biso   1.000  C
  H89      1.0000 0.28050  0.13840  0.17000  Biso   1.000  H
  H90      1.0000 0.21950  0.86160  0.67000  Biso   1.000  H
  H91      1.0000 0.78050  0.36160  0.83000  Biso   1.000  H
  H92      1.0000 0.71950  0.63840  0.33000  Biso   1.000  H
  H93      1.0000 0.71950  0.86160  0.83000  Biso   1.000  H
  H94      1.0000 0.78050  0.13840  0.33000  Biso   1.000  H
  H95      1.0000 0.21950  0.63840  0.17000  Biso   1.000  H
  H96      1.0000 0.28050  0.36160  0.67000  Biso   1.000  H
  C177     1.0000 0.22140  0.03730  0.26110  Biso   1.000  C
  C178     1.0000 0.27860  0.96270  0.76110  Biso   1.000  C
  C179     1.0000 0.72140  0.46270  0.73890  Biso   1.000  C
  C180     1.0000 0.77860  0.53730  0.23890  Biso   1.000  C
  C181     1.0000 0.77860  0.96270  0.73890  Biso   1.000  C
  C182     1.0000 0.72140  0.03730  0.23890  Biso   1.000  C
  C183     1.0000 0.27860  0.53730  0.26110  Biso   1.000  C
  C184     1.0000 0.22140  0.46270  0.76110  Biso   1.000  C
  C185     1.0000 0.14160  0.11870  0.32910  Biso   1.000  C
  C186     1.0000 0.35840  0.88130  0.82910  Biso   1.000  C
  C187     1.0000 0.64160  0.38130  0.67090  Biso   1.000  C
  C188     1.0000 0.85840  0.61870  0.17090  Biso   1.000  C
  C189     1.0000 0.85840  0.88130  0.67090  Biso   1.000  C
  C190     1.0000 0.64160  0.11870  0.17090  Biso   1.000  C
  C191     1.0000 0.35840  0.61870  0.32910  Biso   1.000  C
  C192     1.0000 0.14160  0.38130  0.82910  Biso   1.000  C
  C193     1.0000 0.14090  0.98980  0.28340  Biso   1.000  C
  C194     1.0000 0.35910  0.01020  0.78340  Biso   1.000  C
  C195     1.0000 0.64090  0.51020  0.71660  Biso   1.000  C
  C196     1.0000 0.85910  0.48980  0.21660  Biso   1.000  C
  C197     1.0000 0.85910  0.01020  0.71660  Biso   1.000  C
  C198     1.0000 0.64090  0.98980  0.21660  Biso   1.000  C
  C199     1.0000 0.35910  0.48980  0.28340  Biso   1.000  C
  C200     1.0000 0.14090  0.51020  0.78340  Biso   1.000  C
  H97      1.0000 0.27490  0.02430  0.23150  Biso   1.000  H
  H98      1.0000 0.22510  0.97570  0.73150  Biso   1.000  H
  H99      1.0000 0.77490  0.47570  0.76850  Biso   1.000  H
  H100     1.0000 0.72510  0.52430  0.26850  Biso   1.000  H
  H101     1.0000 0.72510  0.97570  0.76850  Biso   1.000  H
  H102     1.0000 0.77490  0.02430  0.26850  Biso   1.000  H
  H103     1.0000 0.22510  0.52430  0.23150  Biso   1.000  H
  H104     1.0000 0.27490  0.47570  0.73150  Biso   1.000  H
  C201     1.0000 0.06820  0.06970  0.34750  Biso   1.000  C
  C202     1.0000 0.43180  0.93030  0.84750  Biso   1.000  C
  C203     1.0000 0.56820  0.43030  0.65250  Biso   1.000  C
  C204     1.0000 0.93180  0.56970  0.15250  Biso   1.000  C
  C205     1.0000 0.93180  0.93030  0.65250  Biso   1.000  C
  C206     1.0000 0.56820  0.06970  0.15250  Biso   1.000  C
  C207     1.0000 0.43180  0.56970  0.34750  Biso   1.000  C
  C208     1.0000 0.06820  0.43030  0.84750  Biso   1.000  C
  H105     1.0000 0.13950  0.16220  0.34650  Biso   1.000  H
  H106     1.0000 0.36050  0.83780  0.84650  Biso   1.000  H
  H107     1.0000 0.63950  0.33780  0.65350  Biso   1.000  H
  H108     1.0000 0.86050  0.66220  0.15350  Biso   1.000  H
  H109     1.0000 0.86050  0.83780  0.65350  Biso   1.000  H
  H110     1.0000 0.63950  0.16220  0.15350  Biso   1.000  H
  H111     1.0000 0.36050  0.66220  0.34650  Biso   1.000  H
  H112     1.0000 0.13950  0.33780  0.84650  Biso   1.000  H
  H113     1.0000 0.14240  0.94500  0.26870  Biso   1.000  H
  H114     1.0000 0.35760  0.05500  0.76870  Biso   1.000  H
  H115     1.0000 0.64240  0.55500  0.73130  Biso   1.000  H
  H116     1.0000 0.85760  0.44500  0.23130  Biso   1.000  H
  H117     1.0000 0.85760  0.05500  0.73130  Biso   1.000  H
  H118     1.0000 0.64240  0.94500  0.23130  Biso   1.000  H
  H119     1.0000 0.35760  0.44500  0.26870  Biso   1.000  H
  H120     1.0000 0.14240  0.55500  0.76870  Biso   1.000  H
  H121     1.0000 0.01730  0.08090  0.37900  Biso   1.000  H
  H122     1.0000 0.48270  0.91910  0.87900  Biso   1.000  H
  H123     1.0000 0.51730  0.41910  0.62100  Biso   1.000  H
  H124     1.0000 0.98270  0.58090  0.12100  Biso   1.000  H
  H125     1.0000 0.98270  0.91910  0.62100  Biso   1.000  H
  H126     1.0000 0.51730  0.08090  0.12100  Biso   1.000  H
  H127     1.0000 0.48270  0.58090  0.37900  Biso   1.000  H
  H128     1.0000 0.01730  0.41910  0.87900  Biso   1.000  H
