data_image0
_cell_length_a       8.2567
_cell_length_b       15.1583
_cell_length_c       8.226
_cell_angle_alpha    90
_cell_angle_beta     115.689
_cell_angle_gamma    90

_symmetry_space_group_name_H-M    "P 1"
_symmetry_int_tables_number       1

loop_
  _symmetry_equiv_pos_as_xyz
  'x, y, z'

loop_
  _atom_site_label
  _atom_site_occupancy
  _atom_site_fract_x
  _atom_site_fract_y
  _atom_site_fract_z
  _atom_site_thermal_displace_type
  _atom_site_B_iso_or_equiv
  _atom_site_type_symbol
  Cu1      1.0000 0.02481  0.32910  0.21725  Biso   1.000  Cu
  Cu2      1.0000 0.52481  0.17090  0.71725  Biso   1.000  Cu
  Cu3      1.0000 0.97519  0.67090  0.78275  Biso   1.000  Cu
  Cu4      1.0000 0.47519  0.82910  0.28275  Biso   1.000  Cu
  N1       1.0000 0.23000  0.26740  0.40600  Biso   1.000  N
  N2       1.0000 0.73000  0.23260  0.90600  Biso   1.000  N
  N3       1.0000 0.77000  0.73260  0.59400  Biso   1.000  N
  N4       1.0000 0.27000  0.76740  0.09400  Biso   1.000  N
  N5       1.0000 0.05800  0.45580  0.28500  Biso   1.000  N
  N6       1.0000 0.55800  0.04420  0.78500  Biso   1.000  N
  N7       1.0000 0.94200  0.54420  0.71500  Biso   1.000  N
  N8       1.0000 0.44200  0.95580  0.21500  Biso   1.000  N
  N9       1.0000 0.96160  0.60430  0.24880  Biso   1.000  N
  N10      1.0000 0.46160  0.89570  0.74880  Biso   1.000  N
  N11      1.0000 0.03840  0.39570  0.75120  Biso   1.000  N
  N12      1.0000 0.53840  0.10430  0.25120  Biso   1.000  N
  N13      1.0000 0.78190  0.49430  0.06420  Biso   1.000  N
  N14      1.0000 0.28190  0.00570  0.56420  Biso   1.000  N
  N15      1.0000 0.21810  0.50570  0.93580  Biso   1.000  N
  N16      1.0000 0.71810  0.99430  0.43580  Biso   1.000  N
  H1       1.0000 0.77500  0.44900  0.03500  Biso   1.000  H
  H2       1.0000 0.27500  0.05100  0.53500  Biso   1.000  H
  H3       1.0000 0.22500  0.55100  0.96500  Biso   1.000  H
  H4       1.0000 0.72500  0.94900  0.46500  Biso   1.000  H
  C1       1.0000 0.34380  0.23040  0.52380  Biso   1.000  C
  C2       1.0000 0.84380  0.26960  0.02380  Biso   1.000  C
  C3       1.0000 0.65620  0.76960  0.47620  Biso   1.000  C
  C4       1.0000 0.15620  0.73040  0.97620  Biso   1.000  C
  C5       1.0000 0.94080  0.51810  0.20260  Biso   1.000  C
  C6       1.0000 0.44080  0.98190  0.70260  Biso   1.000  C
  C7       1.0000 0.05920  0.48190  0.79740  Biso   1.000  C
  C8       1.0000 0.55920  0.01810  0.29740  Biso   1.000  C
  C9       1.0000 0.21930  0.48310  0.44470  Biso   1.000  C
  C10      1.0000 0.71930  0.01690  0.94470  Biso   1.000  C
  C11      1.0000 0.78070  0.51690  0.55530  Biso   1.000  C
  C12      1.0000 0.28070  0.98310  0.05530  Biso   1.000  C
  H5       1.0000 0.19700  0.48300  0.54600  Biso   1.000  H
  H6       1.0000 0.69700  0.01700  0.04600  Biso   1.000  H
  H7       1.0000 0.80300  0.51700  0.45400  Biso   1.000  H
  H8       1.0000 0.30300  0.98300  0.95400  Biso   1.000  H
  H9       1.0000 0.30600  0.44500  0.46600  Biso   1.000  H
  H10      1.0000 0.80600  0.05500  0.96600  Biso   1.000  H
  H11      1.0000 0.69400  0.55500  0.53400  Biso   1.000  H
  H12      1.0000 0.19400  0.94500  0.03400  Biso   1.000  H
  C13      1.0000 0.28210  0.57380  0.42320  Biso   1.000  C
  C14      1.0000 0.78210  0.92620  0.92320  Biso   1.000  C
  C15      1.0000 0.71790  0.42620  0.57680  Biso   1.000  C
  C16      1.0000 0.21790  0.07380  0.07680  Biso   1.000  C
  H13      1.0000 0.37700  0.59100  0.51700  Biso   1.000  H
  H14      1.0000 0.87700  0.90900  0.01700  Biso   1.000  H
  H15      1.0000 0.62300  0.40900  0.48300  Biso   1.000  H
  H16      1.0000 0.12300  0.09100  0.98300  Biso   1.000  H
  H17      1.0000 0.31300  0.57300  0.31500  Biso   1.000  H
  H18      1.0000 0.81300  0.92700  0.81500  Biso   1.000  H
  H19      1.0000 0.68700  0.42700  0.68500  Biso   1.000  H
  H20      1.0000 0.18700  0.07300  0.18500  Biso   1.000  H
  C17      1.0000 0.13160  0.63760  0.38750  Biso   1.000  C
  C18      1.0000 0.63160  0.86240  0.88750  Biso   1.000  C
  C19      1.0000 0.86840  0.36240  0.61250  Biso   1.000  C
  C20      1.0000 0.36840  0.13760  0.11250  Biso   1.000  C
  H21      1.0000 0.11300  0.64200  0.49400  Biso   1.000  H
  H22      1.0000 0.61300  0.85800  0.99400  Biso   1.000  H
  H23      1.0000 0.88700  0.35800  0.50600  Biso   1.000  H
  H24      1.0000 0.38700  0.14200  0.00600  Biso   1.000  H
  H25      1.0000 0.15800  0.69000  0.35000  Biso   1.000  H
  H26      1.0000 0.65800  0.81000  0.85000  Biso   1.000  H
  H27      1.0000 0.84200  0.31000  0.65000  Biso   1.000  H
  H28      1.0000 0.34200  0.19000  0.15000  Biso   1.000  H
  C21      1.0000 0.82350  0.67200  0.16160  Biso   1.000  C
  C22      1.0000 0.32350  0.82800  0.66160  Biso   1.000  C
  C23      1.0000 0.17650  0.32800  0.83840  Biso   1.000  C
  C24      1.0000 0.67650  0.17200  0.33840  Biso   1.000  C
  H29      1.0000 0.86100  0.70300  0.09000  Biso   1.000  H
  H30      1.0000 0.36100  0.79700  0.59000  Biso   1.000  H
  H31      1.0000 0.13900  0.29700  0.91000  Biso   1.000  H
  H32      1.0000 0.63900  0.20300  0.41000  Biso   1.000  H
  H33      1.0000 0.82900  0.70800  0.25100  Biso   1.000  H
  H34      1.0000 0.32900  0.79200  0.75100  Biso   1.000  H
  H35      1.0000 0.17100  0.29200  0.74900  Biso   1.000  H
  H36      1.0000 0.67100  0.20800  0.24900  Biso   1.000  H
  C25      1.0000 0.64110  0.63240  0.05470  Biso   1.000  C
  C26      1.0000 0.14110  0.86760  0.55470  Biso   1.000  C
  C27      1.0000 0.35890  0.36760  0.94530  Biso   1.000  C
  C28      1.0000 0.85890  0.13240  0.44530  Biso   1.000  C
  H37      1.0000 0.56100  0.67600  0.97600  Biso   1.000  H
  H38      1.0000 0.06100  0.82400  0.47600  Biso   1.000  H
  H39      1.0000 0.43900  0.32400  0.02400  Biso   1.000  H
  H40      1.0000 0.93900  0.17600  0.52400  Biso   1.000  H
  H41      1.0000 0.58400  0.60900  0.13000  Biso   1.000  H
  H42      1.0000 0.08400  0.89100  0.63000  Biso   1.000  H
  H43      1.0000 0.41600  0.39100  0.87000  Biso   1.000  H
  H44      1.0000 0.91600  0.10900  0.37000  Biso   1.000  H
  C29      1.0000 0.65720  0.55830  0.94140  Biso   1.000  C
  C30      1.0000 0.15720  0.94170  0.44140  Biso   1.000  C
  C31      1.0000 0.34280  0.44170  0.05860  Biso   1.000  C
  C32      1.0000 0.84280  0.05830  0.55860  Biso   1.000  C
  H45      1.0000 0.53700  0.53200  0.86800  Biso   1.000  H
  H46      1.0000 0.03700  0.96800  0.36800  Biso   1.000  H
  H47      1.0000 0.46300  0.46800  0.13200  Biso   1.000  H
  H48      1.0000 0.96300  0.03200  0.63200  Biso   1.000  H
  H49      1.0000 0.69700  0.57900  0.86000  Biso   1.000  H
  H50      1.0000 0.19700  0.92100  0.36000  Biso   1.000  H
  H51      1.0000 0.30300  0.42100  0.14000  Biso   1.000  H
  H52      1.0000 0.80300  0.07900  0.64000  Biso   1.000  H
