data_image0
_cell_length_a       5.462
_cell_length_b       6.94
_cell_length_c       10.435
_cell_angle_alpha    95.35
_cell_angle_beta     104.56
_cell_angle_gamma    110.13

_symmetry_space_group_name_H-M    "P 1"
_symmetry_int_tables_number       1

loop_
  _symmetry_equiv_pos_as_xyz
  'x, y, z'

loop_
  _atom_site_label
  _atom_site_occupancy
  _atom_site_fract_x
  _atom_site_fract_y
  _atom_site_fract_z
  _atom_site_thermal_displace_type
  _atom_site_B_iso_or_equiv
  _atom_site_type_symbol
  Cu1      1.0000 0.46100  0.61380  0.66180  Biso   1.000  Cu
  Cu2      1.0000 0.53900  0.38620  0.33820  Biso   1.000  Cu
  O1       1.0000 0.25570  0.64200  0.46510  Biso   1.000  O
  O2       1.0000 0.74430  0.35800  0.53490  Biso   1.000  O
  C1       1.0000 0.11030  0.52080  0.35520  Biso   1.000  C
  C2       1.0000 0.88970  0.47920  0.64480  Biso   1.000  C
  O3       1.0000 0.15790  0.37440  0.29890  Biso   1.000  O
  O4       1.0000 0.84210  0.62560  0.70110  Biso   1.000  O
  C3       1.0000 0.86220  0.55530  0.27760  Biso   1.000  C
  C4       1.0000 0.13780  0.44470  0.72240  Biso   1.000  C
  C5       1.0000 0.76590  0.69140  0.33090  Biso   1.000  C
  C6       1.0000 0.23410  0.30860  0.66910  Biso   1.000  C
  C7       1.0000 0.59270  0.78900  0.25450  Biso   1.000  C
  C8       1.0000 0.40730  0.21100  0.74550  Biso   1.000  C
  C9       1.0000 0.60500  0.98180  0.31670  Biso   1.000  C
  C10      1.0000 0.39500  0.01820  0.68330  Biso   1.000  C
  C11      1.0000 0.41260  0.70360  0.12440  Biso   1.000  C
  C12      1.0000 0.58740  0.29640  0.87560  Biso   1.000  C
  C13      1.0000 0.29030  0.00100  0.13040  Biso   1.000  C
  C14      1.0000 0.70970  0.99900  0.86960  Biso   1.000  C
  N1       1.0000 0.46330  0.08860  0.25740  Biso   1.000  N
  N2       1.0000 0.53670  0.91140  0.74260  Biso   1.000  N
  C15      1.0000 0.26270  0.81070  0.06110  Biso   1.000  C
  C16      1.0000 0.73730  0.18930  0.93890  Biso   1.000  C
  H1       1.0000 0.77010  0.48080  0.18960  Biso   1.000  H
  H2       1.0000 0.22990  0.51920  0.81040  Biso   1.000  H
  H3       1.0000 0.81500  0.72550  0.42450  Biso   1.000  H
  H4       1.0000 0.18500  0.27450  0.57550  Biso   1.000  H
  H5       1.0000 0.71930  0.03840  0.40480  Biso   1.000  H
  H6       1.0000 0.28070  0.96160  0.59520  Biso   1.000  H
  H7       1.0000 0.39340  0.57410  0.08020  Biso   1.000  H
  H8       1.0000 0.60660  0.42590  0.91980  Biso   1.000  H
  H9       1.0000 0.18600  0.07160  0.08820  Biso   1.000  H
  H10      1.0000 0.81400  0.92840  0.91180  Biso   1.000  H
  H11      1.0000 0.14510  0.75630  0.97340  Biso   1.000  H
  H12      1.0000 0.85490  0.24370  0.02660  Biso   1.000  H
