data_image0
_cell_length_a       20.149
_cell_length_b       5.1578
_cell_length_c       15.397
_cell_angle_alpha    90
_cell_angle_beta     90
_cell_angle_gamma    90

_symmetry_space_group_name_H-M    "P 1"
_symmetry_int_tables_number       1

loop_
  _symmetry_equiv_pos_as_xyz
  'x, y, z'

loop_
  _atom_site_label
  _atom_site_occupancy
  _atom_site_fract_x
  _atom_site_fract_y
  _atom_site_fract_z
  _atom_site_thermal_displace_type
  _atom_site_B_iso_or_equiv
  _atom_site_type_symbol
  Cu1      1.0000 0.48170  0.20220  0.61870  Biso   1.000  Cu
  Cu2      1.0000 0.01830  0.29780  0.11870  Biso   1.000  Cu
  Cu3      1.0000 0.98170  0.29780  0.38130  Biso   1.000  Cu
  Cu4      1.0000 0.51830  0.20220  0.88130  Biso   1.000  Cu
  Cu5      1.0000 0.51830  0.79780  0.38130  Biso   1.000  Cu
  Cu6      1.0000 0.98170  0.70220  0.88130  Biso   1.000  Cu
  Cu7      1.0000 0.01830  0.70220  0.61870  Biso   1.000  Cu
  Cu8      1.0000 0.48170  0.79780  0.11870  Biso   1.000  Cu
  C1       1.0000 0.56600  0.33600  0.67990  Biso   1.000  C
  C2       1.0000 0.93400  0.16400  0.17990  Biso   1.000  C
  C3       1.0000 0.06600  0.16400  0.32010  Biso   1.000  C
  C4       1.0000 0.43400  0.33600  0.82010  Biso   1.000  C
  C5       1.0000 0.43400  0.66400  0.32010  Biso   1.000  C
  C6       1.0000 0.06600  0.83600  0.82010  Biso   1.000  C
  C7       1.0000 0.93400  0.83600  0.67990  Biso   1.000  C
  C8       1.0000 0.56600  0.66400  0.17990  Biso   1.000  C
  C9       1.0000 0.60430  0.12100  0.71980  Biso   1.000  C
  C10      1.0000 0.89570  0.37900  0.21980  Biso   1.000  C
  C11      1.0000 0.10430  0.37900  0.28020  Biso   1.000  C
  C12      1.0000 0.39570  0.12100  0.78020  Biso   1.000  C
  C13      1.0000 0.39570  0.87900  0.28020  Biso   1.000  C
  C14      1.0000 0.10430  0.62100  0.78020  Biso   1.000  C
  C15      1.0000 0.89570  0.62100  0.71980  Biso   1.000  C
  C16      1.0000 0.60430  0.87900  0.21980  Biso   1.000  C
  O1       1.0000 0.28250  0.37320  0.51150  Biso   1.000  O
  O2       1.0000 0.21750  0.12680  0.01150  Biso   1.000  O
  O3       1.0000 0.78250  0.12680  0.48850  Biso   1.000  O
  O4       1.0000 0.71750  0.37320  0.98850  Biso   1.000  O
  O5       1.0000 0.71750  0.62680  0.48850  Biso   1.000  O
  O6       1.0000 0.78250  0.87320  0.98850  Biso   1.000  O
  O7       1.0000 0.21750  0.87320  0.51150  Biso   1.000  O
  O8       1.0000 0.28250  0.62680  0.01150  Biso   1.000  O
  C17      1.0000 0.56760  0.39270  0.59170  Biso   1.000  C
  C18      1.0000 0.93240  0.10730  0.09170  Biso   1.000  C
  C19      1.0000 0.06760  0.10730  0.40830  Biso   1.000  C
  C20      1.0000 0.43240  0.39270  0.90830  Biso   1.000  C
  C21      1.0000 0.43240  0.60730  0.40830  Biso   1.000  C
  C22      1.0000 0.06760  0.89270  0.90830  Biso   1.000  C
  C23      1.0000 0.93240  0.89270  0.59170  Biso   1.000  C
  C24      1.0000 0.56760  0.60730  0.09170  Biso   1.000  C
  N1       1.0000 0.59180  0.06710  0.80450  Biso   1.000  N
  N2       1.0000 0.90820  0.43290  0.30450  Biso   1.000  N
  N3       1.0000 0.09180  0.43290  0.19550  Biso   1.000  N
  N4       1.0000 0.40820  0.06710  0.69550  Biso   1.000  N
  N5       1.0000 0.40820  0.93290  0.19550  Biso   1.000  N
  N6       1.0000 0.09180  0.56710  0.69550  Biso   1.000  N
  N7       1.0000 0.90820  0.56710  0.80450  Biso   1.000  N
  N8       1.0000 0.59180  0.93290  0.30450  Biso   1.000  N
  C25      1.0000 0.65200  0.98490  0.67400  Biso   1.000  C
  C26      1.0000 0.84800  0.51510  0.17400  Biso   1.000  C
  C27      1.0000 0.15200  0.51510  0.32600  Biso   1.000  C
  C28      1.0000 0.34800  0.98490  0.82600  Biso   1.000  C
  C29      1.0000 0.34800  0.01510  0.32600  Biso   1.000  C
  C30      1.0000 0.15200  0.48490  0.82600  Biso   1.000  C
  C31      1.0000 0.84800  0.48490  0.67400  Biso   1.000  C
  C32      1.0000 0.65200  0.01510  0.17400  Biso   1.000  C
  C33      1.0000 0.62800  0.87780  0.84290  Biso   1.000  C
  C34      1.0000 0.87200  0.62220  0.34290  Biso   1.000  C
  C35      1.0000 0.12800  0.62220  0.15710  Biso   1.000  C
  C36      1.0000 0.37200  0.87780  0.65710  Biso   1.000  C
  C37      1.0000 0.37200  0.12220  0.15710  Biso   1.000  C
  C38      1.0000 0.12800  0.37780  0.65710  Biso   1.000  C
  C39      1.0000 0.87200  0.37780  0.84290  Biso   1.000  C
  C40      1.0000 0.62800  0.12220  0.34290  Biso   1.000  C
  C41      1.0000 0.68720  0.78770  0.71360  Biso   1.000  C
  C42      1.0000 0.81280  0.71230  0.21360  Biso   1.000  C
  C43      1.0000 0.18720  0.71230  0.28640  Biso   1.000  C
  C44      1.0000 0.31280  0.78770  0.78640  Biso   1.000  C
  C45      1.0000 0.31280  0.21230  0.28640  Biso   1.000  C
  C46      1.0000 0.18720  0.28770  0.78640  Biso   1.000  C
  C47      1.0000 0.81280  0.28770  0.71360  Biso   1.000  C
  C48      1.0000 0.68720  0.21230  0.21360  Biso   1.000  C
  C49      1.0000 0.67550  0.73410  0.79960  Biso   1.000  C
  C50      1.0000 0.82450  0.76590  0.29960  Biso   1.000  C
  C51      1.0000 0.17550  0.76590  0.20040  Biso   1.000  C
  C52      1.0000 0.32450  0.73410  0.70040  Biso   1.000  C
  C53      1.0000 0.32450  0.26590  0.20040  Biso   1.000  C
  C54      1.0000 0.17550  0.23410  0.70040  Biso   1.000  C
  C55      1.0000 0.82450  0.23410  0.79960  Biso   1.000  C
  C56      1.0000 0.67550  0.26590  0.29960  Biso   1.000  C
  C57      1.0000 0.54850  0.65530  0.55770  Biso   1.000  C
  C58      1.0000 0.95150  0.84470  0.05770  Biso   1.000  C
  C59      1.0000 0.04850  0.84470  0.44230  Biso   1.000  C
  C60      1.0000 0.45150  0.65530  0.94230  Biso   1.000  C
  C61      1.0000 0.45150  0.34470  0.44230  Biso   1.000  C
  C62      1.0000 0.04850  0.15530  0.94230  Biso   1.000  C
  C63      1.0000 0.95150  0.15530  0.55770  Biso   1.000  C
  C64      1.0000 0.54850  0.34470  0.05770  Biso   1.000  C
  O9       1.0000 0.57520  0.71840  0.48520  Biso   1.000  O
  O10      1.0000 0.92480  0.78160  0.98520  Biso   1.000  O
  O11      1.0000 0.07520  0.78160  0.51480  Biso   1.000  O
  O12      1.0000 0.42480  0.71840  0.01480  Biso   1.000  O
  O13      1.0000 0.42480  0.28160  0.51480  Biso   1.000  O
  O14      1.0000 0.07520  0.21840  0.01480  Biso   1.000  O
  O15      1.0000 0.92480  0.21840  0.48520  Biso   1.000  O
  O16      1.0000 0.57520  0.28160  0.98520  Biso   1.000  O
  O17      1.0000 0.50930  0.78790  0.60070  Biso   1.000  O
  O18      1.0000 0.99070  0.71210  0.10070  Biso   1.000  O
  O19      1.0000 0.00930  0.71210  0.39930  Biso   1.000  O
  O20      1.0000 0.49070  0.78790  0.89930  Biso   1.000  O
  O21      1.0000 0.49070  0.21210  0.39930  Biso   1.000  O
  O22      1.0000 0.00930  0.28790  0.89930  Biso   1.000  O
  O23      1.0000 0.99070  0.28790  0.60070  Biso   1.000  O
  O24      1.0000 0.50930  0.21210  0.10070  Biso   1.000  O
  H1       1.0000 0.55900  0.48620  0.71780  Biso   1.000  H
  H2       1.0000 0.94100  0.01380  0.21780  Biso   1.000  H
  H3       1.0000 0.05900  0.01380  0.28220  Biso   1.000  H
  H4       1.0000 0.44100  0.48620  0.78220  Biso   1.000  H
  H5       1.0000 0.44100  0.51380  0.28220  Biso   1.000  H
  H6       1.0000 0.05900  0.98620  0.78220  Biso   1.000  H
  H7       1.0000 0.94100  0.98620  0.71780  Biso   1.000  H
  H8       1.0000 0.55900  0.51380  0.21780  Biso   1.000  H
  H9       1.0000 0.60030  0.29680  0.55730  Biso   1.000  H
  H10      1.0000 0.89970  0.20320  0.05730  Biso   1.000  H
  H11      1.0000 0.10030  0.20320  0.44270  Biso   1.000  H
  H12      1.0000 0.39970  0.29680  0.94270  Biso   1.000  H
  H13      1.0000 0.39970  0.70320  0.44270  Biso   1.000  H
  H14      1.0000 0.10030  0.79680  0.94270  Biso   1.000  H
  H15      1.0000 0.89970  0.79680  0.55730  Biso   1.000  H
  H16      1.0000 0.60030  0.70320  0.05730  Biso   1.000  H
  H17      1.0000 0.26200  0.23400  0.51200  Biso   1.000  H
  H18      1.0000 0.23800  0.26600  0.01200  Biso   1.000  H
  H19      1.0000 0.76200  0.26600  0.48800  Biso   1.000  H
  H20      1.0000 0.73800  0.23400  0.98800  Biso   1.000  H
  H21      1.0000 0.73800  0.76600  0.48800  Biso   1.000  H
  H22      1.0000 0.76200  0.73400  0.98800  Biso   1.000  H
  H23      1.0000 0.23800  0.73400  0.51200  Biso   1.000  H
  H24      1.0000 0.26200  0.76600  0.01200  Biso   1.000  H
  H25      1.0000 0.65760  0.02600  0.61800  Biso   1.000  H
  H26      1.0000 0.84240  0.47400  0.11800  Biso   1.000  H
  H27      1.0000 0.15760  0.47400  0.38200  Biso   1.000  H
  H28      1.0000 0.34240  0.02600  0.88200  Biso   1.000  H
  H29      1.0000 0.34240  0.97400  0.38200  Biso   1.000  H
  H30      1.0000 0.15760  0.52600  0.88200  Biso   1.000  H
  H31      1.0000 0.84240  0.52600  0.61800  Biso   1.000  H
  H32      1.0000 0.65760  0.97400  0.11800  Biso   1.000  H
  H33      1.0000 0.71600  0.70700  0.68200  Biso   1.000  H
  H34      1.0000 0.78400  0.79300  0.18200  Biso   1.000  H
  H35      1.0000 0.21600  0.79300  0.31800  Biso   1.000  H
  H36      1.0000 0.28400  0.70700  0.81800  Biso   1.000  H
  H37      1.0000 0.28400  0.29300  0.31800  Biso   1.000  H
  H38      1.0000 0.21600  0.20700  0.81800  Biso   1.000  H
  H39      1.0000 0.78400  0.20700  0.68200  Biso   1.000  H
  H40      1.0000 0.71600  0.29300  0.18200  Biso   1.000  H
  H41      1.0000 0.69600  0.60900  0.82800  Biso   1.000  H
  H42      1.0000 0.80400  0.89100  0.32800  Biso   1.000  H
  H43      1.0000 0.19600  0.89100  0.17200  Biso   1.000  H
  H44      1.0000 0.30400  0.60900  0.67200  Biso   1.000  H
  H45      1.0000 0.30400  0.39100  0.17200  Biso   1.000  H
  H46      1.0000 0.19600  0.10900  0.67200  Biso   1.000  H
  H47      1.0000 0.80400  0.10900  0.82800  Biso   1.000  H
  H48      1.0000 0.69600  0.39100  0.32800  Biso   1.000  H
  H49      1.0000 0.62100  0.84800  0.90100  Biso   1.000  H
  H50      1.0000 0.87900  0.65200  0.40100  Biso   1.000  H
  H51      1.0000 0.12100  0.65200  0.09900  Biso   1.000  H
  H52      1.0000 0.37900  0.84800  0.59900  Biso   1.000  H
  H53      1.0000 0.37900  0.15200  0.09900  Biso   1.000  H
  H54      1.0000 0.12100  0.34800  0.59900  Biso   1.000  H
  H55      1.0000 0.87900  0.34800  0.90100  Biso   1.000  H
  H56      1.0000 0.62100  0.15200  0.40100  Biso   1.000  H
  H57      1.0000 0.31900  0.33800  0.53900  Biso   1.000  H
  H58      1.0000 0.18100  0.16200  0.03900  Biso   1.000  H
  H59      1.0000 0.81900  0.16200  0.46100  Biso   1.000  H
  H60      1.0000 0.68100  0.33800  0.96100  Biso   1.000  H
  H61      1.0000 0.68100  0.66200  0.46100  Biso   1.000  H
  H62      1.0000 0.81900  0.83800  0.96100  Biso   1.000  H
  H63      1.0000 0.18100  0.83800  0.53900  Biso   1.000  H
  H64      1.0000 0.31900  0.66200  0.03900  Biso   1.000  H
