data_image0
_cell_length_a       7.9843
_cell_length_b       6.5815
_cell_length_c       19.995
_cell_angle_alpha    90
_cell_angle_beta     97.277
_cell_angle_gamma    90

_symmetry_space_group_name_H-M    "P 1"
_symmetry_int_tables_number       1

loop_
  _symmetry_equiv_pos_as_xyz
  'x, y, z'

loop_
  _atom_site_label
  _atom_site_occupancy
  _atom_site_fract_x
  _atom_site_fract_y
  _atom_site_fract_z
  _atom_site_thermal_displace_type
  _atom_site_B_iso_or_equiv
  _atom_site_type_symbol
  Cu1      1.0000 0.14979  0.35085  0.24011  Biso   1.000  Cu
  Cu2      1.0000 0.85021  0.85085  0.25989  Biso   1.000  Cu
  Cu3      1.0000 0.85021  0.64915  0.75989  Biso   1.000  Cu
  Cu4      1.0000 0.14979  0.14915  0.74011  Biso   1.000  Cu
  S1       1.0000 0.11638  0.68542  0.27543  Biso   1.000  S
  S2       1.0000 0.88362  0.18542  0.22457  Biso   1.000  S
  S3       1.0000 0.88362  0.31458  0.72457  Biso   1.000  S
  S4       1.0000 0.11638  0.81458  0.77543  Biso   1.000  S
  C1       1.0000 0.12190  0.66220  0.36070  Biso   1.000  C
  C2       1.0000 0.87810  0.16220  0.13930  Biso   1.000  C
  C3       1.0000 0.87810  0.33780  0.63930  Biso   1.000  C
  C4       1.0000 0.12190  0.83780  0.86070  Biso   1.000  C
  N1       1.0000 0.01900  0.77230  0.39490  Biso   1.000  N
  N2       1.0000 0.98100  0.27230  0.10510  Biso   1.000  N
  N3       1.0000 0.98100  0.22770  0.60510  Biso   1.000  N
  N4       1.0000 0.01900  0.72770  0.89490  Biso   1.000  N
  H1       1.0000 0.02920  0.71660  0.43280  Biso   1.000  H
  H2       1.0000 0.97080  0.21660  0.06720  Biso   1.000  H
  H3       1.0000 0.97080  0.28340  0.56720  Biso   1.000  H
  H4       1.0000 0.02920  0.78340  0.93280  Biso   1.000  H
  N5       1.0000 0.86810  0.85150  0.36300  Biso   1.000  N
  N6       1.0000 0.13190  0.35150  0.13700  Biso   1.000  N
  N7       1.0000 0.13190  0.14850  0.63700  Biso   1.000  N
  N8       1.0000 0.86810  0.64850  0.86300  Biso   1.000  N
  H5       1.0000 0.82730  0.97730  0.37250  Biso   1.000  H
  H6       1.0000 0.17270  0.47730  0.12750  Biso   1.000  H
  H7       1.0000 0.17270  0.02270  0.62750  Biso   1.000  H
  H8       1.0000 0.82730  0.52270  0.87250  Biso   1.000  H
  H9       1.0000 0.77220  0.76920  0.36920  Biso   1.000  H
  H10      1.0000 0.22780  0.26920  0.13080  Biso   1.000  H
  H11      1.0000 0.22780  0.23080  0.63080  Biso   1.000  H
  H12      1.0000 0.77220  0.73080  0.86920  Biso   1.000  H
  N9       1.0000 0.23300  0.54360  0.39710  Biso   1.000  N
  N10      1.0000 0.76700  0.04360  0.10290  Biso   1.000  N
  N11      1.0000 0.76700  0.45640  0.60290  Biso   1.000  N
  N12      1.0000 0.23300  0.95640  0.89710  Biso   1.000  N
  H13      1.0000 0.26300  0.57640  0.42790  Biso   1.000  H
  H14      1.0000 0.73700  0.07640  0.07210  Biso   1.000  H
  H15      1.0000 0.73700  0.42360  0.57210  Biso   1.000  H
  H16      1.0000 0.26300  0.92360  0.92790  Biso   1.000  H
  C5       1.0000 0.36220  0.43150  0.37010  Biso   1.000  C
  C6       1.0000 0.63780  0.93150  0.12990  Biso   1.000  C
  C7       1.0000 0.63780  0.56850  0.62990  Biso   1.000  C
  C8       1.0000 0.36220  0.06850  0.87010  Biso   1.000  C
  H17      1.0000 0.44430  0.38610  0.40700  Biso   1.000  H
  H18      1.0000 0.55570  0.88610  0.09300  Biso   1.000  H
  H19      1.0000 0.55570  0.61390  0.59300  Biso   1.000  H
  H20      1.0000 0.44430  0.11390  0.90700  Biso   1.000  H
  H21      1.0000 0.41980  0.52110  0.34200  Biso   1.000  H
  H22      1.0000 0.58020  0.02110  0.15800  Biso   1.000  H
  H23      1.0000 0.58020  0.47890  0.65800  Biso   1.000  H
  H24      1.0000 0.41980  0.97890  0.84200  Biso   1.000  H
  C9       1.0000 0.29770  0.25070  0.32920  Biso   1.000  C
  C10      1.0000 0.70230  0.75070  0.17080  Biso   1.000  C
  C11      1.0000 0.70230  0.74930  0.67080  Biso   1.000  C
  C12      1.0000 0.29770  0.24930  0.82920  Biso   1.000  C
  H25      1.0000 0.20410  0.18270  0.34140  Biso   1.000  H
  H26      1.0000 0.79590  0.68270  0.15860  Biso   1.000  H
  H27      1.0000 0.79590  0.81730  0.65860  Biso   1.000  H
  H28      1.0000 0.20410  0.31730  0.84140  Biso   1.000  H
  C13      1.0000 0.36700  0.18130  0.27620  Biso   1.000  C
  C14      1.0000 0.63300  0.68130  0.22380  Biso   1.000  C
  C15      1.0000 0.63300  0.81870  0.72380  Biso   1.000  C
  C16      1.0000 0.36700  0.31870  0.77620  Biso   1.000  C
  H29      1.0000 0.46080  0.24620  0.26280  Biso   1.000  H
  H30      1.0000 0.53920  0.74620  0.23720  Biso   1.000  H
  H31      1.0000 0.53920  0.75380  0.73720  Biso   1.000  H
  H32      1.0000 0.46080  0.25380  0.76280  Biso   1.000  H
  H33      1.0000 0.32150  0.06810  0.25270  Biso   1.000  H
  H34      1.0000 0.67850  0.56810  0.24730  Biso   1.000  H
  H35      1.0000 0.67850  0.93190  0.74730  Biso   1.000  H
  H36      1.0000 0.32150  0.43190  0.75270  Biso   1.000  H
  N13      1.0000 0.18110  0.65190  0.57070  Biso   1.000  N
  N14      1.0000 0.81890  0.15190  0.92930  Biso   1.000  N
  N15      1.0000 0.81890  0.34810  0.42930  Biso   1.000  N
  N16      1.0000 0.18110  0.84810  0.07070  Biso   1.000  N
  O1       1.0000 0.23290  0.50250  0.54110  Biso   1.000  O
  O2       1.0000 0.76710  0.00250  0.95890  Biso   1.000  O
  O3       1.0000 0.76710  0.49750  0.45890  Biso   1.000  O
  O4       1.0000 0.23290  0.99750  0.04110  Biso   1.000  O
  O5       1.0000 0.20800  0.66020  0.63250  Biso   1.000  O
  O6       1.0000 0.79200  0.16020  0.86750  Biso   1.000  O
  O7       1.0000 0.79200  0.33980  0.36750  Biso   1.000  O
  O8       1.0000 0.20800  0.83980  0.13250  Biso   1.000  O
  O9       1.0000 0.10060  0.78940  0.53950  Biso   1.000  O
  O10      1.0000 0.89940  0.28940  0.96050  Biso   1.000  O
  O11      1.0000 0.89940  0.21060  0.46050  Biso   1.000  O
  O12      1.0000 0.10060  0.71060  0.03950  Biso   1.000  O
  O13      1.0000 0.52020  0.93210  0.46180  Biso   1.000  O
  O14      1.0000 0.47980  0.43210  0.03820  Biso   1.000  O
  O15      1.0000 0.47980  0.06790  0.53820  Biso   1.000  O
  O16      1.0000 0.52020  0.56790  0.96180  Biso   1.000  O
  H37      1.0000 0.49350  0.05220  0.45810  Biso   1.000  H
  H38      1.0000 0.50650  0.55220  0.04190  Biso   1.000  H
  H39      1.0000 0.50650  0.94780  0.54190  Biso   1.000  H
  H40      1.0000 0.49350  0.44780  0.95810  Biso   1.000  H
  H41      1.0000 0.52610  0.87400  0.41680  Biso   1.000  H
  H42      1.0000 0.47390  0.37400  0.08320  Biso   1.000  H
  H43      1.0000 0.47390  0.12600  0.58320  Biso   1.000  H
  H44      1.0000 0.52610  0.62600  0.91680  Biso   1.000  H
