data_image0
_cell_length_a       17.5832
_cell_length_b       17.5832
_cell_length_c       12.1881
_cell_angle_alpha    90
_cell_angle_beta     90
_cell_angle_gamma    90

_symmetry_space_group_name_H-M    "P 1"
_symmetry_int_tables_number       1

loop_
  _symmetry_equiv_pos_as_xyz
  'x, y, z'

loop_
  _atom_site_label
  _atom_site_occupancy
  _atom_site_fract_x
  _atom_site_fract_y
  _atom_site_fract_z
  _atom_site_thermal_displace_type
  _atom_site_B_iso_or_equiv
  _atom_site_type_symbol
  Cu1      1.0000 0.00000  0.75000  0.09016  Biso   1.000  Cu
  Cu2      1.0000 0.00000  0.25000  0.34016  Biso   1.000  Cu
  Cu3      1.0000 0.50000  0.25000  0.59016  Biso   1.000  Cu
  Cu4      1.0000 0.50000  0.75000  0.84016  Biso   1.000  Cu
  Cu5      1.0000 0.00000  0.25000  0.90984  Biso   1.000  Cu
  Cu6      1.0000 0.50000  0.25000  0.15984  Biso   1.000  Cu
  Cu7      1.0000 0.50000  0.75000  0.40984  Biso   1.000  Cu
  Cu8      1.0000 0.00000  0.75000  0.65984  Biso   1.000  Cu
  Cu9      1.0000 0.14046  0.80280  0.87295  Biso   1.000  Cu
  Cu10     1.0000 0.94720  0.39046  0.12295  Biso   1.000  Cu
  Cu11     1.0000 0.64046  0.30280  0.37295  Biso   1.000  Cu
  Cu12     1.0000 0.44720  0.89046  0.62295  Biso   1.000  Cu
  Cu13     1.0000 0.05280  0.10954  0.12295  Biso   1.000  Cu
  Cu14     1.0000 0.35954  0.19720  0.37295  Biso   1.000  Cu
  Cu15     1.0000 0.55280  0.60954  0.62295  Biso   1.000  Cu
  Cu16     1.0000 0.85954  0.69720  0.87295  Biso   1.000  Cu
  Cu17     1.0000 0.85954  0.19720  0.12705  Biso   1.000  Cu
  Cu18     1.0000 0.55280  0.10954  0.37705  Biso   1.000  Cu
  Cu19     1.0000 0.35954  0.69720  0.62705  Biso   1.000  Cu
  Cu20     1.0000 0.05280  0.60954  0.87705  Biso   1.000  Cu
  Cu21     1.0000 0.44720  0.39046  0.37705  Biso   1.000  Cu
  Cu22     1.0000 0.64046  0.80280  0.62705  Biso   1.000  Cu
  Cu23     1.0000 0.94720  0.89046  0.87705  Biso   1.000  Cu
  Cu24     1.0000 0.14046  0.30280  0.12705  Biso   1.000  Cu
  S1       1.0000 0.09773  0.70730  0.98028  Biso   1.000  S
  S2       1.0000 0.04270  0.34773  0.23028  Biso   1.000  S
  S3       1.0000 0.59773  0.20730  0.48028  Biso   1.000  S
  S4       1.0000 0.54270  0.84773  0.73028  Biso   1.000  S
  S5       1.0000 0.95730  0.15227  0.23028  Biso   1.000  S
  S6       1.0000 0.40227  0.29270  0.48028  Biso   1.000  S
  S7       1.0000 0.45730  0.65227  0.73028  Biso   1.000  S
  S8       1.0000 0.90227  0.79270  0.98028  Biso   1.000  S
  S9       1.0000 0.90227  0.29270  0.01972  Biso   1.000  S
  S10      1.0000 0.45730  0.15227  0.26972  Biso   1.000  S
  S11      1.0000 0.40227  0.79270  0.51972  Biso   1.000  S
  S12      1.0000 0.95730  0.65227  0.76972  Biso   1.000  S
  S13      1.0000 0.54270  0.34773  0.26972  Biso   1.000  S
  S14      1.0000 0.59773  0.70730  0.51972  Biso   1.000  S
  S15      1.0000 0.04270  0.84773  0.76972  Biso   1.000  S
  S16      1.0000 0.09773  0.20730  0.01972  Biso   1.000  S
  Cl1      1.0000 0.25000  0.75000  0.75000  Biso   1.000  Cl
  Cl2      1.0000 0.00000  0.50000  0.00000  Biso   1.000  Cl
  Cl3      1.0000 0.75000  0.25000  0.25000  Biso   1.000  Cl
  Cl4      1.0000 0.50000  0.00000  0.50000  Biso   1.000  Cl
  Cl5      1.0000 0.00000  0.00000  0.00000  Biso   1.000  Cl
  Cl6      1.0000 0.25000  0.25000  0.25000  Biso   1.000  Cl
  Cl7      1.0000 0.50000  0.50000  0.50000  Biso   1.000  Cl
  Cl8      1.0000 0.75000  0.75000  0.75000  Biso   1.000  Cl
  Cl9      1.0000 0.04812  0.84903  0.20431  Biso   1.000  Cl
  Cl10     1.0000 0.90097  0.29812  0.45431  Biso   1.000  Cl
  Cl11     1.0000 0.54812  0.34903  0.70431  Biso   1.000  Cl
  Cl12     1.0000 0.40097  0.79812  0.95431  Biso   1.000  Cl
  Cl13     1.0000 0.09903  0.20188  0.45431  Biso   1.000  Cl
  Cl14     1.0000 0.45188  0.15097  0.70431  Biso   1.000  Cl
  Cl15     1.0000 0.59903  0.70188  0.95431  Biso   1.000  Cl
  Cl16     1.0000 0.95188  0.65097  0.20431  Biso   1.000  Cl
  Cl17     1.0000 0.95188  0.15097  0.79569  Biso   1.000  Cl
  Cl18     1.0000 0.59903  0.20188  0.04569  Biso   1.000  Cl
  Cl19     1.0000 0.45188  0.65097  0.29569  Biso   1.000  Cl
  Cl20     1.0000 0.09903  0.70188  0.54569  Biso   1.000  Cl
  Cl21     1.0000 0.40097  0.29812  0.04569  Biso   1.000  Cl
  Cl22     1.0000 0.54812  0.84903  0.29569  Biso   1.000  Cl
  Cl23     1.0000 0.90097  0.79812  0.54569  Biso   1.000  Cl
  Cl24     1.0000 0.04812  0.34903  0.79569  Biso   1.000  Cl
  Cl25     1.0000 0.20213  0.90588  0.96050  Biso   1.000  Cl
  Cl26     1.0000 0.84412  0.45213  0.21050  Biso   1.000  Cl
  Cl27     1.0000 0.70213  0.40588  0.46050  Biso   1.000  Cl
  Cl28     1.0000 0.34412  0.95213  0.71050  Biso   1.000  Cl
  Cl29     1.0000 0.15588  0.04787  0.21050  Biso   1.000  Cl
  Cl30     1.0000 0.29787  0.09412  0.46050  Biso   1.000  Cl
  Cl31     1.0000 0.65588  0.54787  0.71050  Biso   1.000  Cl
  Cl32     1.0000 0.79787  0.59412  0.96050  Biso   1.000  Cl
  Cl33     1.0000 0.79787  0.09412  0.03950  Biso   1.000  Cl
  Cl34     1.0000 0.65588  0.04787  0.28950  Biso   1.000  Cl
  Cl35     1.0000 0.29787  0.59412  0.53950  Biso   1.000  Cl
  Cl36     1.0000 0.15588  0.54787  0.78950  Biso   1.000  Cl
  Cl37     1.0000 0.34412  0.45213  0.28950  Biso   1.000  Cl
  Cl38     1.0000 0.70213  0.90588  0.53950  Biso   1.000  Cl
  Cl39     1.0000 0.84412  0.95213  0.78950  Biso   1.000  Cl
  Cl40     1.0000 0.20213  0.40588  0.03950  Biso   1.000  Cl
  Cu25     1.0000 0.09439  0.90926  0.05683  Biso   1.000  Cu
  Cu26     1.0000 0.84074  0.34439  0.30683  Biso   1.000  Cu
  Cu27     1.0000 0.59439  0.40926  0.55683  Biso   1.000  Cu
  Cu28     1.0000 0.34074  0.84439  0.80683  Biso   1.000  Cu
  Cu29     1.0000 0.15926  0.15561  0.30683  Biso   1.000  Cu
  Cu30     1.0000 0.40561  0.09074  0.55683  Biso   1.000  Cu
  Cu31     1.0000 0.65926  0.65561  0.80683  Biso   1.000  Cu
  Cu32     1.0000 0.90561  0.59074  0.05683  Biso   1.000  Cu
  Cu33     1.0000 0.90561  0.09074  0.94317  Biso   1.000  Cu
  Cu34     1.0000 0.65926  0.15561  0.19317  Biso   1.000  Cu
  Cu35     1.0000 0.40561  0.59074  0.44317  Biso   1.000  Cu
  Cu36     1.0000 0.15926  0.65561  0.69317  Biso   1.000  Cu
  Cu37     1.0000 0.34074  0.34439  0.19317  Biso   1.000  Cu
  Cu38     1.0000 0.59439  0.90926  0.44317  Biso   1.000  Cu
  Cu39     1.0000 0.84074  0.84439  0.69317  Biso   1.000  Cu
  Cu40     1.0000 0.09439  0.40926  0.94317  Biso   1.000  Cu
  C1       1.0000 0.15960  0.60870  0.13120  Biso   1.000  C
  C2       1.0000 0.14130  0.40960  0.38120  Biso   1.000  C
  C3       1.0000 0.65960  0.10870  0.63120  Biso   1.000  C
  C4       1.0000 0.64130  0.90960  0.88120  Biso   1.000  C
  C5       1.0000 0.85870  0.09040  0.38120  Biso   1.000  C
  C6       1.0000 0.34040  0.39130  0.63120  Biso   1.000  C
  C7       1.0000 0.35870  0.59040  0.88120  Biso   1.000  C
  C8       1.0000 0.84040  0.89130  0.13120  Biso   1.000  C
  C9       1.0000 0.84040  0.39130  0.86880  Biso   1.000  C
  C10      1.0000 0.35870  0.09040  0.11880  Biso   1.000  C
  C11      1.0000 0.34040  0.89130  0.36880  Biso   1.000  C
  C12      1.0000 0.85870  0.59040  0.61880  Biso   1.000  C
  C13      1.0000 0.64130  0.40960  0.11880  Biso   1.000  C
  C14      1.0000 0.65960  0.60870  0.36880  Biso   1.000  C
  C15      1.0000 0.14130  0.90960  0.61880  Biso   1.000  C
  C16      1.0000 0.15960  0.10870  0.86880  Biso   1.000  C
  H1       1.0000 0.11440  0.58140  0.12690  Biso   1.000  H
  H2       1.0000 0.16860  0.36440  0.37690  Biso   1.000  H
  H3       1.0000 0.61440  0.08140  0.62690  Biso   1.000  H
  H4       1.0000 0.66860  0.86440  0.87690  Biso   1.000  H
  H5       1.0000 0.83140  0.13560  0.37690  Biso   1.000  H
  H6       1.0000 0.38560  0.41860  0.62690  Biso   1.000  H
  H7       1.0000 0.33140  0.63560  0.87690  Biso   1.000  H
  H8       1.0000 0.88560  0.91860  0.12690  Biso   1.000  H
  H9       1.0000 0.88560  0.41860  0.87310  Biso   1.000  H
  H10      1.0000 0.33140  0.13560  0.12310  Biso   1.000  H
  H11      1.0000 0.38560  0.91860  0.37310  Biso   1.000  H
  H12      1.0000 0.83140  0.63560  0.62310  Biso   1.000  H
  H13      1.0000 0.66860  0.36440  0.12310  Biso   1.000  H
  H14      1.0000 0.61440  0.58140  0.37310  Biso   1.000  H
  H15      1.0000 0.16860  0.86440  0.62310  Biso   1.000  H
  H16      1.0000 0.11440  0.08140  0.87310  Biso   1.000  H
  C17      1.0000 0.23780  0.71400  0.07840  Biso   1.000  C
  C18      1.0000 0.03600  0.48780  0.32840  Biso   1.000  C
  C19      1.0000 0.73780  0.21400  0.57840  Biso   1.000  C
  C20      1.0000 0.53600  0.98780  0.82840  Biso   1.000  C
  C21      1.0000 0.96400  0.01220  0.32840  Biso   1.000  C
  C22      1.0000 0.26220  0.28600  0.57840  Biso   1.000  C
  C23      1.0000 0.46400  0.51220  0.82840  Biso   1.000  C
  C24      1.0000 0.76220  0.78600  0.07840  Biso   1.000  C
  C25      1.0000 0.76220  0.28600  0.92160  Biso   1.000  C
  C26      1.0000 0.46400  0.01220  0.17160  Biso   1.000  C
  C27      1.0000 0.26220  0.78600  0.42160  Biso   1.000  C
  C28      1.0000 0.96400  0.51220  0.67160  Biso   1.000  C
  C29      1.0000 0.53600  0.48780  0.17160  Biso   1.000  C
  C30      1.0000 0.73780  0.71400  0.42160  Biso   1.000  C
  C31      1.0000 0.03600  0.98780  0.67160  Biso   1.000  C
  C32      1.0000 0.23780  0.21400  0.92160  Biso   1.000  C
  H17      1.0000 0.24630  0.75750  0.03680  Biso   1.000  H
  H18      1.0000 0.99250  0.49630  0.28680  Biso   1.000  H
  H19      1.0000 0.74630  0.25750  0.53680  Biso   1.000  H
  H20      1.0000 0.49250  0.99630  0.78680  Biso   1.000  H
  H21      1.0000 0.00750  0.00370  0.28680  Biso   1.000  H
  H22      1.0000 0.25370  0.24250  0.53680  Biso   1.000  H
  H23      1.0000 0.50750  0.50370  0.78680  Biso   1.000  H
  H24      1.0000 0.75370  0.74250  0.03680  Biso   1.000  H
  H25      1.0000 0.75370  0.24250  0.96320  Biso   1.000  H
  H26      1.0000 0.50750  0.00370  0.21320  Biso   1.000  H
  H27      1.0000 0.25370  0.74250  0.46320  Biso   1.000  H
  H28      1.0000 0.00750  0.50370  0.71320  Biso   1.000  H
  H29      1.0000 0.49250  0.49630  0.21320  Biso   1.000  H
  H30      1.0000 0.74630  0.75750  0.46320  Biso   1.000  H
  H31      1.0000 0.99250  0.99630  0.71320  Biso   1.000  H
  H32      1.0000 0.24630  0.25750  0.96320  Biso   1.000  H
  C33      1.0000 0.16890  0.67520  0.06990  Biso   1.000  C
  C34      1.0000 0.07480  0.41890  0.31990  Biso   1.000  C
  C35      1.0000 0.66890  0.17520  0.56990  Biso   1.000  C
  C36      1.0000 0.57480  0.91890  0.81990  Biso   1.000  C
  C37      1.0000 0.92520  0.08110  0.31990  Biso   1.000  C
  C38      1.0000 0.33110  0.32480  0.56990  Biso   1.000  C
  C39      1.0000 0.42520  0.58110  0.81990  Biso   1.000  C
  C40      1.0000 0.83110  0.82480  0.06990  Biso   1.000  C
  C41      1.0000 0.83110  0.32480  0.93010  Biso   1.000  C
  C42      1.0000 0.42520  0.08110  0.18010  Biso   1.000  C
  C43      1.0000 0.33110  0.82480  0.43010  Biso   1.000  C
  C44      1.0000 0.92520  0.58110  0.68010  Biso   1.000  C
  C45      1.0000 0.57480  0.41890  0.18010  Biso   1.000  C
  C46      1.0000 0.66890  0.67520  0.43010  Biso   1.000  C
  C47      1.0000 0.07480  0.91890  0.68010  Biso   1.000  C
  C48      1.0000 0.16890  0.17520  0.93010  Biso   1.000  C
  N1       1.0000 0.28120  0.62440  0.20430  Biso   1.000  N
  N2       1.0000 0.12560  0.53120  0.45430  Biso   1.000  N
  N3       1.0000 0.78120  0.12440  0.70430  Biso   1.000  N
  N4       1.0000 0.62560  0.03120  0.95430  Biso   1.000  N
  N5       1.0000 0.87440  0.96880  0.45430  Biso   1.000  N
  N6       1.0000 0.21880  0.37560  0.70430  Biso   1.000  N
  N7       1.0000 0.37440  0.46880  0.95430  Biso   1.000  N
  N8       1.0000 0.71880  0.87560  0.20430  Biso   1.000  N
  N9       1.0000 0.71880  0.37560  0.79570  Biso   1.000  N
  N10      1.0000 0.37440  0.96880  0.04570  Biso   1.000  N
  N11      1.0000 0.21880  0.87560  0.29570  Biso   1.000  N
  N12      1.0000 0.87440  0.46880  0.54570  Biso   1.000  N
  N13      1.0000 0.62560  0.53120  0.04570  Biso   1.000  N
  N14      1.0000 0.78120  0.62440  0.29570  Biso   1.000  N
  N15      1.0000 0.12560  0.03120  0.54570  Biso   1.000  N
  N16      1.0000 0.28120  0.12440  0.79570  Biso   1.000  N
  H33      1.0000 0.31650  0.60850  0.24740  Biso   1.000  H
  H34      1.0000 0.14150  0.56650  0.49740  Biso   1.000  H
  H35      1.0000 0.81650  0.10850  0.74740  Biso   1.000  H
  H36      1.0000 0.64150  0.06650  0.99740  Biso   1.000  H
  H37      1.0000 0.85850  0.93350  0.49740  Biso   1.000  H
  H38      1.0000 0.18350  0.39150  0.74740  Biso   1.000  H
  H39      1.0000 0.35850  0.43350  0.99740  Biso   1.000  H
  H40      1.0000 0.68350  0.89150  0.24740  Biso   1.000  H
  H41      1.0000 0.68350  0.39150  0.75260  Biso   1.000  H
  H42      1.0000 0.35850  0.93350  0.00260  Biso   1.000  H
  H43      1.0000 0.18350  0.89150  0.25260  Biso   1.000  H
  H44      1.0000 0.85850  0.43350  0.50260  Biso   1.000  H
  H45      1.0000 0.64150  0.56650  0.00260  Biso   1.000  H
  H46      1.0000 0.81650  0.60850  0.25260  Biso   1.000  H
  H47      1.0000 0.14150  0.06650  0.50260  Biso   1.000  H
  H48      1.0000 0.31650  0.10850  0.75260  Biso   1.000  H
  C49      1.0000 0.29280  0.68820  0.14760  Biso   1.000  C
  C50      1.0000 0.06180  0.54280  0.39760  Biso   1.000  C
  C51      1.0000 0.79280  0.18820  0.64760  Biso   1.000  C
  C52      1.0000 0.56180  0.04280  0.89760  Biso   1.000  C
  C53      1.0000 0.93820  0.95720  0.39760  Biso   1.000  C
  C54      1.0000 0.20720  0.31180  0.64760  Biso   1.000  C
  C55      1.0000 0.43820  0.45720  0.89760  Biso   1.000  C
  C56      1.0000 0.70720  0.81180  0.14760  Biso   1.000  C
  C57      1.0000 0.70720  0.31180  0.85240  Biso   1.000  C
  C58      1.0000 0.43820  0.95720  0.10240  Biso   1.000  C
  C59      1.0000 0.20720  0.81180  0.35240  Biso   1.000  C
  C60      1.0000 0.93820  0.45720  0.60240  Biso   1.000  C
  C61      1.0000 0.56180  0.54280  0.10240  Biso   1.000  C
  C62      1.0000 0.79280  0.68820  0.35240  Biso   1.000  C
  C63      1.0000 0.06180  0.04280  0.60240  Biso   1.000  C
  C64      1.0000 0.29280  0.18820  0.85240  Biso   1.000  C
  H49      1.0000 0.33810  0.71490  0.15530  Biso   1.000  H
  H50      1.0000 0.03510  0.58810  0.40530  Biso   1.000  H
  H51      1.0000 0.83810  0.21490  0.65530  Biso   1.000  H
  H52      1.0000 0.53510  0.08810  0.90530  Biso   1.000  H
  H53      1.0000 0.96490  0.91190  0.40530  Biso   1.000  H
  H54      1.0000 0.16190  0.28510  0.65530  Biso   1.000  H
  H55      1.0000 0.46490  0.41190  0.90530  Biso   1.000  H
  H56      1.0000 0.66190  0.78510  0.15530  Biso   1.000  H
  H57      1.0000 0.66190  0.28510  0.84470  Biso   1.000  H
  H58      1.0000 0.46490  0.91190  0.09470  Biso   1.000  H
  H59      1.0000 0.16190  0.78510  0.34470  Biso   1.000  H
  H60      1.0000 0.96490  0.41190  0.59470  Biso   1.000  H
  H61      1.0000 0.53510  0.58810  0.09470  Biso   1.000  H
  H62      1.0000 0.83810  0.71490  0.34470  Biso   1.000  H
  H63      1.0000 0.03510  0.08810  0.59470  Biso   1.000  H
  H64      1.0000 0.33810  0.21490  0.84470  Biso   1.000  H
  C65      1.0000 0.21670  0.58410  0.19690  Biso   1.000  C
  C66      1.0000 0.16590  0.46670  0.44690  Biso   1.000  C
  C67      1.0000 0.71670  0.08410  0.69690  Biso   1.000  C
  C68      1.0000 0.66590  0.96670  0.94690  Biso   1.000  C
  C69      1.0000 0.83410  0.03330  0.44690  Biso   1.000  C
  C70      1.0000 0.28330  0.41590  0.69690  Biso   1.000  C
  C71      1.0000 0.33410  0.53330  0.94690  Biso   1.000  C
  C72      1.0000 0.78330  0.91590  0.19690  Biso   1.000  C
  C73      1.0000 0.78330  0.41590  0.80310  Biso   1.000  C
  C74      1.0000 0.33410  0.03330  0.05310  Biso   1.000  C
  C75      1.0000 0.28330  0.91590  0.30310  Biso   1.000  C
  C76      1.0000 0.83410  0.53330  0.55310  Biso   1.000  C
  C77      1.0000 0.66590  0.46670  0.05310  Biso   1.000  C
  C78      1.0000 0.71670  0.58410  0.30310  Biso   1.000  C
  C79      1.0000 0.16590  0.96670  0.55310  Biso   1.000  C
  C80      1.0000 0.21670  0.08410  0.80310  Biso   1.000  C
  H65      1.0000 0.21110  0.53940  0.23680  Biso   1.000  H
  H66      1.0000 0.21060  0.46110  0.48680  Biso   1.000  H
  H67      1.0000 0.71110  0.03940  0.73680  Biso   1.000  H
  H68      1.0000 0.71060  0.96110  0.98680  Biso   1.000  H
  H69      1.0000 0.78940  0.03890  0.48680  Biso   1.000  H
  H70      1.0000 0.28890  0.46060  0.73680  Biso   1.000  H
  H71      1.0000 0.28940  0.53890  0.98680  Biso   1.000  H
  H72      1.0000 0.78890  0.96060  0.23680  Biso   1.000  H
  H73      1.0000 0.78890  0.46060  0.76320  Biso   1.000  H
  H74      1.0000 0.28940  0.03890  0.01320  Biso   1.000  H
  H75      1.0000 0.28890  0.96060  0.26320  Biso   1.000  H
  H76      1.0000 0.78940  0.53890  0.51320  Biso   1.000  H
  H77      1.0000 0.71060  0.46110  0.01320  Biso   1.000  H
  H78      1.0000 0.71110  0.53940  0.26320  Biso   1.000  H
  H79      1.0000 0.21060  0.96110  0.51320  Biso   1.000  H
  H80      1.0000 0.21110  0.03940  0.76320  Biso   1.000  H
