data_image0
_cell_length_a       9.1973
_cell_length_b       15.376
_cell_length_c       9.1789
_cell_angle_alpha    90
_cell_angle_beta     111.737
_cell_angle_gamma    90

_symmetry_space_group_name_H-M    "P 1"
_symmetry_int_tables_number       1

loop_
  _symmetry_equiv_pos_as_xyz
  'x, y, z'

loop_
  _atom_site_label
  _atom_site_occupancy
  _atom_site_fract_x
  _atom_site_fract_y
  _atom_site_fract_z
  _atom_site_thermal_displace_type
  _atom_site_B_iso_or_equiv
  _atom_site_type_symbol
  Cu1      1.0000 0.76752  0.80889  0.59126  Biso   1.000  Cu
  Cu2      1.0000 0.23248  0.30889  0.90874  Biso   1.000  Cu
  Cu3      1.0000 0.23248  0.19111  0.40874  Biso   1.000  Cu
  Cu4      1.0000 0.76752  0.69111  0.09126  Biso   1.000  Cu
  C1       1.0000 0.42180  0.79060  0.43880  Biso   1.000  C
  C2       1.0000 0.57820  0.29060  0.06120  Biso   1.000  C
  C3       1.0000 0.57820  0.20940  0.56120  Biso   1.000  C
  C4       1.0000 0.42180  0.70940  0.93880  Biso   1.000  C
  H1       1.0000 0.45120  0.76180  0.36490  Biso   1.000  H
  H2       1.0000 0.54880  0.26180  0.13510  Biso   1.000  H
  H3       1.0000 0.54880  0.23820  0.63510  Biso   1.000  H
  H4       1.0000 0.45120  0.73820  0.86490  Biso   1.000  H
  C5       1.0000 0.27570  0.77510  0.43830  Biso   1.000  C
  C6       1.0000 0.72430  0.27510  0.06170  Biso   1.000  C
  C7       1.0000 0.72430  0.22490  0.56170  Biso   1.000  C
  C8       1.0000 0.27570  0.72490  0.93830  Biso   1.000  C
  H5       1.0000 0.20870  0.73580  0.36830  Biso   1.000  H
  H6       1.0000 0.79130  0.23580  0.13170  Biso   1.000  H
  H7       1.0000 0.79130  0.26420  0.63170  Biso   1.000  H
  H8       1.0000 0.20870  0.76420  0.86830  Biso   1.000  H
  C9       1.0000 0.23050  0.81940  0.54430  Biso   1.000  C
  C10      1.0000 0.76950  0.31940  0.95570  Biso   1.000  C
  C11      1.0000 0.76950  0.18060  0.45570  Biso   1.000  C
  C12      1.0000 0.23050  0.68060  0.04430  Biso   1.000  C
  H9       1.0000 0.13170  0.81040  0.54750  Biso   1.000  H
  H10      1.0000 0.86830  0.31040  0.95250  Biso   1.000  H
  H11      1.0000 0.86830  0.18960  0.45250  Biso   1.000  H
  H12      1.0000 0.13170  0.68960  0.04750  Biso   1.000  H
  C13      1.0000 0.33240  0.87700  0.64530  Biso   1.000  C
  C14      1.0000 0.66760  0.37700  0.85470  Biso   1.000  C
  C15      1.0000 0.66760  0.12300  0.35470  Biso   1.000  C
  C16      1.0000 0.33240  0.62300  0.14530  Biso   1.000  C
  H13      1.0000 0.30210  0.90840  0.71600  Biso   1.000  H
  H14      1.0000 0.69790  0.40840  0.78400  Biso   1.000  H
  H15      1.0000 0.69790  0.09160  0.28400  Biso   1.000  H
  H16      1.0000 0.30210  0.59160  0.21600  Biso   1.000  H
  C17      1.0000 0.48140  0.88849  0.64180  Biso   1.000  C
  C18      1.0000 0.51860  0.38849  0.85820  Biso   1.000  C
  C19      1.0000 0.51860  0.11151  0.35820  Biso   1.000  C
  C20      1.0000 0.48140  0.61151  0.14180  Biso   1.000  C
  C21      1.0000 0.73230  0.97820  0.75060  Biso   1.000  C
  C22      1.0000 0.26770  0.47820  0.74940  Biso   1.000  C
  C23      1.0000 0.26770  0.02180  0.24940  Biso   1.000  C
  C24      1.0000 0.73230  0.52180  0.25060  Biso   1.000  C
  C25      1.0000 0.79950  0.05050  0.84290  Biso   1.000  C
  C26      1.0000 0.20050  0.55050  0.65710  Biso   1.000  C
  C27      1.0000 0.20050  0.94950  0.15710  Biso   1.000  C
  C28      1.0000 0.79950  0.44950  0.34290  Biso   1.000  C
  H17      1.0000 0.75070  0.07630  0.90430  Biso   1.000  H
  H18      1.0000 0.24930  0.57630  0.59570  Biso   1.000  H
  H19      1.0000 0.24930  0.92370  0.09570  Biso   1.000  H
  H20      1.0000 0.75070  0.42370  0.40430  Biso   1.000  H
  C29      1.0000 0.93800  0.08310  0.84250  Biso   1.000  C
  C30      1.0000 0.06200  0.58310  0.65750  Biso   1.000  C
  C31      1.0000 0.06200  0.91690  0.15750  Biso   1.000  C
  C32      1.0000 0.93800  0.41690  0.34250  Biso   1.000  C
  H21      1.0000 0.98450  0.13060  0.90490  Biso   1.000  H
  H22      1.0000 0.01550  0.63060  0.59510  Biso   1.000  H
  H23      1.0000 0.01550  0.86940  0.09510  Biso   1.000  H
  H24      1.0000 0.98450  0.36940  0.40490  Biso   1.000  H
  C33      1.0000 0.00790  0.04530  0.74960  Biso   1.000  C
  C34      1.0000 0.99210  0.54530  0.75040  Biso   1.000  C
  C35      1.0000 0.99210  0.95470  0.25040  Biso   1.000  C
  C36      1.0000 0.00790  0.45470  0.24960  Biso   1.000  C
  H25      1.0000 0.10000  0.06760  0.74470  Biso   1.000  H
  H26      1.0000 0.90000  0.56760  0.75530  Biso   1.000  H
  H27      1.0000 0.90000  0.93240  0.25530  Biso   1.000  H
  H28      1.0000 0.10000  0.43240  0.24470  Biso   1.000  H
  C37      1.0000 0.93780  0.97450  0.66550  Biso   1.000  C
  C38      1.0000 0.06220  0.47450  0.83450  Biso   1.000  C
  C39      1.0000 0.06220  0.02550  0.33450  Biso   1.000  C
  C40      1.0000 0.93780  0.52550  0.16550  Biso   1.000  C
  H29      1.0000 0.98570  0.94820  0.60370  Biso   1.000  H
  H30      1.0000 0.01430  0.44820  0.89630  Biso   1.000  H
  H31      1.0000 0.01430  0.05180  0.39630  Biso   1.000  H
  H32      1.0000 0.98570  0.55180  0.10370  Biso   1.000  H
  C41      1.0000 0.54370  0.97422  0.87810  Biso   1.000  C
  C42      1.0000 0.45630  0.47422  0.62190  Biso   1.000  C
  C43      1.0000 0.45630  0.02578  0.12190  Biso   1.000  C
  C44      1.0000 0.54370  0.52578  0.37810  Biso   1.000  C
  C45      1.0000 0.45540  0.04900  0.86270  Biso   1.000  C
  C46      1.0000 0.54460  0.54900  0.63730  Biso   1.000  C
  C47      1.0000 0.54460  0.95100  0.13730  Biso   1.000  C
  C48      1.0000 0.45540  0.45100  0.36270  Biso   1.000  C
  H33      1.0000 0.42540  0.08160  0.77100  Biso   1.000  H
  H34      1.0000 0.57460  0.58160  0.72900  Biso   1.000  H
  H35      1.0000 0.57460  0.91840  0.22900  Biso   1.000  H
  H36      1.0000 0.42540  0.41840  0.27100  Biso   1.000  H
  C49      1.0000 0.58800  0.92535  0.01350  Biso   1.000  C
  C50      1.0000 0.41200  0.42535  0.48650  Biso   1.000  C
  C51      1.0000 0.41200  0.07465  0.98650  Biso   1.000  C
  C52      1.0000 0.58800  0.57465  0.51350  Biso   1.000  C
  H37      1.0000 0.64700  0.87510  0.02220  Biso   1.000  H
  H38      1.0000 0.35300  0.37510  0.47780  Biso   1.000  H
  H39      1.0000 0.35300  0.12490  0.97780  Biso   1.000  H
  H40      1.0000 0.64700  0.62490  0.52220  Biso   1.000  H
  C53      1.0000 0.80660  0.74699  0.29370  Biso   1.000  C
  C54      1.0000 0.19340  0.24699  0.20630  Biso   1.000  C
  C55      1.0000 0.19340  0.25301  0.70630  Biso   1.000  C
  C56      1.0000 0.80660  0.75301  0.79370  Biso   1.000  C
  C57      1.0000 0.80050  0.77213  0.40910  Biso   1.000  C
  C58      1.0000 0.19950  0.27213  0.09090  Biso   1.000  C
  C59      1.0000 0.19950  0.22787  0.59090  Biso   1.000  C
  C60      1.0000 0.80050  0.72787  0.90910  Biso   1.000  C
  N1       1.0000 0.52660  0.84500  0.53970  Biso   1.000  N
  N2       1.0000 0.47340  0.34500  0.96030  Biso   1.000  N
  N3       1.0000 0.47340  0.15500  0.46030  Biso   1.000  N
  N4       1.0000 0.52660  0.65500  0.03970  Biso   1.000  N
  N5       1.0000 0.58880  0.94536  0.75090  Biso   1.000  N
  N6       1.0000 0.41120  0.44536  0.74910  Biso   1.000  N
  N7       1.0000 0.41120  0.05464  0.24910  Biso   1.000  N
  N8       1.0000 0.58880  0.55464  0.25090  Biso   1.000  N
  N9       1.0000 0.80300  0.93923  0.66500  Biso   1.000  N
  N10      1.0000 0.19700  0.43923  0.83500  Biso   1.000  N
  N11      1.0000 0.19700  0.06077  0.33500  Biso   1.000  N
  N12      1.0000 0.80300  0.56077  0.16500  Biso   1.000  N
