data_image0
_cell_length_a       18.621
_cell_length_b       10.0925
_cell_length_c       18.7696
_cell_angle_alpha    90
_cell_angle_beta     117.627
_cell_angle_gamma    90

_symmetry_space_group_name_H-M    "P 1"
_symmetry_int_tables_number       1

loop_
  _symmetry_equiv_pos_as_xyz
  'x, y, z'

loop_
  _atom_site_label
  _atom_site_occupancy
  _atom_site_fract_x
  _atom_site_fract_y
  _atom_site_fract_z
  _atom_site_thermal_displace_type
  _atom_site_B_iso_or_equiv
  _atom_site_type_symbol
  C1       1.0000 0.94470  0.34690  0.43460  Biso   1.000  C
  C2       1.0000 0.55530  0.84690  0.06540  Biso   1.000  C
  C3       1.0000 0.05530  0.65310  0.56540  Biso   1.000  C
  C4       1.0000 0.44470  0.15310  0.93460  Biso   1.000  C
  H1       1.0000 0.98120  0.36370  0.48800  Biso   1.000  H
  H2       1.0000 0.51880  0.86370  0.01200  Biso   1.000  H
  H3       1.0000 0.01880  0.63630  0.51200  Biso   1.000  H
  H4       1.0000 0.48120  0.13630  0.98800  Biso   1.000  H
  C5       1.0000 0.87090  0.39890  0.40690  Biso   1.000  C
  C6       1.0000 0.62910  0.89890  0.09310  Biso   1.000  C
  C7       1.0000 0.12910  0.60110  0.59310  Biso   1.000  C
  C8       1.0000 0.37090  0.10110  0.90690  Biso   1.000  C
  H5       1.0000 0.85730  0.45650  0.43740  Biso   1.000  H
  H6       1.0000 0.64270  0.95650  0.06260  Biso   1.000  H
  H7       1.0000 0.14270  0.54350  0.56260  Biso   1.000  H
  H8       1.0000 0.35730  0.04350  0.93740  Biso   1.000  H
  C9       1.0000 0.81710  0.36230  0.33130  Biso   1.000  C
  C10      1.0000 0.68290  0.86230  0.16870  Biso   1.000  C
  C11      1.0000 0.18290  0.63770  0.66870  Biso   1.000  C
  C12      1.0000 0.31710  0.13770  0.83130  Biso   1.000  C
  H9       1.0000 0.76360  0.39080  0.31000  Biso   1.000  H
  H10      1.0000 0.73640  0.89080  0.19000  Biso   1.000  H
  H11      1.0000 0.23640  0.60920  0.69000  Biso   1.000  H
  H12      1.0000 0.26360  0.10920  0.81000  Biso   1.000  H
  C13      1.0000 0.83970  0.28470  0.28620  Biso   1.000  C
  C14      1.0000 0.66030  0.78470  0.21380  Biso   1.000  C
  C15      1.0000 0.16030  0.71530  0.71380  Biso   1.000  C
  C16      1.0000 0.33970  0.21530  0.78620  Biso   1.000  C
  H13      1.0000 0.80210  0.25960  0.23460  Biso   1.000  H
  H14      1.0000 0.69790  0.75960  0.26540  Biso   1.000  H
  H15      1.0000 0.19790  0.74040  0.76540  Biso   1.000  H
  H16      1.0000 0.30210  0.24040  0.73460  Biso   1.000  H
  C17      1.0000 0.91840  0.24370  0.31750  Biso   1.000  C
  C18      1.0000 0.58160  0.74370  0.18250  Biso   1.000  C
  C19      1.0000 0.08160  0.75630  0.68250  Biso   1.000  C
  C20      1.0000 0.41840  0.25630  0.81750  Biso   1.000  C
  C21      1.0000 0.02910  0.12680  0.30340  Biso   1.000  C
  C22      1.0000 0.47090  0.62680  0.19660  Biso   1.000  C
  C23      1.0000 0.97090  0.87320  0.69660  Biso   1.000  C
  C24      1.0000 0.52910  0.37320  0.80340  Biso   1.000  C
  C25      1.0000 0.06730  0.14420  0.25550  Biso   1.000  C
  C26      1.0000 0.43270  0.64420  0.24450  Biso   1.000  C
  C27      1.0000 0.93270  0.85580  0.74450  Biso   1.000  C
  C28      1.0000 0.56730  0.35580  0.75550  Biso   1.000  C
  H17      1.0000 0.04020  0.18490  0.20550  Biso   1.000  H
  H18      1.0000 0.45980  0.68490  0.29450  Biso   1.000  H
  H19      1.0000 0.95980  0.81510  0.79450  Biso   1.000  H
  H20      1.0000 0.54020  0.31510  0.70550  Biso   1.000  H
  C29      1.0000 0.14410  0.10120  0.28240  Biso   1.000  C
  C30      1.0000 0.35590  0.60120  0.21760  Biso   1.000  C
  C31      1.0000 0.85590  0.89880  0.71760  Biso   1.000  C
  C32      1.0000 0.64410  0.39880  0.78240  Biso   1.000  C
  H21      1.0000 0.16990  0.10990  0.25040  Biso   1.000  H
  H22      1.0000 0.33010  0.60990  0.24960  Biso   1.000  H
  H23      1.0000 0.83010  0.89010  0.74960  Biso   1.000  H
  H24      1.0000 0.66990  0.39010  0.75040  Biso   1.000  H
  C33      1.0000 0.18390  0.04440  0.35730  Biso   1.000  C
  C34      1.0000 0.31610  0.54440  0.14270  Biso   1.000  C
  C35      1.0000 0.81610  0.95560  0.64270  Biso   1.000  C
  C36      1.0000 0.68390  0.45560  0.85730  Biso   1.000  C
  H25      1.0000 0.23710  0.01510  0.37710  Biso   1.000  H
  H26      1.0000 0.26290  0.51510  0.12290  Biso   1.000  H
  H27      1.0000 0.76290  0.98490  0.62290  Biso   1.000  H
  H28      1.0000 0.73710  0.48490  0.87710  Biso   1.000  H
  C37      1.0000 0.14370  0.03190  0.40170  Biso   1.000  C
  C38      1.0000 0.35630  0.53190  0.09830  Biso   1.000  C
  C39      1.0000 0.85630  0.96810  0.59830  Biso   1.000  C
  C40      1.0000 0.64370  0.46810  0.90170  Biso   1.000  C
  H29      1.0000 0.17100  0.99430  0.45260  Biso   1.000  H
  H30      1.0000 0.32900  0.49430  0.04740  Biso   1.000  H
  H31      1.0000 0.82900  0.00570  0.54740  Biso   1.000  H
  H32      1.0000 0.67100  0.50570  0.95260  Biso   1.000  H
  C41      1.0000 0.89320  0.12830  0.19350  Biso   1.000  C
  C42      1.0000 0.60680  0.62830  0.30650  Biso   1.000  C
  C43      1.0000 0.10680  0.87170  0.80650  Biso   1.000  C
  C44      1.0000 0.39320  0.37170  0.69350  Biso   1.000  C
  C45      1.0000 0.85500  0.21830  0.13140  Biso   1.000  C
  C46      1.0000 0.64500  0.71830  0.36860  Biso   1.000  C
  C47      1.0000 0.14500  0.78170  0.86860  Biso   1.000  C
  C48      1.0000 0.35500  0.28170  0.63140  Biso   1.000  C
  H33      1.0000 0.86570  0.30830  0.14130  Biso   1.000  H
  H34      1.0000 0.63430  0.80830  0.35870  Biso   1.000  H
  H35      1.0000 0.13430  0.69170  0.85870  Biso   1.000  H
  H36      1.0000 0.36570  0.19170  0.64130  Biso   1.000  H
  C49      1.0000 0.80150  0.17620  0.05550  Biso   1.000  C
  C50      1.0000 0.69850  0.67620  0.44450  Biso   1.000  C
  C51      1.0000 0.19850  0.82380  0.94450  Biso   1.000  C
  C52      1.0000 0.30150  0.32380  0.55550  Biso   1.000  C
  H37      1.0000 0.77580  0.23860  0.01500  Biso   1.000  H
  H38      1.0000 0.72420  0.73860  0.48500  Biso   1.000  H
  H39      1.0000 0.22420  0.76140  0.98500  Biso   1.000  H
  H40      1.0000 0.27580  0.26140  0.51500  Biso   1.000  H
  C53      1.0000 0.78500  0.04240  0.03780  Biso   1.000  C
  C54      1.0000 0.71500  0.54240  0.46220  Biso   1.000  C
  C55      1.0000 0.21500  0.95760  0.96220  Biso   1.000  C
  C56      1.0000 0.28500  0.45760  0.53780  Biso   1.000  C
  C57      1.0000 0.82770  0.95610  0.09900  Biso   1.000  C
  C58      1.0000 0.67230  0.45610  0.40100  Biso   1.000  C
  C59      1.0000 0.17230  0.04390  0.90100  Biso   1.000  C
  C60      1.0000 0.32770  0.54390  0.59900  Biso   1.000  C
  H41      1.0000 0.82080  0.86570  0.08850  Biso   1.000  H
  H42      1.0000 0.67920  0.36570  0.41150  Biso   1.000  H
  H43      1.0000 0.17920  0.13430  0.91150  Biso   1.000  H
  H44      1.0000 0.32080  0.63430  0.58850  Biso   1.000  H
  C61      1.0000 0.88040  0.99730  0.17550  Biso   1.000  C
  C62      1.0000 0.61960  0.49730  0.32450  Biso   1.000  C
  C63      1.0000 0.11960  0.00270  0.82450  Biso   1.000  C
  C64      1.0000 0.38040  0.50270  0.67550  Biso   1.000  C
  H45      1.0000 0.90750  0.93470  0.21550  Biso   1.000  H
  H46      1.0000 0.59250  0.43470  0.28450  Biso   1.000  H
  H47      1.0000 0.09250  0.06530  0.78450  Biso   1.000  H
  H48      1.0000 0.40750  0.56530  0.71550  Biso   1.000  H
  C65      1.0000 0.72630  0.99530  0.95690  Biso   1.000  C
  C66      1.0000 0.77370  0.49530  0.54310  Biso   1.000  C
  C67      1.0000 0.27370  0.00470  0.04310  Biso   1.000  C
  C68      1.0000 0.22630  0.50470  0.45690  Biso   1.000  C
  C69      1.0000 0.65890  0.06720  0.90700  Biso   1.000  C
  C70      1.0000 0.84110  0.56720  0.59300  Biso   1.000  C
  C71      1.0000 0.34110  0.93280  0.09300  Biso   1.000  C
  C72      1.0000 0.15890  0.43280  0.40700  Biso   1.000  C
  H49      1.0000 0.64970  0.14840  0.92480  Biso   1.000  H
  H50      1.0000 0.85030  0.64840  0.57520  Biso   1.000  H
  H51      1.0000 0.35030  0.85160  0.07520  Biso   1.000  H
  H52      1.0000 0.14970  0.35160  0.42480  Biso   1.000  H
  C73      1.0000 0.60460  0.02330  0.83190  Biso   1.000  C
  C74      1.0000 0.89540  0.52330  0.66810  Biso   1.000  C
  C75      1.0000 0.39540  0.97670  0.16810  Biso   1.000  C
  C76      1.0000 0.10460  0.47670  0.33190  Biso   1.000  C
  H53      1.0000 0.56050  0.07600  0.79940  Biso   1.000  H
  H54      1.0000 0.93950  0.57600  0.70060  Biso   1.000  H
  H55      1.0000 0.43950  0.92400  0.20060  Biso   1.000  H
  H56      1.0000 0.06050  0.42400  0.29940  Biso   1.000  H
  C77      1.0000 0.61470  0.90050  0.80390  Biso   1.000  C
  C78      1.0000 0.88530  0.40050  0.69610  Biso   1.000  C
  C79      1.0000 0.38530  0.09950  0.19610  Biso   1.000  C
  C80      1.0000 0.11470  0.59950  0.30390  Biso   1.000  C
  C81      1.0000 0.68260  0.82730  0.85330  Biso   1.000  C
  C82      1.0000 0.81740  0.32730  0.64670  Biso   1.000  C
  C83      1.0000 0.31740  0.17270  0.14670  Biso   1.000  C
  C84      1.0000 0.18260  0.67270  0.35330  Biso   1.000  C
  H57      1.0000 0.69140  0.74540  0.83610  Biso   1.000  H
  H58      1.0000 0.80860  0.24540  0.66390  Biso   1.000  H
  H59      1.0000 0.30860  0.25460  0.16390  Biso   1.000  H
  H60      1.0000 0.19140  0.75460  0.33610  Biso   1.000  H
  C85      1.0000 0.73740  0.87510  0.92820  Biso   1.000  C
  C86      1.0000 0.76260  0.37510  0.57180  Biso   1.000  C
  C87      1.0000 0.26260  0.12490  0.07180  Biso   1.000  C
  C88      1.0000 0.23740  0.62490  0.42820  Biso   1.000  C
  H61      1.0000 0.78300  0.82490  0.96000  Biso   1.000  H
  H62      1.0000 0.71700  0.32490  0.54000  Biso   1.000  H
  H63      1.0000 0.21700  0.17510  0.04000  Biso   1.000  H
  H64      1.0000 0.28300  0.67510  0.46000  Biso   1.000  H
  C89      1.0000 0.47430  0.87710  0.70140  Biso   1.000  C
  C90      1.0000 0.02570  0.37710  0.79860  Biso   1.000  C
  C91      1.0000 0.52570  0.12290  0.29860  Biso   1.000  C
  C92      1.0000 0.97430  0.62290  0.20140  Biso   1.000  C
  C93      1.0000 0.43910  0.85830  0.75100  Biso   1.000  C
  C94      1.0000 0.06090  0.35830  0.74900  Biso   1.000  C
  C95      1.0000 0.56090  0.14170  0.24900  Biso   1.000  C
  C96      1.0000 0.93910  0.64170  0.25100  Biso   1.000  C
  H65      1.0000 0.47050  0.83280  0.80420  Biso   1.000  H
  H66      1.0000 0.02950  0.33280  0.69580  Biso   1.000  H
  H67      1.0000 0.52950  0.16720  0.19580  Biso   1.000  H
  H68      1.0000 0.97050  0.66720  0.30420  Biso   1.000  H
  C97      1.0000 0.35770  0.87730  0.72150  Biso   1.000  C
  C98      1.0000 0.14230  0.37730  0.77850  Biso   1.000  C
  C99      1.0000 0.64230  0.12270  0.27850  Biso   1.000  C
  C100     1.0000 0.85770  0.62270  0.22150  Biso   1.000  C
  H69      1.0000 0.33370  0.86780  0.75500  Biso   1.000  H
  H70      1.0000 0.16630  0.36780  0.74500  Biso   1.000  H
  H71      1.0000 0.66630  0.13220  0.24500  Biso   1.000  H
  H72      1.0000 0.83370  0.63220  0.25500  Biso   1.000  H
  C101     1.0000 0.31140  0.91080  0.64200  Biso   1.000  C
  C102     1.0000 0.18860  0.41080  0.85800  Biso   1.000  C
  C103     1.0000 0.68860  0.08920  0.35800  Biso   1.000  C
  C104     1.0000 0.81140  0.58920  0.14200  Biso   1.000  C
  H73      1.0000 0.25550  0.91980  0.62000  Biso   1.000  H
  H74      1.0000 0.24450  0.41980  0.88000  Biso   1.000  H
  H75      1.0000 0.74450  0.08020  0.38000  Biso   1.000  H
  H76      1.0000 0.75550  0.58020  0.12000  Biso   1.000  H
  C105     1.0000 0.35020  0.93020  0.59650  Biso   1.000  C
  C106     1.0000 0.14980  0.43020  0.90350  Biso   1.000  C
  C107     1.0000 0.64980  0.06980  0.40350  Biso   1.000  C
  C108     1.0000 0.85020  0.56980  0.09650  Biso   1.000  C
  H77      1.0000 0.31930  0.95520  0.54310  Biso   1.000  H
  H78      1.0000 0.18070  0.45520  0.95690  Biso   1.000  H
  H79      1.0000 0.68070  0.04480  0.45690  Biso   1.000  H
  H80      1.0000 0.81930  0.54480  0.04310  Biso   1.000  H
  C109     1.0000 0.57820  0.76270  0.68320  Biso   1.000  C
  C110     1.0000 0.92180  0.26270  0.81680  Biso   1.000  C
  C111     1.0000 0.42180  0.23730  0.31680  Biso   1.000  C
  C112     1.0000 0.07820  0.73730  0.18320  Biso   1.000  C
  C113     1.0000 0.64990  0.77120  0.67920  Biso   1.000  C
  C114     1.0000 0.85010  0.27120  0.82080  Biso   1.000  C
  C115     1.0000 0.35010  0.22880  0.32080  Biso   1.000  C
  C116     1.0000 0.14990  0.72880  0.17920  Biso   1.000  C
  H81      1.0000 0.68590  0.84030  0.70420  Biso   1.000  H
  H82      1.0000 0.81410  0.34030  0.79580  Biso   1.000  H
  H83      1.0000 0.31410  0.15970  0.29580  Biso   1.000  H
  H84      1.0000 0.18590  0.65970  0.20420  Biso   1.000  H
  C117     1.0000 0.66730  0.67520  0.63750  Biso   1.000  C
  C118     1.0000 0.83270  0.17520  0.86250  Biso   1.000  C
  C119     1.0000 0.33270  0.32480  0.36250  Biso   1.000  C
  C120     1.0000 0.16730  0.82480  0.13750  Biso   1.000  C
  H85      1.0000 0.71650  0.67640  0.63590  Biso   1.000  H
  H86      1.0000 0.78350  0.17640  0.86410  Biso   1.000  H
  H87      1.0000 0.28350  0.32360  0.36410  Biso   1.000  H
  H88      1.0000 0.21650  0.82360  0.13590  Biso   1.000  H
  C121     1.0000 0.61250  0.57930  0.59890  Biso   1.000  C
  C122     1.0000 0.88750  0.07930  0.90110  Biso   1.000  C
  C123     1.0000 0.38750  0.42070  0.40110  Biso   1.000  C
  C124     1.0000 0.11250  0.92070  0.09890  Biso   1.000  C
  H89      1.0000 0.62250  0.51470  0.56930  Biso   1.000  H
  H90      1.0000 0.87750  0.01470  0.93070  Biso   1.000  H
  H91      1.0000 0.37750  0.48530  0.43070  Biso   1.000  H
  H92      1.0000 0.12250  0.98530  0.06930  Biso   1.000  H
  C125     1.0000 0.54210  0.57950  0.60440  Biso   1.000  C
  C126     1.0000 0.95790  0.07950  0.89560  Biso   1.000  C
  C127     1.0000 0.45790  0.42050  0.39560  Biso   1.000  C
  C128     1.0000 0.04210  0.92050  0.10440  Biso   1.000  C
  H93      1.0000 0.50390  0.51430  0.57660  Biso   1.000  H
  H94      1.0000 0.99610  0.01430  0.92340  Biso   1.000  H
  H95      1.0000 0.49610  0.48570  0.42340  Biso   1.000  H
  H96      1.0000 0.00390  0.98570  0.07660  Biso   1.000  H
  Cu1      1.0000 0.01598  0.06151  0.45018  Biso   1.000  Cu
  Cu2      1.0000 0.48402  0.56151  0.04982  Biso   1.000  Cu
  Cu3      1.0000 0.98402  0.93849  0.54982  Biso   1.000  Cu
  Cu4      1.0000 0.51598  0.43849  0.95018  Biso   1.000  Cu
  Cu5      1.0000 0.48089  0.96145  0.55362  Biso   1.000  Cu
  Cu6      1.0000 0.01911  0.46145  0.94638  Biso   1.000  Cu
  Cu7      1.0000 0.51911  0.03855  0.44638  Biso   1.000  Cu
  Cu8      1.0000 0.98089  0.53855  0.05362  Biso   1.000  Cu
  I1       1.0000 0.10758  0.10321  0.60006  Biso   1.000  I
  I2       1.0000 0.39242  0.60321  0.89994  Biso   1.000  I
  I3       1.0000 0.89242  0.89679  0.39994  Biso   1.000  I
  I4       1.0000 0.60758  0.39679  0.10006  Biso   1.000  I
  I5       1.0000 0.58803  0.14237  0.58776  Biso   1.000  I
  I6       1.0000 0.91197  0.64237  0.91224  Biso   1.000  I
  I7       1.0000 0.41197  0.85763  0.41224  Biso   1.000  I
  I8       1.0000 0.08803  0.35763  0.08776  Biso   1.000  I
  N1       1.0000 0.97150  0.27140  0.39180  Biso   1.000  N
  N2       1.0000 0.52850  0.77140  0.10820  Biso   1.000  N
  N3       1.0000 0.02850  0.72860  0.60820  Biso   1.000  N
  N4       1.0000 0.47150  0.22860  0.89180  Biso   1.000  N
  N5       1.0000 0.94780  0.16910  0.27330  Biso   1.000  N
  N6       1.0000 0.55220  0.66910  0.22670  Biso   1.000  N
  N7       1.0000 0.05220  0.83090  0.72670  Biso   1.000  N
  N8       1.0000 0.44780  0.33090  0.77330  Biso   1.000  N
  N9       1.0000 0.06700  0.07090  0.37610  Biso   1.000  N
  N10      1.0000 0.43300  0.57090  0.12390  Biso   1.000  N
  N11      1.0000 0.93300  0.92910  0.62390  Biso   1.000  N
  N12      1.0000 0.56700  0.42910  0.87610  Biso   1.000  N
  N13      1.0000 0.43120  0.91530  0.62470  Biso   1.000  N
  N14      1.0000 0.06880  0.41530  0.87530  Biso   1.000  N
  N15      1.0000 0.56880  0.08470  0.37530  Biso   1.000  N
  N16      1.0000 0.93120  0.58470  0.12470  Biso   1.000  N
  N17      1.0000 0.55740  0.85470  0.72720  Biso   1.000  N
  N18      1.0000 0.94260  0.35470  0.77280  Biso   1.000  N
  N19      1.0000 0.44260  0.14530  0.27280  Biso   1.000  N
  N20      1.0000 0.05740  0.64530  0.22720  Biso   1.000  N
  N21      1.0000 0.52430  0.66800  0.64740  Biso   1.000  N
  N22      1.0000 0.97570  0.16800  0.85260  Biso   1.000  N
  N23      1.0000 0.47570  0.33200  0.35260  Biso   1.000  N
  N24      1.0000 0.02430  0.83200  0.14740  Biso   1.000  N
