data_image0
_cell_length_a       14.6291
_cell_length_b       11.2293
_cell_length_c       17.3085
_cell_angle_alpha    90
_cell_angle_beta     107.402
_cell_angle_gamma    90

_symmetry_space_group_name_H-M    "P 1"
_symmetry_int_tables_number       1

loop_
  _symmetry_equiv_pos_as_xyz
  'x, y, z'

loop_
  _atom_site_label
  _atom_site_occupancy
  _atom_site_fract_x
  _atom_site_fract_y
  _atom_site_fract_z
  _atom_site_thermal_displace_type
  _atom_site_B_iso_or_equiv
  _atom_site_type_symbol
  Cu1      1.0000 0.25473  0.63381  0.84089  Biso   1.000  Cu
  Cu2      1.0000 0.74527  0.13381  0.65911  Biso   1.000  Cu
  Cu3      1.0000 0.74527  0.36619  0.15911  Biso   1.000  Cu
  Cu4      1.0000 0.25473  0.86619  0.34089  Biso   1.000  Cu
  Br1      1.0000 0.26359  0.41530  0.84122  Biso   1.000  Br
  Br2      1.0000 0.73641  0.91530  0.65878  Biso   1.000  Br
  Br3      1.0000 0.73641  0.58470  0.15878  Biso   1.000  Br
  Br4      1.0000 0.26359  0.08470  0.34122  Biso   1.000  Br
  C1       1.0000 0.08940  0.60860  0.89210  Biso   1.000  C
  C2       1.0000 0.91060  0.10860  0.60790  Biso   1.000  C
  C3       1.0000 0.91060  0.39140  0.10790  Biso   1.000  C
  C4       1.0000 0.08940  0.89140  0.39210  Biso   1.000  C
  H1       1.0000 0.08720  0.53830  0.86320  Biso   1.000  H
  H2       1.0000 0.91280  0.03830  0.63680  Biso   1.000  H
  H3       1.0000 0.91280  0.46170  0.13680  Biso   1.000  H
  H4       1.0000 0.08720  0.96170  0.36320  Biso   1.000  H
  C5       1.0000 0.01490  0.63280  0.92240  Biso   1.000  C
  C6       1.0000 0.98510  0.13280  0.57760  Biso   1.000  C
  C7       1.0000 0.98510  0.36720  0.07760  Biso   1.000  C
  C8       1.0000 0.01490  0.86720  0.42240  Biso   1.000  C
  H5       1.0000 0.96330  0.58100  0.91390  Biso   1.000  H
  H6       1.0000 0.03670  0.08100  0.58610  Biso   1.000  H
  H7       1.0000 0.03670  0.41900  0.08610  Biso   1.000  H
  H8       1.0000 0.96330  0.91900  0.41390  Biso   1.000  H
  C9       1.0000 0.01900  0.73600  0.96560  Biso   1.000  C
  C10      1.0000 0.98100  0.23600  0.53440  Biso   1.000  C
  C11      1.0000 0.98100  0.26400  0.03440  Biso   1.000  C
  C12      1.0000 0.01900  0.76400  0.46560  Biso   1.000  C
  H9       1.0000 0.96960  0.75530  0.98690  Biso   1.000  H
  H10      1.0000 0.03040  0.25530  0.51310  Biso   1.000  H
  H11      1.0000 0.03040  0.24470  0.01310  Biso   1.000  H
  H12      1.0000 0.96960  0.74470  0.48690  Biso   1.000  H
  C13      1.0000 0.09590  0.81060  0.97730  Biso   1.000  C
  C14      1.0000 0.90410  0.31060  0.52270  Biso   1.000  C
  C15      1.0000 0.90410  0.18940  0.02270  Biso   1.000  C
  C16      1.0000 0.09590  0.68940  0.47730  Biso   1.000  C
  H13      1.0000 0.09880  0.88120  0.00600  Biso   1.000  H
  H14      1.0000 0.90120  0.38120  0.49400  Biso   1.000  H
  H15      1.0000 0.90120  0.11880  0.99400  Biso   1.000  H
  H16      1.0000 0.09880  0.61880  0.50600  Biso   1.000  H
  C17      1.0000 0.16970  0.78010  0.94590  Biso   1.000  C
  C18      1.0000 0.83030  0.28010  0.55410  Biso   1.000  C
  C19      1.0000 0.83030  0.21990  0.05410  Biso   1.000  C
  C20      1.0000 0.16970  0.71990  0.44590  Biso   1.000  C
  C21      1.0000 0.34350  0.80610  0.96720  Biso   1.000  C
  C22      1.0000 0.65650  0.30610  0.53280  Biso   1.000  C
  C23      1.0000 0.65650  0.19390  0.03280  Biso   1.000  C
  C24      1.0000 0.34350  0.69390  0.46720  Biso   1.000  C
  C25      1.0000 0.40740  0.87790  0.94510  Biso   1.000  C
  C26      1.0000 0.59260  0.37790  0.55490  Biso   1.000  C
  C27      1.0000 0.59260  0.12210  0.05490  Biso   1.000  C
  C28      1.0000 0.40740  0.62210  0.44510  Biso   1.000  C
  H17      1.0000 0.38960  0.95210  0.92160  Biso   1.000  H
  H18      1.0000 0.61040  0.45210  0.57840  Biso   1.000  H
  H19      1.0000 0.61040  0.04790  0.07840  Biso   1.000  H
  H20      1.0000 0.38960  0.54790  0.42160  Biso   1.000  H
  C29      1.0000 0.49990  0.83420  0.95950  Biso   1.000  C
  C30      1.0000 0.50010  0.33420  0.54050  Biso   1.000  C
  C31      1.0000 0.50010  0.16580  0.04050  Biso   1.000  C
  C32      1.0000 0.49990  0.66580  0.45950  Biso   1.000  C
  H21      1.0000 0.54620  0.88000  0.94650  Biso   1.000  H
  H22      1.0000 0.45380  0.38000  0.55350  Biso   1.000  H
  H23      1.0000 0.45380  0.12000  0.05350  Biso   1.000  H
  H24      1.0000 0.54620  0.62000  0.44650  Biso   1.000  H
  C33      1.0000 0.52270  0.72280  0.99320  Biso   1.000  C
  C34      1.0000 0.47730  0.22280  0.50680  Biso   1.000  C
  C35      1.0000 0.47730  0.27720  0.00680  Biso   1.000  C
  C36      1.0000 0.52270  0.77720  0.49320  Biso   1.000  C
  H25      1.0000 0.58420  0.69190  0.00340  Biso   1.000  H
  H26      1.0000 0.41580  0.19190  0.49660  Biso   1.000  H
  H27      1.0000 0.41580  0.30810  0.99660  Biso   1.000  H
  H28      1.0000 0.58420  0.80810  0.50340  Biso   1.000  H
  C37      1.0000 0.45360  0.66040  0.01090  Biso   1.000  C
  C38      1.0000 0.54640  0.16040  0.48910  Biso   1.000  C
  C39      1.0000 0.54640  0.33960  0.98910  Biso   1.000  C
  C40      1.0000 0.45360  0.83960  0.51090  Biso   1.000  C
  H29      1.0000 0.46920  0.58520  0.03340  Biso   1.000  H
  H30      1.0000 0.53080  0.08520  0.46660  Biso   1.000  H
  H31      1.0000 0.53080  0.41480  0.96660  Biso   1.000  H
  H32      1.0000 0.46920  0.91480  0.53340  Biso   1.000  H
  C41      1.0000 0.24900  0.96740  0.99500  Biso   1.000  C
  C42      1.0000 0.75100  0.46740  0.50500  Biso   1.000  C
  C43      1.0000 0.75100  0.03260  0.00500  Biso   1.000  C
  C44      1.0000 0.24900  0.53260  0.49500  Biso   1.000  C
  C45      1.0000 0.20610  0.06290  0.94820  Biso   1.000  C
  C46      1.0000 0.79390  0.56290  0.55180  Biso   1.000  C
  C47      1.0000 0.79390  0.93710  0.05180  Biso   1.000  C
  C48      1.0000 0.20610  0.43710  0.44820  Biso   1.000  C
  H33      1.0000 0.17830  0.05330  0.89280  Biso   1.000  H
  H34      1.0000 0.82170  0.55330  0.60720  Biso   1.000  H
  H35      1.0000 0.82170  0.94670  0.10720  Biso   1.000  H
  H36      1.0000 0.17830  0.44670  0.39280  Biso   1.000  H
  C49      1.0000 0.20410  0.17390  0.98360  Biso   1.000  C
  C50      1.0000 0.79590  0.67390  0.51640  Biso   1.000  C
  C51      1.0000 0.79590  0.82610  0.01640  Biso   1.000  C
  C52      1.0000 0.20410  0.32610  0.48360  Biso   1.000  C
  H37      1.0000 0.17560  0.23800  0.95130  Biso   1.000  H
  H38      1.0000 0.82440  0.73800  0.54870  Biso   1.000  H
  H39      1.0000 0.82440  0.76200  0.04870  Biso   1.000  H
  H40      1.0000 0.17560  0.26200  0.45130  Biso   1.000  H
  C53      1.0000 0.24410  0.19030  0.06670  Biso   1.000  C
  C54      1.0000 0.75590  0.69030  0.43330  Biso   1.000  C
  C55      1.0000 0.75590  0.80970  0.93330  Biso   1.000  C
  C56      1.0000 0.24410  0.30970  0.56670  Biso   1.000  C
  C57      1.0000 0.28700  0.09260  0.11250  Biso   1.000  C
  C58      1.0000 0.71300  0.59260  0.38750  Biso   1.000  C
  C59      1.0000 0.71300  0.90740  0.88750  Biso   1.000  C
  C60      1.0000 0.28700  0.40740  0.61250  Biso   1.000  C
  H41      1.0000 0.31400  0.10130  0.16810  Biso   1.000  H
  H42      1.0000 0.68600  0.60130  0.33190  Biso   1.000  H
  H43      1.0000 0.68600  0.89870  0.83190  Biso   1.000  H
  H44      1.0000 0.31400  0.39870  0.66810  Biso   1.000  H
  C61      1.0000 0.29040  0.98280  0.07740  Biso   1.000  C
  C62      1.0000 0.70960  0.48280  0.42260  Biso   1.000  C
  C63      1.0000 0.70960  0.01720  0.92260  Biso   1.000  C
  C64      1.0000 0.29040  0.51720  0.57740  Biso   1.000  C
  H45      1.0000 0.32060  0.91910  0.10920  Biso   1.000  H
  H46      1.0000 0.67940  0.41910  0.39080  Biso   1.000  H
  H47      1.0000 0.67940  0.08090  0.89080  Biso   1.000  H
  H48      1.0000 0.32060  0.58090  0.60920  Biso   1.000  H
  C65      1.0000 0.24200  0.30840  0.10450  Biso   1.000  C
  C66      1.0000 0.75800  0.80840  0.39550  Biso   1.000  C
  C67      1.0000 0.75800  0.69160  0.89550  Biso   1.000  C
  C68      1.0000 0.24200  0.19160  0.60450  Biso   1.000  C
  C69      1.0000 0.24710  0.31810  0.18630  Biso   1.000  C
  C70      1.0000 0.75290  0.81810  0.31370  Biso   1.000  C
  C71      1.0000 0.75290  0.68190  0.81370  Biso   1.000  C
  C72      1.0000 0.24710  0.18190  0.68630  Biso   1.000  C
  H49      1.0000 0.24820  0.24920  0.21640  Biso   1.000  H
  H50      1.0000 0.75180  0.74920  0.28360  Biso   1.000  H
  H51      1.0000 0.75180  0.75080  0.78360  Biso   1.000  H
  H52      1.0000 0.24820  0.25080  0.71640  Biso   1.000  H
  C73      1.0000 0.25030  0.42790  0.22320  Biso   1.000  C
  C74      1.0000 0.74970  0.92790  0.27680  Biso   1.000  C
  C75      1.0000 0.74970  0.57210  0.77680  Biso   1.000  C
  C76      1.0000 0.25030  0.07210  0.72320  Biso   1.000  C
  H53      1.0000 0.25600  0.43200  0.27810  Biso   1.000  H
  H54      1.0000 0.74400  0.93200  0.22190  Biso   1.000  H
  H55      1.0000 0.74400  0.56800  0.72190  Biso   1.000  H
  H56      1.0000 0.25600  0.06800  0.77810  Biso   1.000  H
  C77      1.0000 0.24530  0.53060  0.17950  Biso   1.000  C
  C78      1.0000 0.75470  0.03060  0.32050  Biso   1.000  C
  C79      1.0000 0.75470  0.46940  0.82050  Biso   1.000  C
  C80      1.0000 0.24530  0.96940  0.67950  Biso   1.000  C
  C81      1.0000 0.23660  0.52310  0.09770  Biso   1.000  C
  C82      1.0000 0.76340  0.02310  0.40230  Biso   1.000  C
  C83      1.0000 0.76340  0.47690  0.90230  Biso   1.000  C
  C84      1.0000 0.23660  0.97690  0.59770  Biso   1.000  C
  H57      1.0000 0.23110  0.59230  0.06710  Biso   1.000  H
  H58      1.0000 0.76890  0.09230  0.43290  Biso   1.000  H
  H59      1.0000 0.76890  0.40770  0.93290  Biso   1.000  H
  H60      1.0000 0.23110  0.90770  0.56710  Biso   1.000  H
  C85      1.0000 0.23590  0.41370  0.06110  Biso   1.000  C
  C86      1.0000 0.76410  0.91370  0.43890  Biso   1.000  C
  C87      1.0000 0.76410  0.58630  0.93890  Biso   1.000  C
  C88      1.0000 0.23590  0.08630  0.56110  Biso   1.000  C
  H61      1.0000 0.23130  0.41040  0.00640  Biso   1.000  H
  H62      1.0000 0.76870  0.91040  0.49360  Biso   1.000  H
  H63      1.0000 0.76870  0.58960  0.99360  Biso   1.000  H
  H64      1.0000 0.23130  0.08960  0.50640  Biso   1.000  H
  C89      1.0000 0.33530  0.71090  0.23490  Biso   1.000  C
  C90      1.0000 0.66470  0.21090  0.26510  Biso   1.000  C
  C91      1.0000 0.66470  0.28910  0.76510  Biso   1.000  C
  C92      1.0000 0.33530  0.78910  0.73490  Biso   1.000  C
  C93      1.0000 0.41130  0.67350  0.20740  Biso   1.000  C
  C94      1.0000 0.58870  0.17350  0.29260  Biso   1.000  C
  C95      1.0000 0.58870  0.32650  0.79260  Biso   1.000  C
  C96      1.0000 0.41130  0.82650  0.70740  Biso   1.000  C
  H65      1.0000 0.40580  0.60410  0.17700  Biso   1.000  H
  H66      1.0000 0.59420  0.10410  0.32300  Biso   1.000  H
  H67      1.0000 0.59420  0.39590  0.82300  Biso   1.000  H
  H68      1.0000 0.40580  0.89590  0.67700  Biso   1.000  H
  C97      1.0000 0.49340  0.73910  0.22540  Biso   1.000  C
  C98      1.0000 0.50660  0.23910  0.27460  Biso   1.000  C
  C99      1.0000 0.50660  0.26090  0.77460  Biso   1.000  C
  C100     1.0000 0.49340  0.76090  0.72540  Biso   1.000  C
  H69      1.0000 0.54450  0.71440  0.20780  Biso   1.000  H
  H70      1.0000 0.45550  0.21440  0.29220  Biso   1.000  H
  H71      1.0000 0.45550  0.28560  0.79220  Biso   1.000  H
  H72      1.0000 0.54450  0.78560  0.70780  Biso   1.000  H
  C101     1.0000 0.50010  0.84230  0.26990  Biso   1.000  C
  C102     1.0000 0.49990  0.34230  0.23010  Biso   1.000  C
  C103     1.0000 0.49990  0.15770  0.73010  Biso   1.000  C
  C104     1.0000 0.50010  0.65770  0.76990  Biso   1.000  C
  H73      1.0000 0.55490  0.88940  0.28200  Biso   1.000  H
  H74      1.0000 0.44510  0.38940  0.21800  Biso   1.000  H
  H75      1.0000 0.44510  0.11060  0.71800  Biso   1.000  H
  H76      1.0000 0.55490  0.61060  0.78200  Biso   1.000  H
  C105     1.0000 0.42430  0.87300  0.29530  Biso   1.000  C
  C106     1.0000 0.57570  0.37300  0.20470  Biso   1.000  C
  C107     1.0000 0.57570  0.12700  0.70470  Biso   1.000  C
  C108     1.0000 0.42430  0.62700  0.79530  Biso   1.000  C
  H77      1.0000 0.42870  0.94290  0.32500  Biso   1.000  H
  H78      1.0000 0.57130  0.44290  0.17500  Biso   1.000  H
  H79      1.0000 0.57130  0.05710  0.67500  Biso   1.000  H
  H80      1.0000 0.42870  0.55710  0.82500  Biso   1.000  H
  C109     1.0000 0.16060  0.69620  0.21690  Biso   1.000  C
  C110     1.0000 0.83940  0.19620  0.28310  Biso   1.000  C
  C111     1.0000 0.83940  0.30380  0.78310  Biso   1.000  C
  C112     1.0000 0.16060  0.80380  0.71690  Biso   1.000  C
  C113     1.0000 0.10170  0.62560  0.23980  Biso   1.000  C
  C114     1.0000 0.89830  0.12560  0.26020  Biso   1.000  C
  C115     1.0000 0.89830  0.37440  0.76020  Biso   1.000  C
  C116     1.0000 0.10170  0.87440  0.73980  Biso   1.000  C
  H81      1.0000 0.12010  0.54880  0.25810  Biso   1.000  H
  H82      1.0000 0.87990  0.04880  0.24190  Biso   1.000  H
  H83      1.0000 0.87990  0.45120  0.74190  Biso   1.000  H
  H84      1.0000 0.12010  0.95120  0.75810  Biso   1.000  H
  C117     1.0000 0.01620  0.66660  0.23610  Biso   1.000  C
  C118     1.0000 0.98380  0.16660  0.26390  Biso   1.000  C
  C119     1.0000 0.98380  0.33340  0.76390  Biso   1.000  C
  C120     1.0000 0.01620  0.83340  0.73610  Biso   1.000  C
  H85      1.0000 0.97450  0.61610  0.25170  Biso   1.000  H
  H86      1.0000 0.02550  0.11610  0.24830  Biso   1.000  H
  H87      1.0000 0.02550  0.38390  0.74830  Biso   1.000  H
  H88      1.0000 0.97450  0.88390  0.75170  Biso   1.000  H
  C121     1.0000 0.98510  0.77810  0.21100  Biso   1.000  C
  C122     1.0000 0.01490  0.27810  0.28900  Biso   1.000  C
  C123     1.0000 0.01490  0.22190  0.78900  Biso   1.000  C
  C124     1.0000 0.98510  0.72190  0.71100  Biso   1.000  C
  H89      1.0000 0.92470  0.80390  0.21090  Biso   1.000  H
  H90      1.0000 0.07530  0.30390  0.28910  Biso   1.000  H
  H91      1.0000 0.07530  0.19610  0.78910  Biso   1.000  H
  H92      1.0000 0.92470  0.69610  0.71090  Biso   1.000  H
  C125     1.0000 0.04520  0.85140  0.18580  Biso   1.000  C
  C126     1.0000 0.95480  0.35140  0.31420  Biso   1.000  C
  C127     1.0000 0.95480  0.14860  0.81420  Biso   1.000  C
  C128     1.0000 0.04520  0.64860  0.68580  Biso   1.000  C
  H93      1.0000 0.02490  0.92730  0.16670  Biso   1.000  H
  H94      1.0000 0.97510  0.42730  0.33330  Biso   1.000  H
  H95      1.0000 0.97510  0.07270  0.83330  Biso   1.000  H
  H96      1.0000 0.02490  0.57270  0.66670  Biso   1.000  H
  N1       1.0000 0.16560  0.68080  0.90180  Biso   1.000  N
  N2       1.0000 0.83440  0.18080  0.59820  Biso   1.000  N
  N3       1.0000 0.83440  0.31920  0.09820  Biso   1.000  N
  N4       1.0000 0.16560  0.81920  0.40180  Biso   1.000  N
  N5       1.0000 0.25040  0.85230  0.95907  Biso   1.000  N
  N6       1.0000 0.74960  0.35230  0.54093  Biso   1.000  N
  N7       1.0000 0.74960  0.14770  0.04093  Biso   1.000  N
  N8       1.0000 0.25040  0.64770  0.45907  Biso   1.000  N
  N9       1.0000 0.36400  0.69830  0.99850  Biso   1.000  N
  N10      1.0000 0.63600  0.19830  0.50150  Biso   1.000  N
  N11      1.0000 0.63600  0.30170  0.00150  Biso   1.000  N
  N12      1.0000 0.36400  0.80170  0.49850  Biso   1.000  N
  N13      1.0000 0.25030  0.64620  0.21728  Biso   1.000  N
  N14      1.0000 0.74970  0.14620  0.28272  Biso   1.000  N
  N15      1.0000 0.74970  0.35380  0.78272  Biso   1.000  N
  N16      1.0000 0.25030  0.85380  0.71728  Biso   1.000  N
  N17      1.0000 0.34320  0.80930  0.28064  Biso   1.000  N
  N18      1.0000 0.65680  0.30930  0.21936  Biso   1.000  N
  N19      1.0000 0.65680  0.19070  0.71936  Biso   1.000  N
  N20      1.0000 0.34320  0.69070  0.78064  Biso   1.000  N
  N21      1.0000 0.13750  0.81250  0.18870  Biso   1.000  N
  N22      1.0000 0.86250  0.31250  0.31130  Biso   1.000  N
  N23      1.0000 0.86250  0.18750  0.81130  Biso   1.000  N
  N24      1.0000 0.13750  0.68750  0.68870  Biso   1.000  N
