data_image0
_cell_length_a       8.6328
_cell_length_b       22.983
_cell_length_c       14.1392
_cell_angle_alpha    90
_cell_angle_beta     91.257
_cell_angle_gamma    90

_symmetry_space_group_name_H-M    "P 1"
_symmetry_int_tables_number       1

loop_
  _symmetry_equiv_pos_as_xyz
  'x, y, z'

loop_
  _atom_site_label
  _atom_site_occupancy
  _atom_site_fract_x
  _atom_site_fract_y
  _atom_site_fract_z
  _atom_site_thermal_displace_type
  _atom_site_B_iso_or_equiv
  _atom_site_type_symbol
  C1       1.0000 0.10510  0.36060  0.96530  Biso   1.000  C
  C2       1.0000 0.39490  0.86060  0.53470  Biso   1.000  C
  C3       1.0000 0.89490  0.63940  0.03470  Biso   1.000  C
  C4       1.0000 0.60510  0.13940  0.46530  Biso   1.000  C
  H1       1.0000 0.01940  0.37670  0.99420  Biso   1.000  H
  H2       1.0000 0.48060  0.87670  0.50580  Biso   1.000  H
  H3       1.0000 0.98060  0.62330  0.00580  Biso   1.000  H
  H4       1.0000 0.51940  0.12330  0.49420  Biso   1.000  H
  C5       1.0000 0.08340  0.33510  0.87940  Biso   1.000  C
  C6       1.0000 0.41660  0.83510  0.62060  Biso   1.000  C
  C7       1.0000 0.91660  0.66490  0.12060  Biso   1.000  C
  C8       1.0000 0.58340  0.16490  0.37940  Biso   1.000  C
  H5       1.0000 0.98530  0.33300  0.85100  Biso   1.000  H
  H6       1.0000 0.51470  0.83300  0.64900  Biso   1.000  H
  H7       1.0000 0.01470  0.66700  0.14900  Biso   1.000  H
  H8       1.0000 0.48530  0.16700  0.35100  Biso   1.000  H
  C9       1.0000 0.21060  0.31250  0.83560  Biso   1.000  C
  C10      1.0000 0.28940  0.81250  0.66440  Biso   1.000  C
  C11      1.0000 0.78940  0.68750  0.16440  Biso   1.000  C
  C12      1.0000 0.71060  0.18750  0.33560  Biso   1.000  C
  H9       1.0000 0.19920  0.29430  0.77720  Biso   1.000  H
  H10      1.0000 0.30080  0.79430  0.72280  Biso   1.000  H
  H11      1.0000 0.80080  0.70570  0.22280  Biso   1.000  H
  H12      1.0000 0.69920  0.20570  0.27720  Biso   1.000  H
  C13      1.0000 0.35430  0.31680  0.87800  Biso   1.000  C
  C14      1.0000 0.14570  0.81680  0.62200  Biso   1.000  C
  C15      1.0000 0.64570  0.68320  0.12200  Biso   1.000  C
  C16      1.0000 0.85430  0.18320  0.37800  Biso   1.000  C
  H13      1.0000 0.44190  0.30290  0.84830  Biso   1.000  H
  H14      1.0000 0.05810  0.80290  0.65170  Biso   1.000  H
  H15      1.0000 0.55810  0.69710  0.15170  Biso   1.000  H
  H16      1.0000 0.94190  0.19710  0.34830  Biso   1.000  H
  C17      1.0000 0.36520  0.34270  0.96650  Biso   1.000  C
  C18      1.0000 0.13480  0.84270  0.53350  Biso   1.000  C
  C19      1.0000 0.63480  0.65730  0.03350  Biso   1.000  C
  C20      1.0000 0.86520  0.15730  0.46650  Biso   1.000  C
  C21      1.0000 0.55380  0.40420  0.05240  Biso   1.000  C
  C22      1.0000 0.94620  0.90420  0.44760  Biso   1.000  C
  C23      1.0000 0.44620  0.59580  0.94760  Biso   1.000  C
  C24      1.0000 0.05380  0.09580  0.55240  Biso   1.000  C
  C25      1.0000 0.66540  0.43760  0.00910  Biso   1.000  C
  C26      1.0000 0.83460  0.93760  0.49090  Biso   1.000  C
  C27      1.0000 0.33460  0.56240  0.99090  Biso   1.000  C
  C28      1.0000 0.16540  0.06240  0.50910  Biso   1.000  C
  H17      1.0000 0.70920  0.42510  0.95310  Biso   1.000  H
  H18      1.0000 0.79080  0.92510  0.54690  Biso   1.000  H
  H19      1.0000 0.29080  0.57490  0.04690  Biso   1.000  H
  H20      1.0000 0.20920  0.07490  0.45310  Biso   1.000  H
  C29      1.0000 0.71080  0.48900  0.04950  Biso   1.000  C
  C30      1.0000 0.78920  0.98900  0.45050  Biso   1.000  C
  C31      1.0000 0.28920  0.51100  0.95050  Biso   1.000  C
  C32      1.0000 0.21080  0.01100  0.54950  Biso   1.000  C
  H21      1.0000 0.78720  0.51150  0.02200  Biso   1.000  H
  H22      1.0000 0.71280  0.01150  0.47800  Biso   1.000  H
  H23      1.0000 0.21280  0.48850  0.97800  Biso   1.000  H
  H24      1.0000 0.28720  0.98850  0.52200  Biso   1.000  H
  C33      1.0000 0.64230  0.50710  0.13080  Biso   1.000  C
  C34      1.0000 0.85770  0.00710  0.36920  Biso   1.000  C
  C35      1.0000 0.35770  0.49290  0.86920  Biso   1.000  C
  C36      1.0000 0.14230  0.99290  0.63080  Biso   1.000  C
  H25      1.0000 0.67260  0.54160  0.16020  Biso   1.000  H
  H26      1.0000 0.82740  0.04160  0.33980  Biso   1.000  H
  H27      1.0000 0.32740  0.45840  0.83980  Biso   1.000  H
  H28      1.0000 0.17260  0.95840  0.66020  Biso   1.000  H
  C37      1.0000 0.52680  0.47270  0.16840  Biso   1.000  C
  C38      1.0000 0.97320  0.97270  0.33160  Biso   1.000  C
  C39      1.0000 0.47320  0.52730  0.83160  Biso   1.000  C
  C40      1.0000 0.02680  0.02730  0.66840  Biso   1.000  C
  H29      1.0000 0.47740  0.48580  0.22220  Biso   1.000  H
  H30      1.0000 0.02260  0.98580  0.27780  Biso   1.000  H
  H31      1.0000 0.52260  0.51420  0.77780  Biso   1.000  H
  H32      1.0000 0.97740  0.01420  0.72220  Biso   1.000  H
  C41      1.0000 0.60250  0.30080  0.03720  Biso   1.000  C
  C42      1.0000 0.89750  0.80080  0.46280  Biso   1.000  C
  C43      1.0000 0.39750  0.69920  0.96280  Biso   1.000  C
  C44      1.0000 0.10250  0.19920  0.53720  Biso   1.000  C
  C45      1.0000 0.74780  0.30590  0.07980  Biso   1.000  C
  C46      1.0000 0.75220  0.80590  0.42020  Biso   1.000  C
  C47      1.0000 0.25220  0.69410  0.92020  Biso   1.000  C
  C48      1.0000 0.24780  0.19410  0.57980  Biso   1.000  C
  H33      1.0000 0.79040  0.34210  0.09430  Biso   1.000  H
  H34      1.0000 0.70960  0.84210  0.40570  Biso   1.000  H
  H35      1.0000 0.20960  0.65790  0.90570  Biso   1.000  H
  H36      1.0000 0.29040  0.15790  0.59430  Biso   1.000  H
  C49      1.0000 0.82660  0.25490  0.09970  Biso   1.000  C
  C50      1.0000 0.67340  0.75490  0.40030  Biso   1.000  C
  C51      1.0000 0.17340  0.74510  0.90030  Biso   1.000  C
  C52      1.0000 0.32660  0.24510  0.59970  Biso   1.000  C
  H37      1.0000 0.92440  0.25660  0.12840  Biso   1.000  H
  H38      1.0000 0.57560  0.75660  0.37160  Biso   1.000  H
  H39      1.0000 0.07560  0.74340  0.87160  Biso   1.000  H
  H40      1.0000 0.42440  0.24340  0.62840  Biso   1.000  H
  C53      1.0000 0.76210  0.20150  0.07740  Biso   1.000  C
  C54      1.0000 0.73790  0.70150  0.42260  Biso   1.000  C
  C55      1.0000 0.23790  0.79850  0.92260  Biso   1.000  C
  C56      1.0000 0.26210  0.29850  0.57740  Biso   1.000  C
  H41      1.0000 0.81390  0.16690  0.09100  Biso   1.000  H
  H42      1.0000 0.68610  0.66690  0.40900  Biso   1.000  H
  H43      1.0000 0.18610  0.83310  0.90900  Biso   1.000  H
  H44      1.0000 0.31390  0.33310  0.59100  Biso   1.000  H
  C57      1.0000 0.61640  0.20170  0.03400  Biso   1.000  C
  C58      1.0000 0.88360  0.70170  0.46600  Biso   1.000  C
  C59      1.0000 0.38360  0.79830  0.96600  Biso   1.000  C
  C60      1.0000 0.11640  0.29830  0.53400  Biso   1.000  C
  C61      1.0000 0.39740  0.15240  0.95530  Biso   1.000  C
  C62      1.0000 0.10260  0.65240  0.54470  Biso   1.000  C
  C63      1.0000 0.60260  0.84760  0.04470  Biso   1.000  C
  C64      1.0000 0.89740  0.34760  0.45530  Biso   1.000  C
  C65      1.0000 0.26250  0.17310  0.99450  Biso   1.000  C
  C66      1.0000 0.23750  0.67310  0.50550  Biso   1.000  C
  C67      1.0000 0.73750  0.82690  0.00550  Biso   1.000  C
  C68      1.0000 0.76250  0.32690  0.49450  Biso   1.000  C
  H45      1.0000 0.26240  0.18680  0.05640  Biso   1.000  H
  H46      1.0000 0.23760  0.68680  0.44360  Biso   1.000  H
  H47      1.0000 0.73760  0.81320  0.94360  Biso   1.000  H
  H48      1.0000 0.76240  0.31320  0.55640  Biso   1.000  H
  C69      1.0000 0.13020  0.17300  0.94040  Biso   1.000  C
  C70      1.0000 0.36980  0.67300  0.55960  Biso   1.000  C
  C71      1.0000 0.86980  0.82700  0.05960  Biso   1.000  C
  C72      1.0000 0.63020  0.32700  0.44040  Biso   1.000  C
  H49      1.0000 0.03870  0.18740  0.96490  Biso   1.000  H
  H50      1.0000 0.46130  0.68740  0.53510  Biso   1.000  H
  H51      1.0000 0.96130  0.81260  0.03510  Biso   1.000  H
  H52      1.0000 0.53870  0.31260  0.46490  Biso   1.000  H
  C73      1.0000 0.13160  0.15160  0.84990  Biso   1.000  C
  C74      1.0000 0.36840  0.65160  0.65010  Biso   1.000  C
  C75      1.0000 0.86840  0.84840  0.15010  Biso   1.000  C
  C76      1.0000 0.63160  0.34840  0.34990  Biso   1.000  C
  H53      1.0000 0.04180  0.15080  0.81240  Biso   1.000  H
  H54      1.0000 0.45820  0.65080  0.68760  Biso   1.000  H
  H55      1.0000 0.95820  0.84920  0.18760  Biso   1.000  H
  H56      1.0000 0.54180  0.34920  0.31240  Biso   1.000  H
  C77      1.0000 0.26790  0.13170  0.81690  Biso   1.000  C
  C78      1.0000 0.23210  0.63170  0.68310  Biso   1.000  C
  C79      1.0000 0.73210  0.86830  0.18310  Biso   1.000  C
  C80      1.0000 0.76790  0.36830  0.31690  Biso   1.000  C
  H57      1.0000 0.26890  0.11670  0.75580  Biso   1.000  H
  H58      1.0000 0.23110  0.61670  0.74420  Biso   1.000  H
  H59      1.0000 0.73110  0.88330  0.24420  Biso   1.000  H
  H60      1.0000 0.76890  0.38330  0.25580  Biso   1.000  H
  C81      1.0000 0.62040  0.09630  0.01540  Biso   1.000  C
  C82      1.0000 0.87960  0.59630  0.48460  Biso   1.000  C
  C83      1.0000 0.37960  0.90370  0.98460  Biso   1.000  C
  C84      1.0000 0.12040  0.40370  0.51540  Biso   1.000  C
  C85      1.0000 0.62030  0.06540  0.09810  Biso   1.000  C
  C86      1.0000 0.87970  0.56540  0.40190  Biso   1.000  C
  C87      1.0000 0.37970  0.93460  0.90190  Biso   1.000  C
  C88      1.0000 0.12030  0.43460  0.59810  Biso   1.000  C
  H61      1.0000 0.56550  0.07890  0.14950  Biso   1.000  H
  H62      1.0000 0.93450  0.57890  0.35050  Biso   1.000  H
  H63      1.0000 0.43450  0.92110  0.85050  Biso   1.000  H
  H64      1.0000 0.06550  0.42110  0.64950  Biso   1.000  H
  C89      1.0000 0.70160  0.01400  0.10450  Biso   1.000  C
  C90      1.0000 0.79840  0.51400  0.39550  Biso   1.000  C
  C91      1.0000 0.29840  0.98600  0.89550  Biso   1.000  C
  C92      1.0000 0.20160  0.48600  0.60450  Biso   1.000  C
  H65      1.0000 0.70450  0.99280  0.16050  Biso   1.000  H
  H66      1.0000 0.79550  0.49280  0.33950  Biso   1.000  H
  H67      1.0000 0.29550  0.00720  0.83950  Biso   1.000  H
  H68      1.0000 0.20450  0.50720  0.66050  Biso   1.000  H
  C93      1.0000 0.77830  0.99470  0.02670  Biso   1.000  C
  C94      1.0000 0.72170  0.49470  0.47330  Biso   1.000  C
  C95      1.0000 0.22170  0.00530  0.97330  Biso   1.000  C
  C96      1.0000 0.27830  0.50530  0.52670  Biso   1.000  C
  H69      1.0000 0.83430  0.96010  0.02860  Biso   1.000  H
  H70      1.0000 0.66570  0.46010  0.47140  Biso   1.000  H
  H71      1.0000 0.16570  0.03990  0.97140  Biso   1.000  H
  H72      1.0000 0.33430  0.53990  0.52860  Biso   1.000  H
  C97      1.0000 0.77000  0.02770  0.94590  Biso   1.000  C
  C98      1.0000 0.73000  0.52770  0.55410  Biso   1.000  C
  C99      1.0000 0.23000  0.97230  0.05410  Biso   1.000  C
  C100     1.0000 0.27000  0.47230  0.44590  Biso   1.000  C
  H73      1.0000 0.82090  0.01410  0.89290  Biso   1.000  H
  H74      1.0000 0.67910  0.51410  0.60710  Biso   1.000  H
  H75      1.0000 0.17910  0.98590  0.10710  Biso   1.000  H
  H76      1.0000 0.32090  0.48590  0.39290  Biso   1.000  H
  Cu1      1.0000 0.26711  0.38378  0.15452  Biso   1.000  Cu
  Cu2      1.0000 0.23289  0.88378  0.34548  Biso   1.000  Cu
  Cu3      1.0000 0.73289  0.61622  0.84548  Biso   1.000  Cu
  Cu4      1.0000 0.76711  0.11622  0.65452  Biso   1.000  Cu
  Cu5      1.0000 0.11758  0.38516  0.31000  Biso   1.000  Cu
  Cu6      1.0000 0.38242  0.88516  0.19000  Biso   1.000  Cu
  Cu7      1.0000 0.88242  0.61484  0.69000  Biso   1.000  Cu
  Cu8      1.0000 0.61758  0.11484  0.81000  Biso   1.000  Cu
  I1       1.0000 0.23659  0.28826  0.25076  Biso   1.000  I
  I2       1.0000 0.26341  0.78826  0.24924  Biso   1.000  I
  I3       1.0000 0.76341  0.71174  0.74924  Biso   1.000  I
  I4       1.0000 0.73659  0.21174  0.75076  Biso   1.000  I
  I5       1.0000 0.08351  0.47281  0.19083  Biso   1.000  I
  I6       1.0000 0.41649  0.97281  0.30917  Biso   1.000  I
  I7       1.0000 0.91649  0.52719  0.80917  Biso   1.000  I
  I8       1.0000 0.58351  0.02719  0.69083  Biso   1.000  I
  N1       1.0000 0.24300  0.36389  0.01110  Biso   1.000  N
  N2       1.0000 0.25700  0.86389  0.48890  Biso   1.000  N
  N3       1.0000 0.75700  0.63611  0.98890  Biso   1.000  N
  N4       1.0000 0.74300  0.13611  0.51110  Biso   1.000  N
  N5       1.0000 0.51150  0.34950  0.01450  Biso   1.000  N
  N6       1.0000 0.98850  0.84950  0.48550  Biso   1.000  N
  N7       1.0000 0.48850  0.65050  0.98550  Biso   1.000  N
  N8       1.0000 0.01150  0.15050  0.51450  Biso   1.000  N
  N9       1.0000 0.48290  0.42154  0.13060  Biso   1.000  N
  N10      1.0000 0.01710  0.92154  0.36940  Biso   1.000  N
  N11      1.0000 0.51710  0.57846  0.86940  Biso   1.000  N
  N12      1.0000 0.98290  0.07846  0.63060  Biso   1.000  N
  N13      1.0000 0.53780  0.24984  0.01500  Biso   1.000  N
  N14      1.0000 0.96220  0.74984  0.48500  Biso   1.000  N
  N15      1.0000 0.46220  0.75016  0.98500  Biso   1.000  N
  N16      1.0000 0.03780  0.25016  0.51500  Biso   1.000  N
  N17      1.0000 0.40200  0.13240  0.86740  Biso   1.000  N
  N18      1.0000 0.09800  0.63240  0.63260  Biso   1.000  N
  N19      1.0000 0.59800  0.86760  0.13260  Biso   1.000  N
  N20      1.0000 0.90200  0.36760  0.36740  Biso   1.000  N
  N21      1.0000 0.54010  0.14994  0.00850  Biso   1.000  N
  N22      1.0000 0.95990  0.64994  0.49150  Biso   1.000  N
  N23      1.0000 0.45990  0.85006  0.99150  Biso   1.000  N
  N24      1.0000 0.04010  0.35006  0.50850  Biso   1.000  N
  N25      1.0000 0.69380  0.07816  0.93830  Biso   1.000  N
  N26      1.0000 0.80620  0.57816  0.56170  Biso   1.000  N
  N27      1.0000 0.30620  0.92184  0.06170  Biso   1.000  N
  N28      1.0000 0.19380  0.42184  0.43830  Biso   1.000  N
