data_image0
_cell_length_a       12.313
_cell_length_b       17.5191
_cell_length_c       7.3772
_cell_angle_alpha    90
_cell_angle_beta     104.239
_cell_angle_gamma    90

_symmetry_space_group_name_H-M    "P 1"
_symmetry_int_tables_number       1

loop_
  _symmetry_equiv_pos_as_xyz
  'x, y, z'

loop_
  _atom_site_label
  _atom_site_occupancy
  _atom_site_fract_x
  _atom_site_fract_y
  _atom_site_fract_z
  _atom_site_thermal_displace_type
  _atom_site_B_iso_or_equiv
  _atom_site_type_symbol
  Br1      1.0000 0.59145  0.23244  0.06617  Biso   1.000  Br
  Br2      1.0000 0.40855  0.73244  0.43383  Biso   1.000  Br
  Br3      1.0000 0.40855  0.76756  0.93383  Biso   1.000  Br
  Br4      1.0000 0.59145  0.26756  0.56617  Biso   1.000  Br
  Br5      1.0000 0.88536  0.18658  0.97391  Biso   1.000  Br
  Br6      1.0000 0.11464  0.68658  0.52609  Biso   1.000  Br
  Br7      1.0000 0.11464  0.81342  0.02609  Biso   1.000  Br
  Br8      1.0000 0.88536  0.31342  0.47391  Biso   1.000  Br
  Br9      1.0000 0.78398  0.09013  0.45023  Biso   1.000  Br
  Br10     1.0000 0.21602  0.59013  0.04977  Biso   1.000  Br
  Br11     1.0000 0.21602  0.90987  0.54977  Biso   1.000  Br
  Br12     1.0000 0.78398  0.40987  0.95023  Biso   1.000  Br
  C1       1.0000 0.57780  0.04620  0.82470  Biso   1.000  C
  C2       1.0000 0.42220  0.54620  0.67530  Biso   1.000  C
  C3       1.0000 0.42220  0.95380  0.17530  Biso   1.000  C
  C4       1.0000 0.57780  0.45380  0.32470  Biso   1.000  C
  H1       1.0000 0.55750  0.09730  0.80740  Biso   1.000  H
  H2       1.0000 0.44250  0.59730  0.69260  Biso   1.000  H
  H3       1.0000 0.44250  0.90270  0.19260  Biso   1.000  H
  H4       1.0000 0.55750  0.40270  0.30740  Biso   1.000  H
  C5       1.0000 0.50790  0.99230  0.72200  Biso   1.000  C
  C6       1.0000 0.49210  0.49230  0.77800  Biso   1.000  C
  C7       1.0000 0.49210  0.00770  0.27800  Biso   1.000  C
  C8       1.0000 0.50790  0.50770  0.22200  Biso   1.000  C
  H5       1.0000 0.44030  0.00640  0.64130  Biso   1.000  H
  H6       1.0000 0.55970  0.50640  0.85870  Biso   1.000  H
  H7       1.0000 0.55970  0.99360  0.35870  Biso   1.000  H
  H8       1.0000 0.44030  0.49360  0.14130  Biso   1.000  H
  C9       1.0000 0.54010  0.91680  0.74110  Biso   1.000  C
  C10      1.0000 0.45990  0.41680  0.75890  Biso   1.000  C
  C11      1.0000 0.45990  0.08320  0.25890  Biso   1.000  C
  C12      1.0000 0.54010  0.58320  0.24110  Biso   1.000  C
  H9       1.0000 0.49430  0.87890  0.67440  Biso   1.000  H
  H10      1.0000 0.50570  0.37890  0.82560  Biso   1.000  H
  H11      1.0000 0.50570  0.12110  0.32560  Biso   1.000  H
  H12      1.0000 0.49430  0.62110  0.17440  Biso   1.000  H
  C13      1.0000 0.64210  0.89840  0.86180  Biso   1.000  C
  C14      1.0000 0.35790  0.39840  0.63820  Biso   1.000  C
  C15      1.0000 0.35790  0.10160  0.13820  Biso   1.000  C
  C16      1.0000 0.64210  0.60160  0.36180  Biso   1.000  C
  H13      1.0000 0.66770  0.84830  0.87220  Biso   1.000  H
  H14      1.0000 0.33230  0.34830  0.62780  Biso   1.000  H
  H15      1.0000 0.33230  0.15170  0.12780  Biso   1.000  H
  H16      1.0000 0.66770  0.65170  0.37220  Biso   1.000  H
  C17      1.0000 0.70460  0.95540  0.96560  Biso   1.000  C
  C18      1.0000 0.29540  0.45540  0.53440  Biso   1.000  C
  C19      1.0000 0.29540  0.04460  0.03440  Biso   1.000  C
  C20      1.0000 0.70460  0.54460  0.46560  Biso   1.000  C
  C21      1.0000 0.81140  0.89230  0.24690  Biso   1.000  C
  C22      1.0000 0.18860  0.39230  0.25310  Biso   1.000  C
  C23      1.0000 0.18860  0.10770  0.75310  Biso   1.000  C
  C24      1.0000 0.81140  0.60770  0.74690  Biso   1.000  C
  C25      1.0000 0.71320  0.86900  0.29350  Biso   1.000  C
  C26      1.0000 0.28680  0.36900  0.20650  Biso   1.000  C
  C27      1.0000 0.28680  0.13100  0.70650  Biso   1.000  C
  C28      1.0000 0.71320  0.63100  0.79350  Biso   1.000  C
  H17      1.0000 0.64420  0.88430  0.21920  Biso   1.000  H
  H18      1.0000 0.35580  0.38430  0.28080  Biso   1.000  H
  H19      1.0000 0.35580  0.11570  0.78080  Biso   1.000  H
  H20      1.0000 0.64420  0.61570  0.71920  Biso   1.000  H
  C29      1.0000 0.71660  0.82410  0.44650  Biso   1.000  C
  C30      1.0000 0.28340  0.32410  0.05350  Biso   1.000  C
  C31      1.0000 0.28340  0.17590  0.55350  Biso   1.000  C
  C32      1.0000 0.71660  0.67590  0.94650  Biso   1.000  C
  H21      1.0000 0.65090  0.80730  0.47420  Biso   1.000  H
  H22      1.0000 0.34910  0.30730  0.02580  Biso   1.000  H
  H23      1.0000 0.34910  0.19270  0.52580  Biso   1.000  H
  H24      1.0000 0.65090  0.69270  0.97420  Biso   1.000  H
  C33      1.0000 0.82130  0.80390  0.56050  Biso   1.000  C
  C34      1.0000 0.17870  0.30390  0.93950  Biso   1.000  C
  C35      1.0000 0.17870  0.19610  0.43950  Biso   1.000  C
  C36      1.0000 0.82130  0.69610  0.06050  Biso   1.000  C
  H25      1.0000 0.82750  0.77550  0.66910  Biso   1.000  H
  H26      1.0000 0.17250  0.27550  0.83090  Biso   1.000  H
  H27      1.0000 0.17250  0.22450  0.33090  Biso   1.000  H
  H28      1.0000 0.82750  0.72450  0.16910  Biso   1.000  H
  C37      1.0000 0.91440  0.82740  0.50560  Biso   1.000  C
  C38      1.0000 0.08560  0.32740  0.99440  Biso   1.000  C
  C39      1.0000 0.08560  0.17260  0.49440  Biso   1.000  C
  C40      1.0000 0.91440  0.67260  0.00560  Biso   1.000  C
  H29      1.0000 0.98410  0.81360  0.58000  Biso   1.000  H
  H30      1.0000 0.01590  0.31360  0.92000  Biso   1.000  H
  H31      1.0000 0.01590  0.18640  0.42000  Biso   1.000  H
  H32      1.0000 0.98410  0.68640  0.08000  Biso   1.000  H
  C41      1.0000 0.90730  0.96930  0.05120  Biso   1.000  C
  C42      1.0000 0.09270  0.46930  0.44880  Biso   1.000  C
  C43      1.0000 0.09270  0.03070  0.94880  Biso   1.000  C
  C44      1.0000 0.90730  0.53070  0.55120  Biso   1.000  C
  C45      1.0000 0.91700  0.96490  0.86670  Biso   1.000  C
  C46      1.0000 0.08300  0.46490  0.63330  Biso   1.000  C
  C47      1.0000 0.08300  0.03510  0.13330  Biso   1.000  C
  C48      1.0000 0.91700  0.53510  0.36670  Biso   1.000  C
  H33      1.0000 0.86050  0.94180  0.77630  Biso   1.000  H
  H34      1.0000 0.13950  0.44180  0.72370  Biso   1.000  H
  H35      1.0000 0.13950  0.05820  0.22370  Biso   1.000  H
  H36      1.0000 0.86050  0.55820  0.27630  Biso   1.000  H
  C49      1.0000 0.99090  0.00550  0.18260  Biso   1.000  C
  C50      1.0000 0.00910  0.50550  0.31740  Biso   1.000  C
  C51      1.0000 0.00910  0.99450  0.81740  Biso   1.000  C
  C52      1.0000 0.99090  0.49450  0.68260  Biso   1.000  C
  H37      1.0000 0.98480  0.00980  0.30540  Biso   1.000  H
  H38      1.0000 0.01520  0.50980  0.19460  Biso   1.000  H
  H39      1.0000 0.01520  0.99020  0.69460  Biso   1.000  H
  H40      1.0000 0.98480  0.49020  0.80540  Biso   1.000  H
  Cu1      1.0000 0.75421  0.11517  0.11050  Biso   1.000  Cu
  Cu2      1.0000 0.24579  0.61517  0.38950  Biso   1.000  Cu
  Cu3      1.0000 0.24579  0.88483  0.88950  Biso   1.000  Cu
  Cu4      1.0000 0.75421  0.38483  0.61050  Biso   1.000  Cu
  Cu5      1.0000 0.72119  0.27343  0.87464  Biso   1.000  Cu
  Cu6      1.0000 0.27881  0.77343  0.62536  Biso   1.000  Cu
  Cu7      1.0000 0.27881  0.72657  0.12536  Biso   1.000  Cu
  Cu8      1.0000 0.72119  0.22657  0.37464  Biso   1.000  Cu
  Cu9      1.0000 0.93925  0.12129  0.72246  Biso   1.000  Cu
  Cu10     1.0000 0.06075  0.62129  0.77754  Biso   1.000  Cu
  Cu11     1.0000 0.06075  0.87871  0.27754  Biso   1.000  Cu
  Cu12     1.0000 0.93925  0.37871  0.22246  Biso   1.000  Cu
  N1       1.0000 0.67410  0.02860  0.94920  Biso   1.000  N
  N2       1.0000 0.32590  0.52860  0.55080  Biso   1.000  N
  N3       1.0000 0.32590  0.97140  0.05080  Biso   1.000  N
  N4       1.0000 0.67410  0.47140  0.44920  Biso   1.000  N
  N5       1.0000 0.80870  0.93890  0.09460  Biso   1.000  N
  N6       1.0000 0.19130  0.43890  0.40540  Biso   1.000  N
  N7       1.0000 0.19130  0.06110  0.90540  Biso   1.000  N
  N8       1.0000 0.80870  0.56110  0.59460  Biso   1.000  N
  N9       1.0000 0.91190  0.86920  0.35160  Biso   1.000  N
  N10      1.0000 0.08810  0.36920  0.14840  Biso   1.000  N
  N11      1.0000 0.08810  0.13080  0.64840  Biso   1.000  N
  N12      1.0000 0.91190  0.63080  0.85160  Biso   1.000  N
