data_image0
_cell_length_a       9.7052
_cell_length_b       15.6248
_cell_length_c       30.199
_cell_angle_alpha    90
_cell_angle_beta     95.201
_cell_angle_gamma    90

_symmetry_space_group_name_H-M    "P 1"
_symmetry_int_tables_number       1

loop_
  _symmetry_equiv_pos_as_xyz
  'x, y, z'

loop_
  _atom_site_label
  _atom_site_occupancy
  _atom_site_fract_x
  _atom_site_fract_y
  _atom_site_fract_z
  _atom_site_thermal_displace_type
  _atom_site_B_iso_or_equiv
  _atom_site_type_symbol
  Cu1      1.0000 0.58719  0.05321  0.48565  Biso   1.000  Cu
  Cu2      1.0000 0.41281  0.05321  0.01435  Biso   1.000  Cu
  Cu3      1.0000 0.08719  0.55321  0.48565  Biso   1.000  Cu
  Cu4      1.0000 0.91281  0.55321  0.01435  Biso   1.000  Cu
  Cu5      1.0000 0.41281  0.94679  0.51435  Biso   1.000  Cu
  Cu6      1.0000 0.58719  0.94679  0.98565  Biso   1.000  Cu
  Cu7      1.0000 0.91281  0.44679  0.51435  Biso   1.000  Cu
  Cu8      1.0000 0.08719  0.44679  0.98565  Biso   1.000  Cu
  C1       1.0000 0.53290  0.22150  0.52483  Biso   1.000  C
  C2       1.0000 0.46710  0.22150  0.97517  Biso   1.000  C
  C3       1.0000 0.03290  0.72150  0.52483  Biso   1.000  C
  C4       1.0000 0.96710  0.72150  0.97517  Biso   1.000  C
  C5       1.0000 0.46710  0.77850  0.47517  Biso   1.000  C
  C6       1.0000 0.53290  0.77850  0.02483  Biso   1.000  C
  C7       1.0000 0.96710  0.27850  0.47517  Biso   1.000  C
  C8       1.0000 0.03290  0.27850  0.02483  Biso   1.000  C
  H1       1.0000 0.56110  0.20000  0.55290  Biso   1.000  H
  H2       1.0000 0.43890  0.20000  0.94710  Biso   1.000  H
  H3       1.0000 0.06110  0.70000  0.55290  Biso   1.000  H
  H4       1.0000 0.93890  0.70000  0.94710  Biso   1.000  H
  H5       1.0000 0.43890  0.80000  0.44710  Biso   1.000  H
  H6       1.0000 0.56110  0.80000  0.05290  Biso   1.000  H
  H7       1.0000 0.93890  0.30000  0.44710  Biso   1.000  H
  H8       1.0000 0.06110  0.30000  0.05290  Biso   1.000  H
  C9       1.0000 0.43490  0.27800  0.52140  Biso   1.000  C
  C10      1.0000 0.56510  0.27800  0.97860  Biso   1.000  C
  C11      1.0000 0.93490  0.77800  0.52140  Biso   1.000  C
  C12      1.0000 0.06510  0.77800  0.97860  Biso   1.000  C
  C13      1.0000 0.56510  0.72200  0.47860  Biso   1.000  C
  C14      1.0000 0.43490  0.72200  0.02140  Biso   1.000  C
  C15      1.0000 0.06510  0.22200  0.47860  Biso   1.000  C
  C16      1.0000 0.93490  0.22200  0.02140  Biso   1.000  C
  H9       1.0000 0.39660  0.29810  0.54660  Biso   1.000  H
  H10      1.0000 0.60340  0.29810  0.95340  Biso   1.000  H
  H11      1.0000 0.89660  0.79810  0.54660  Biso   1.000  H
  H12      1.0000 0.10340  0.79810  0.95340  Biso   1.000  H
  H13      1.0000 0.60340  0.70190  0.45340  Biso   1.000  H
  H14      1.0000 0.39660  0.70190  0.04660  Biso   1.000  H
  H15      1.0000 0.10340  0.20190  0.45340  Biso   1.000  H
  H16      1.0000 0.89660  0.20190  0.04660  Biso   1.000  H
  C17      1.0000 0.38880  0.30740  0.47990  Biso   1.000  C
  C18      1.0000 0.61120  0.30740  0.02010  Biso   1.000  C
  C19      1.0000 0.88880  0.80740  0.47990  Biso   1.000  C
  C20      1.0000 0.11120  0.80740  0.02010  Biso   1.000  C
  C21      1.0000 0.61120  0.69260  0.52010  Biso   1.000  C
  C22      1.0000 0.38880  0.69260  0.97990  Biso   1.000  C
  C23      1.0000 0.11120  0.19260  0.52010  Biso   1.000  C
  C24      1.0000 0.88880  0.19260  0.97990  Biso   1.000  C
  H17      1.0000 0.31280  0.34380  0.47610  Biso   1.000  H
  H18      1.0000 0.68720  0.34380  0.02390  Biso   1.000  H
  H19      1.0000 0.81280  0.84380  0.47610  Biso   1.000  H
  H20      1.0000 0.18720  0.84380  0.02390  Biso   1.000  H
  H21      1.0000 0.68720  0.65620  0.52390  Biso   1.000  H
  H22      1.0000 0.31280  0.65620  0.97610  Biso   1.000  H
  H23      1.0000 0.18720  0.15620  0.52390  Biso   1.000  H
  H24      1.0000 0.81280  0.15620  0.97610  Biso   1.000  H
  C25      1.0000 0.45740  0.28210  0.44396  Biso   1.000  C
  C26      1.0000 0.54260  0.28210  0.05604  Biso   1.000  C
  C27      1.0000 0.95740  0.78210  0.44396  Biso   1.000  C
  C28      1.0000 0.04260  0.78210  0.05604  Biso   1.000  C
  C29      1.0000 0.54260  0.71790  0.55604  Biso   1.000  C
  C30      1.0000 0.45740  0.71790  0.94396  Biso   1.000  C
  C31      1.0000 0.04260  0.21790  0.55604  Biso   1.000  C
  C32      1.0000 0.95740  0.21790  0.94396  Biso   1.000  C
  H25      1.0000 0.43040  0.30280  0.41560  Biso   1.000  H
  H26      1.0000 0.56960  0.30280  0.08440  Biso   1.000  H
  H27      1.0000 0.93040  0.80280  0.41560  Biso   1.000  H
  H28      1.0000 0.06960  0.80280  0.08440  Biso   1.000  H
  H29      1.0000 0.56960  0.69720  0.58440  Biso   1.000  H
  H30      1.0000 0.43040  0.69720  0.91560  Biso   1.000  H
  H31      1.0000 0.06960  0.19720  0.58440  Biso   1.000  H
  H32      1.0000 0.93040  0.19720  0.91560  Biso   1.000  H
  C33      1.0000 0.56540  0.22640  0.45074  Biso   1.000  C
  C34      1.0000 0.43460  0.22640  0.04926  Biso   1.000  C
  C35      1.0000 0.06540  0.72640  0.45074  Biso   1.000  C
  C36      1.0000 0.93460  0.72640  0.04926  Biso   1.000  C
  C37      1.0000 0.43460  0.77360  0.54926  Biso   1.000  C
  C38      1.0000 0.56540  0.77360  0.95074  Biso   1.000  C
  C39      1.0000 0.93460  0.27360  0.54926  Biso   1.000  C
  C40      1.0000 0.06540  0.27360  0.95074  Biso   1.000  C
  C41      1.0000 0.73710  0.13680  0.41478  Biso   1.000  C
  C42      1.0000 0.26290  0.13680  0.08522  Biso   1.000  C
  C43      1.0000 0.23710  0.63680  0.41478  Biso   1.000  C
  C44      1.0000 0.76290  0.63680  0.08522  Biso   1.000  C
  C45      1.0000 0.26290  0.86320  0.58522  Biso   1.000  C
  C46      1.0000 0.73710  0.86320  0.91478  Biso   1.000  C
  C47      1.0000 0.76290  0.36320  0.58522  Biso   1.000  C
  C48      1.0000 0.23710  0.36320  0.91478  Biso   1.000  C
  C49      1.0000 0.83650  0.14120  0.38468  Biso   1.000  C
  C50      1.0000 0.16350  0.14120  0.11532  Biso   1.000  C
  C51      1.0000 0.33650  0.64120  0.38468  Biso   1.000  C
  C52      1.0000 0.66350  0.64120  0.11532  Biso   1.000  C
  C53      1.0000 0.16350  0.85880  0.61532  Biso   1.000  C
  C54      1.0000 0.83650  0.85880  0.88468  Biso   1.000  C
  C55      1.0000 0.66350  0.35880  0.61532  Biso   1.000  C
  C56      1.0000 0.33650  0.35880  0.88468  Biso   1.000  C
  H33      1.0000 0.83450  0.18580  0.36420  Biso   1.000  H
  H34      1.0000 0.16550  0.18580  0.13580  Biso   1.000  H
  H35      1.0000 0.33450  0.68580  0.36420  Biso   1.000  H
  H36      1.0000 0.66550  0.68580  0.13580  Biso   1.000  H
  H37      1.0000 0.16550  0.81420  0.63580  Biso   1.000  H
  H38      1.0000 0.83450  0.81420  0.86420  Biso   1.000  H
  H39      1.0000 0.66550  0.31420  0.63580  Biso   1.000  H
  H40      1.0000 0.33450  0.31420  0.86420  Biso   1.000  H
  C57      1.0000 0.93640  0.08080  0.38500  Biso   1.000  C
  C58      1.0000 0.06360  0.08080  0.11500  Biso   1.000  C
  C59      1.0000 0.43640  0.58080  0.38500  Biso   1.000  C
  C60      1.0000 0.56360  0.58080  0.11500  Biso   1.000  C
  C61      1.0000 0.06360  0.91920  0.61500  Biso   1.000  C
  C62      1.0000 0.93640  0.91920  0.88500  Biso   1.000  C
  C63      1.0000 0.56360  0.41920  0.61500  Biso   1.000  C
  C64      1.0000 0.43640  0.41920  0.88500  Biso   1.000  C
  H41      1.0000 0.99890  0.08090  0.36340  Biso   1.000  H
  H42      1.0000 0.00110  0.08090  0.13660  Biso   1.000  H
  H43      1.0000 0.49890  0.58090  0.36340  Biso   1.000  H
  H44      1.0000 0.50110  0.58090  0.13660  Biso   1.000  H
  H45      1.0000 0.00110  0.91910  0.63660  Biso   1.000  H
  H46      1.0000 0.99890  0.91910  0.86340  Biso   1.000  H
  H47      1.0000 0.50110  0.41910  0.63660  Biso   1.000  H
  H48      1.0000 0.49890  0.41910  0.86340  Biso   1.000  H
  C65      1.0000 0.94450  0.01880  0.41780  Biso   1.000  C
  C66      1.0000 0.05550  0.01880  0.08220  Biso   1.000  C
  C67      1.0000 0.44450  0.51880  0.41780  Biso   1.000  C
  C68      1.0000 0.55550  0.51880  0.08220  Biso   1.000  C
  C69      1.0000 0.05550  0.98120  0.58220  Biso   1.000  C
  C70      1.0000 0.94450  0.98120  0.91780  Biso   1.000  C
  C71      1.0000 0.55550  0.48120  0.58220  Biso   1.000  C
  C72      1.0000 0.44450  0.48120  0.91780  Biso   1.000  C
  H49      1.0000 0.01550  0.97870  0.42010  Biso   1.000  H
  H50      1.0000 0.98450  0.97870  0.07990  Biso   1.000  H
  H51      1.0000 0.51550  0.47870  0.42010  Biso   1.000  H
  H52      1.0000 0.48450  0.47870  0.07990  Biso   1.000  H
  H53      1.0000 0.98450  0.02130  0.57990  Biso   1.000  H
  H54      1.0000 0.01550  0.02130  0.92010  Biso   1.000  H
  H55      1.0000 0.48450  0.52130  0.57990  Biso   1.000  H
  H56      1.0000 0.51550  0.52130  0.92010  Biso   1.000  H
  C73      1.0000 0.84300  0.01900  0.44680  Biso   1.000  C
  C74      1.0000 0.15700  0.01900  0.05320  Biso   1.000  C
  C75      1.0000 0.34300  0.51900  0.44680  Biso   1.000  C
  C76      1.0000 0.65700  0.51900  0.05320  Biso   1.000  C
  C77      1.0000 0.15700  0.98100  0.55320  Biso   1.000  C
  C78      1.0000 0.84300  0.98100  0.94680  Biso   1.000  C
  C79      1.0000 0.65700  0.48100  0.55320  Biso   1.000  C
  C80      1.0000 0.34300  0.48100  0.94680  Biso   1.000  C
  H57      1.0000 0.84780  0.97800  0.46920  Biso   1.000  H
  H58      1.0000 0.15220  0.97800  0.03080  Biso   1.000  H
  H59      1.0000 0.34780  0.47800  0.46920  Biso   1.000  H
  H60      1.0000 0.65220  0.47800  0.03080  Biso   1.000  H
  H61      1.0000 0.15220  0.02200  0.53080  Biso   1.000  H
  H62      1.0000 0.84780  0.02200  0.96920  Biso   1.000  H
  H63      1.0000 0.65220  0.52200  0.53080  Biso   1.000  H
  H64      1.0000 0.34780  0.52200  0.96920  Biso   1.000  H
  C81      1.0000 0.60090  0.24350  0.37210  Biso   1.000  C
  C82      1.0000 0.39910  0.24350  0.12790  Biso   1.000  C
  C83      1.0000 0.10090  0.74350  0.37210  Biso   1.000  C
  C84      1.0000 0.89910  0.74350  0.12790  Biso   1.000  C
  C85      1.0000 0.39910  0.75650  0.62790  Biso   1.000  C
  C86      1.0000 0.60090  0.75650  0.87210  Biso   1.000  C
  C87      1.0000 0.89910  0.25650  0.62790  Biso   1.000  C
  C88      1.0000 0.10090  0.25650  0.87210  Biso   1.000  C
  C89      1.0000 0.51220  0.20550  0.34008  Biso   1.000  C
  C90      1.0000 0.48780  0.20550  0.15992  Biso   1.000  C
  C91      1.0000 0.01220  0.70550  0.34008  Biso   1.000  C
  C92      1.0000 0.98780  0.70550  0.15992  Biso   1.000  C
  C93      1.0000 0.48780  0.79450  0.65992  Biso   1.000  C
  C94      1.0000 0.51220  0.79450  0.84008  Biso   1.000  C
  C95      1.0000 0.98780  0.29450  0.65992  Biso   1.000  C
  C96      1.0000 0.01220  0.29450  0.84008  Biso   1.000  C
  H65      1.0000 0.47410  0.15230  0.34540  Biso   1.000  H
  H66      1.0000 0.52590  0.15230  0.15460  Biso   1.000  H
  H67      1.0000 0.97410  0.65230  0.34540  Biso   1.000  H
  H68      1.0000 0.02590  0.65230  0.15460  Biso   1.000  H
  H69      1.0000 0.52590  0.84770  0.65460  Biso   1.000  H
  H70      1.0000 0.47410  0.84770  0.84540  Biso   1.000  H
  H71      1.0000 0.02590  0.34770  0.65460  Biso   1.000  H
  H72      1.0000 0.97410  0.34770  0.84540  Biso   1.000  H
  C97      1.0000 0.47920  0.24630  0.29956  Biso   1.000  C
  C98      1.0000 0.52080  0.24630  0.20044  Biso   1.000  C
  C99      1.0000 0.97920  0.74630  0.29956  Biso   1.000  C
  C100     1.0000 0.02080  0.74630  0.20044  Biso   1.000  C
  C101     1.0000 0.52080  0.75370  0.70044  Biso   1.000  C
  C102     1.0000 0.47920  0.75370  0.79956  Biso   1.000  C
  C103     1.0000 0.02080  0.25370  0.70044  Biso   1.000  C
  C104     1.0000 0.97920  0.25370  0.79956  Biso   1.000  C
  H73      1.0000 0.41920  0.21970  0.27800  Biso   1.000  H
  H74      1.0000 0.58080  0.21970  0.22200  Biso   1.000  H
  H75      1.0000 0.91920  0.71970  0.27800  Biso   1.000  H
  H76      1.0000 0.08080  0.71970  0.22200  Biso   1.000  H
  H77      1.0000 0.58080  0.78030  0.72200  Biso   1.000  H
  H78      1.0000 0.41920  0.78030  0.77800  Biso   1.000  H
  H79      1.0000 0.08080  0.28030  0.72200  Biso   1.000  H
  H80      1.0000 0.91920  0.28030  0.77800  Biso   1.000  H
  C105     1.0000 0.53270  0.32400  0.29080  Biso   1.000  C
  C106     1.0000 0.46730  0.32400  0.20920  Biso   1.000  C
  C107     1.0000 0.03270  0.82400  0.29080  Biso   1.000  C
  C108     1.0000 0.96730  0.82400  0.20920  Biso   1.000  C
  C109     1.0000 0.46730  0.67600  0.70920  Biso   1.000  C
  C110     1.0000 0.53270  0.67600  0.79080  Biso   1.000  C
  C111     1.0000 0.96730  0.17600  0.70920  Biso   1.000  C
  C112     1.0000 0.03270  0.17600  0.79080  Biso   1.000  C
  C113     1.0000 0.61920  0.36290  0.32400  Biso   1.000  C
  C114     1.0000 0.38080  0.36290  0.17600  Biso   1.000  C
  C115     1.0000 0.11920  0.86290  0.32400  Biso   1.000  C
  C116     1.0000 0.88080  0.86290  0.17600  Biso   1.000  C
  C117     1.0000 0.38080  0.63710  0.67600  Biso   1.000  C
  C118     1.0000 0.61920  0.63710  0.82400  Biso   1.000  C
  C119     1.0000 0.88080  0.13710  0.67600  Biso   1.000  C
  C120     1.0000 0.11920  0.13710  0.82400  Biso   1.000  C
  H81      1.0000 0.65540  0.41670  0.31900  Biso   1.000  H
  H82      1.0000 0.34460  0.41670  0.18100  Biso   1.000  H
  H83      1.0000 0.15540  0.91670  0.31900  Biso   1.000  H
  H84      1.0000 0.84460  0.91670  0.18100  Biso   1.000  H
  H85      1.0000 0.34460  0.58330  0.68100  Biso   1.000  H
  H86      1.0000 0.65540  0.58330  0.81900  Biso   1.000  H
  H87      1.0000 0.84460  0.08330  0.68100  Biso   1.000  H
  H88      1.0000 0.15540  0.08330  0.81900  Biso   1.000  H
  C121     1.0000 0.65230  0.32340  0.36399  Biso   1.000  C
  C122     1.0000 0.34770  0.32340  0.13601  Biso   1.000  C
  C123     1.0000 0.15230  0.82340  0.36399  Biso   1.000  C
  C124     1.0000 0.84770  0.82340  0.13601  Biso   1.000  C
  C125     1.0000 0.34770  0.67660  0.63601  Biso   1.000  C
  C126     1.0000 0.65230  0.67660  0.86399  Biso   1.000  C
  C127     1.0000 0.84770  0.17660  0.63601  Biso   1.000  C
  C128     1.0000 0.15230  0.17660  0.86399  Biso   1.000  C
  H89      1.0000 0.70990  0.35080  0.38580  Biso   1.000  H
  H90      1.0000 0.29010  0.35080  0.11420  Biso   1.000  H
  H91      1.0000 0.20990  0.85080  0.38580  Biso   1.000  H
  H92      1.0000 0.79010  0.85080  0.11420  Biso   1.000  H
  H93      1.0000 0.29010  0.64920  0.61420  Biso   1.000  H
  H94      1.0000 0.70990  0.64920  0.88580  Biso   1.000  H
  H95      1.0000 0.79010  0.14920  0.61420  Biso   1.000  H
  H96      1.0000 0.20990  0.14920  0.88580  Biso   1.000  H
  C129     1.0000 0.50000  0.45860  0.25000  Biso   1.000  C
  C130     1.0000 0.00000  0.95860  0.25000  Biso   1.000  C
  C131     1.0000 0.50000  0.54140  0.75000  Biso   1.000  C
  C132     1.0000 0.00000  0.04140  0.75000  Biso   1.000  C
  C133     1.0000 0.39990  0.50350  0.26962  Biso   1.000  C
  C134     1.0000 0.60010  0.50350  0.23038  Biso   1.000  C
  C135     1.0000 0.89990  0.00350  0.26962  Biso   1.000  C
  C136     1.0000 0.10010  0.00350  0.23038  Biso   1.000  C
  C137     1.0000 0.60010  0.49650  0.73038  Biso   1.000  C
  C138     1.0000 0.39990  0.49650  0.76962  Biso   1.000  C
  C139     1.0000 0.10010  0.99650  0.73038  Biso   1.000  C
  C140     1.0000 0.89990  0.99650  0.76962  Biso   1.000  C
  H97      1.0000 0.33200  0.47420  0.28330  Biso   1.000  H
  H98      1.0000 0.66800  0.47420  0.21670  Biso   1.000  H
  H99      1.0000 0.83200  0.97420  0.28330  Biso   1.000  H
  H100     1.0000 0.16800  0.97420  0.21670  Biso   1.000  H
  H101     1.0000 0.66800  0.52580  0.71670  Biso   1.000  H
  H102     1.0000 0.33200  0.52580  0.78330  Biso   1.000  H
  H103     1.0000 0.16800  0.02580  0.71670  Biso   1.000  H
  H104     1.0000 0.83200  0.02580  0.78330  Biso   1.000  H
  C141     1.0000 0.39940  0.59190  0.26910  Biso   1.000  C
  C142     1.0000 0.60060  0.59190  0.23090  Biso   1.000  C
  C143     1.0000 0.89940  0.09190  0.26910  Biso   1.000  C
  C144     1.0000 0.10060  0.09190  0.23090  Biso   1.000  C
  C145     1.0000 0.60060  0.40810  0.73090  Biso   1.000  C
  C146     1.0000 0.39940  0.40810  0.76910  Biso   1.000  C
  C147     1.0000 0.10060  0.90810  0.73090  Biso   1.000  C
  C148     1.0000 0.89940  0.90810  0.76910  Biso   1.000  C
  H105     1.0000 0.33010  0.62160  0.28190  Biso   1.000  H
  H106     1.0000 0.66990  0.62160  0.21810  Biso   1.000  H
  H107     1.0000 0.83010  0.12160  0.28190  Biso   1.000  H
  H108     1.0000 0.16990  0.12160  0.21810  Biso   1.000  H
  H109     1.0000 0.66990  0.37840  0.71810  Biso   1.000  H
  H110     1.0000 0.33010  0.37840  0.78190  Biso   1.000  H
  H111     1.0000 0.16990  0.87840  0.71810  Biso   1.000  H
  H112     1.0000 0.83010  0.87840  0.78190  Biso   1.000  H
  C149     1.0000 0.50000  0.63580  0.25000  Biso   1.000  C
  C150     1.0000 0.00000  0.13580  0.25000  Biso   1.000  C
  C151     1.0000 0.50000  0.36420  0.75000  Biso   1.000  C
  C152     1.0000 0.00000  0.86420  0.75000  Biso   1.000  C
  C153     1.0000 0.53600  0.77150  0.29029  Biso   1.000  C
  C154     1.0000 0.46400  0.77150  0.20971  Biso   1.000  C
  C155     1.0000 0.03600  0.27150  0.29029  Biso   1.000  C
  C156     1.0000 0.96400  0.27150  0.20971  Biso   1.000  C
  C157     1.0000 0.46400  0.22850  0.70971  Biso   1.000  C
  C158     1.0000 0.53600  0.22850  0.79029  Biso   1.000  C
  C159     1.0000 0.96400  0.72850  0.70971  Biso   1.000  C
  C160     1.0000 0.03600  0.72850  0.79029  Biso   1.000  C
  C161     1.0000 0.48360  0.85000  0.29770  Biso   1.000  C
  C162     1.0000 0.51640  0.85000  0.20230  Biso   1.000  C
  C163     1.0000 0.98360  0.35000  0.29770  Biso   1.000  C
  C164     1.0000 0.01640  0.35000  0.20230  Biso   1.000  C
  C165     1.0000 0.51640  0.15000  0.70230  Biso   1.000  C
  C166     1.0000 0.48360  0.15000  0.79770  Biso   1.000  C
  C167     1.0000 0.01640  0.65000  0.70230  Biso   1.000  C
  C168     1.0000 0.98360  0.65000  0.79770  Biso   1.000  C
  H113     1.0000 0.42190  0.87660  0.27670  Biso   1.000  H
  H114     1.0000 0.57810  0.87660  0.22330  Biso   1.000  H
  H115     1.0000 0.92190  0.37660  0.27670  Biso   1.000  H
  H116     1.0000 0.07810  0.37660  0.22330  Biso   1.000  H
  H117     1.0000 0.57810  0.12340  0.72330  Biso   1.000  H
  H118     1.0000 0.42190  0.12340  0.77670  Biso   1.000  H
  H119     1.0000 0.07810  0.62340  0.72330  Biso   1.000  H
  H120     1.0000 0.92190  0.62340  0.77670  Biso   1.000  H
  C169     1.0000 0.52520  0.88840  0.33730  Biso   1.000  C
  C170     1.0000 0.47480  0.88840  0.16270  Biso   1.000  C
  C171     1.0000 0.02520  0.38840  0.33730  Biso   1.000  C
  C172     1.0000 0.97480  0.38840  0.16270  Biso   1.000  C
  C173     1.0000 0.47480  0.11160  0.66270  Biso   1.000  C
  C174     1.0000 0.52520  0.11160  0.83730  Biso   1.000  C
  C175     1.0000 0.97480  0.61160  0.66270  Biso   1.000  C
  C176     1.0000 0.02520  0.61160  0.83730  Biso   1.000  C
  H121     1.0000 0.49140  0.94240  0.34330  Biso   1.000  H
  H122     1.0000 0.50860  0.94240  0.15670  Biso   1.000  H
  H123     1.0000 0.99140  0.44240  0.34330  Biso   1.000  H
  H124     1.0000 0.00860  0.44240  0.15670  Biso   1.000  H
  H125     1.0000 0.50860  0.05760  0.65670  Biso   1.000  H
  H126     1.0000 0.49140  0.05760  0.84330  Biso   1.000  H
  H127     1.0000 0.00860  0.55760  0.65670  Biso   1.000  H
  H128     1.0000 0.99140  0.55760  0.84330  Biso   1.000  H
  C177     1.0000 0.61420  0.84970  0.36790  Biso   1.000  C
  C178     1.0000 0.38580  0.84970  0.13210  Biso   1.000  C
  C179     1.0000 0.11420  0.34970  0.36790  Biso   1.000  C
  C180     1.0000 0.88580  0.34970  0.13210  Biso   1.000  C
  C181     1.0000 0.38580  0.15030  0.63210  Biso   1.000  C
  C182     1.0000 0.61420  0.15030  0.86790  Biso   1.000  C
  C183     1.0000 0.88580  0.65030  0.63210  Biso   1.000  C
  C184     1.0000 0.11420  0.65030  0.86790  Biso   1.000  C
  H129     1.0000 0.64430  0.87720  0.39430  Biso   1.000  H
  H130     1.0000 0.35570  0.87720  0.10570  Biso   1.000  H
  H131     1.0000 0.14430  0.37720  0.39430  Biso   1.000  H
  H132     1.0000 0.85570  0.37720  0.10570  Biso   1.000  H
  H133     1.0000 0.35570  0.12280  0.60570  Biso   1.000  H
  H134     1.0000 0.64430  0.12280  0.89430  Biso   1.000  H
  H135     1.0000 0.85570  0.62280  0.60570  Biso   1.000  H
  H136     1.0000 0.14430  0.62280  0.89430  Biso   1.000  H
  C185     1.0000 0.65890  0.76930  0.35910  Biso   1.000  C
  C186     1.0000 0.34110  0.76930  0.14090  Biso   1.000  C
  C187     1.0000 0.15890  0.26930  0.35910  Biso   1.000  C
  C188     1.0000 0.84110  0.26930  0.14090  Biso   1.000  C
  C189     1.0000 0.34110  0.23070  0.64090  Biso   1.000  C
  C190     1.0000 0.65890  0.23070  0.85910  Biso   1.000  C
  C191     1.0000 0.84110  0.73070  0.64090  Biso   1.000  C
  C192     1.0000 0.15890  0.73070  0.85910  Biso   1.000  C
  H137     1.0000 0.71660  0.74120  0.38060  Biso   1.000  H
  H138     1.0000 0.28340  0.74120  0.11940  Biso   1.000  H
  H139     1.0000 0.21660  0.24120  0.38060  Biso   1.000  H
  H140     1.0000 0.78340  0.24120  0.11940  Biso   1.000  H
  H141     1.0000 0.28340  0.25880  0.61940  Biso   1.000  H
  H142     1.0000 0.71660  0.25880  0.88060  Biso   1.000  H
  H143     1.0000 0.78340  0.75880  0.61940  Biso   1.000  H
  H144     1.0000 0.21660  0.75880  0.88060  Biso   1.000  H
  I1       1.0000 0.34788  0.02272  0.44020  Biso   1.000  I
  I2       1.0000 0.65212  0.02272  0.05980  Biso   1.000  I
  I3       1.0000 0.84788  0.52272  0.44020  Biso   1.000  I
  I4       1.0000 0.15212  0.52272  0.05980  Biso   1.000  I
  I5       1.0000 0.65212  0.97728  0.55980  Biso   1.000  I
  I6       1.0000 0.34788  0.97728  0.94020  Biso   1.000  I
  I7       1.0000 0.15212  0.47728  0.55980  Biso   1.000  I
  I8       1.0000 0.84788  0.47728  0.94020  Biso   1.000  I
  N1       1.0000 0.59560  0.19260  0.49026  Biso   1.000  N
  N2       1.0000 0.40440  0.19260  0.00974  Biso   1.000  N
  N3       1.0000 0.09560  0.69260  0.49026  Biso   1.000  N
  N4       1.0000 0.90440  0.69260  0.00974  Biso   1.000  N
  N5       1.0000 0.40440  0.80740  0.50974  Biso   1.000  N
  N6       1.0000 0.59560  0.80740  0.99026  Biso   1.000  N
  N7       1.0000 0.90440  0.30740  0.50974  Biso   1.000  N
  N8       1.0000 0.09560  0.30740  0.99026  Biso   1.000  N
  N9       1.0000 0.63470  0.19950  0.41408  Biso   1.000  N
  N10      1.0000 0.36530  0.19950  0.08592  Biso   1.000  N
  N11      1.0000 0.13470  0.69950  0.41408  Biso   1.000  N
  N12      1.0000 0.86530  0.69950  0.08592  Biso   1.000  N
  N13      1.0000 0.36530  0.80050  0.58592  Biso   1.000  N
  N14      1.0000 0.63470  0.80050  0.91408  Biso   1.000  N
  N15      1.0000 0.86530  0.30050  0.58592  Biso   1.000  N
  N16      1.0000 0.13470  0.30050  0.91408  Biso   1.000  N
  N17      1.0000 0.73770  0.07480  0.44481  Biso   1.000  N
  N18      1.0000 0.26230  0.07480  0.05519  Biso   1.000  N
  N19      1.0000 0.23770  0.57480  0.44481  Biso   1.000  N
  N20      1.0000 0.76230  0.57480  0.05519  Biso   1.000  N
  N21      1.0000 0.26230  0.92520  0.55519  Biso   1.000  N
  N22      1.0000 0.73770  0.92520  0.94481  Biso   1.000  N
  N23      1.0000 0.76230  0.42520  0.55519  Biso   1.000  N
  N24      1.0000 0.23770  0.42520  0.94481  Biso   1.000  N
  N25      1.0000 0.50000  0.36670  0.25000  Biso   1.000  N
  N26      1.0000 0.00000  0.86670  0.25000  Biso   1.000  N
  N27      1.0000 0.50000  0.63330  0.75000  Biso   1.000  N
  N28      1.0000 0.00000  0.13330  0.75000  Biso   1.000  N
  N29      1.0000 0.50000  0.72780  0.25000  Biso   1.000  N
  N30      1.0000 0.00000  0.22780  0.25000  Biso   1.000  N
  N31      1.0000 0.50000  0.27220  0.75000  Biso   1.000  N
  N32      1.0000 0.00000  0.77220  0.75000  Biso   1.000  N
  N33      1.0000 0.62250  0.72850  0.31998  Biso   1.000  N
  N34      1.0000 0.37750  0.72850  0.18002  Biso   1.000  N
  N35      1.0000 0.12250  0.22850  0.31998  Biso   1.000  N
  N36      1.0000 0.87750  0.22850  0.18002  Biso   1.000  N
  N37      1.0000 0.37750  0.27150  0.68002  Biso   1.000  N
  N38      1.0000 0.62250  0.27150  0.81998  Biso   1.000  N
  N39      1.0000 0.87750  0.77150  0.68002  Biso   1.000  N
  N40      1.0000 0.12250  0.77150  0.81998  Biso   1.000  N
