data_image0
_cell_length_a       8.967
_cell_length_b       12.539
_cell_length_c       5.995
_cell_angle_alpha    90
_cell_angle_beta     100.33
_cell_angle_gamma    90

_symmetry_space_group_name_H-M    "P 1"
_symmetry_int_tables_number       1

loop_
  _symmetry_equiv_pos_as_xyz
  'x, y, z'

loop_
  _atom_site_label
  _atom_site_occupancy
  _atom_site_fract_x
  _atom_site_fract_y
  _atom_site_fract_z
  _atom_site_thermal_displace_type
  _atom_site_B_iso_or_equiv
  _atom_site_type_symbol
  I1       1.0000 0.74982  0.50000  0.99975  Biso   1.000  I
  I2       1.0000 0.24982  0.00000  0.99975  Biso   1.000  I
  I3       1.0000 0.25018  0.50000  0.00025  Biso   1.000  I
  I4       1.0000 0.75018  0.00000  0.00025  Biso   1.000  I
  Cu1      1.0000 0.53682  0.50000  0.23900  Biso   1.000  Cu
  Cu2      1.0000 0.03682  0.00000  0.23900  Biso   1.000  Cu
  Cu3      1.0000 0.46318  0.50000  0.76100  Biso   1.000  Cu
  Cu4      1.0000 0.96318  0.00000  0.76100  Biso   1.000  Cu
  N1       1.0000 0.46540  0.35990  0.59010  Biso   1.000  N
  N2       1.0000 0.96540  0.85990  0.59010  Biso   1.000  N
  N3       1.0000 0.53460  0.35990  0.40990  Biso   1.000  N
  N4       1.0000 0.03460  0.85990  0.40990  Biso   1.000  N
  N5       1.0000 0.53460  0.64010  0.40990  Biso   1.000  N
  N6       1.0000 0.03460  0.14010  0.40990  Biso   1.000  N
  N7       1.0000 0.46540  0.64010  0.59010  Biso   1.000  N
  N8       1.0000 0.96540  0.14010  0.59010  Biso   1.000  N
  C1       1.0000 0.43010  0.26750  0.67360  Biso   1.000  C
  C2       1.0000 0.93010  0.76750  0.67360  Biso   1.000  C
  C3       1.0000 0.56990  0.26750  0.32640  Biso   1.000  C
  C4       1.0000 0.06990  0.76750  0.32640  Biso   1.000  C
  C5       1.0000 0.56990  0.73250  0.32640  Biso   1.000  C
  C6       1.0000 0.06990  0.23250  0.32640  Biso   1.000  C
  C7       1.0000 0.43010  0.73250  0.67360  Biso   1.000  C
  C8       1.0000 0.93010  0.23250  0.67360  Biso   1.000  C
  C9       1.0000 0.46260  0.16990  0.58980  Biso   1.000  C
  C10      1.0000 0.96260  0.66990  0.58980  Biso   1.000  C
  C11      1.0000 0.53740  0.16990  0.41020  Biso   1.000  C
  C12      1.0000 0.03740  0.66990  0.41020  Biso   1.000  C
  C13      1.0000 0.53740  0.83010  0.41020  Biso   1.000  C
  C14      1.0000 0.03740  0.33010  0.41020  Biso   1.000  C
  C15      1.0000 0.46260  0.83010  0.58980  Biso   1.000  C
  C16      1.0000 0.96260  0.33010  0.58980  Biso   1.000  C
