data_image0
_cell_length_a       9.281
_cell_length_b       17.555
_cell_length_c       7.564
_cell_angle_alpha    90
_cell_angle_beta     105.9
_cell_angle_gamma    90

_symmetry_space_group_name_H-M    "P 1"
_symmetry_int_tables_number       1

loop_
  _symmetry_equiv_pos_as_xyz
  'x, y, z'

loop_
  _atom_site_label
  _atom_site_occupancy
  _atom_site_fract_x
  _atom_site_fract_y
  _atom_site_fract_z
  _atom_site_thermal_displace_type
  _atom_site_B_iso_or_equiv
  _atom_site_type_symbol
  Br1      1.0000 0.99280  0.77538  0.97910  Biso   1.000  Br
  Br2      1.0000 0.99280  0.72462  0.47910  Biso   1.000  Br
  Br3      1.0000 0.00720  0.22462  0.02090  Biso   1.000  Br
  Br4      1.0000 0.00720  0.27538  0.52090  Biso   1.000  Br
  Br5      1.0000 0.36925  0.99746  0.22510  Biso   1.000  Br
  Br6      1.0000 0.36925  0.50254  0.72510  Biso   1.000  Br
  Br7      1.0000 0.63075  0.00254  0.77490  Biso   1.000  Br
  Br8      1.0000 0.63075  0.49746  0.27490  Biso   1.000  Br
  N1       1.0000 0.86560  0.91500  0.25680  Biso   1.000  N
  N2       1.0000 0.86560  0.58500  0.75680  Biso   1.000  N
  N3       1.0000 0.13440  0.08500  0.74320  Biso   1.000  N
  N4       1.0000 0.13440  0.41500  0.24320  Biso   1.000  N
  N5       1.0000 0.76370  0.02350  0.36020  Biso   1.000  N
  N6       1.0000 0.76370  0.47650  0.86020  Biso   1.000  N
  N7       1.0000 0.23630  0.97650  0.63980  Biso   1.000  N
  N8       1.0000 0.23630  0.52350  0.13980  Biso   1.000  N
  C1       1.0000 0.76800  0.95100  0.32290  Biso   1.000  C
  C2       1.0000 0.76800  0.54900  0.82290  Biso   1.000  C
  C3       1.0000 0.23200  0.04900  0.67710  Biso   1.000  C
  C4       1.0000 0.23200  0.45100  0.17710  Biso   1.000  C
  H1       1.0000 0.69240  0.92120  0.34610  Biso   1.000  H
  H2       1.0000 0.69240  0.57880  0.84610  Biso   1.000  H
  H3       1.0000 0.30760  0.07880  0.65390  Biso   1.000  H
  H4       1.0000 0.30760  0.42120  0.15390  Biso   1.000  H
  C5       1.0000 0.87150  0.06720  0.32620  Biso   1.000  C
  C6       1.0000 0.87150  0.43280  0.82620  Biso   1.000  C
  C7       1.0000 0.12850  0.93280  0.67380  Biso   1.000  C
  C8       1.0000 0.12850  0.56720  0.17380  Biso   1.000  C
  H5       1.0000 0.87330  0.11900  0.35230  Biso   1.000  H
  H6       1.0000 0.87330  0.38100  0.85230  Biso   1.000  H
  H7       1.0000 0.12670  0.88100  0.64770  Biso   1.000  H
  H8       1.0000 0.12670  0.61900  0.14770  Biso   1.000  H
  C9       1.0000 0.97860  0.03700  0.25380  Biso   1.000  C
  C10      1.0000 0.97860  0.46300  0.75380  Biso   1.000  C
  C11      1.0000 0.02140  0.96300  0.74620  Biso   1.000  C
  C12      1.0000 0.02140  0.53700  0.24620  Biso   1.000  C
  H9       1.0000 0.05340  0.06700  0.22890  Biso   1.000  H
  H10      1.0000 0.05340  0.43300  0.72890  Biso   1.000  H
  H11      1.0000 0.94660  0.93300  0.77110  Biso   1.000  H
  H12      1.0000 0.94660  0.56700  0.27110  Biso   1.000  H
  C13      1.0000 0.97000  0.95950  0.21950  Biso   1.000  C
  C14      1.0000 0.97000  0.54050  0.71950  Biso   1.000  C
  C15      1.0000 0.03000  0.04050  0.78050  Biso   1.000  C
  C16      1.0000 0.03000  0.45950  0.28050  Biso   1.000  C
  H13      1.0000 0.04020  0.93740  0.16820  Biso   1.000  H
  H14      1.0000 0.04020  0.56260  0.66820  Biso   1.000  H
  H15      1.0000 0.95980  0.06260  0.83180  Biso   1.000  H
  H16      1.0000 0.95980  0.43740  0.33180  Biso   1.000  H
  N9       1.0000 0.46270  0.66850  0.02720  Biso   1.000  N
  N10      1.0000 0.46270  0.83150  0.52720  Biso   1.000  N
  N11      1.0000 0.53730  0.33150  0.97280  Biso   1.000  N
  N12      1.0000 0.53730  0.16850  0.47280  Biso   1.000  N
  C17      1.0000 0.38910  0.79620  0.94230  Biso   1.000  C
  C18      1.0000 0.38910  0.70380  0.44230  Biso   1.000  C
  C19      1.0000 0.61090  0.20380  0.05770  Biso   1.000  C
  C20      1.0000 0.61090  0.29620  0.55770  Biso   1.000  C
  H17      1.0000 0.31480  0.83090  0.88630  Biso   1.000  H
  H18      1.0000 0.31480  0.66910  0.38630  Biso   1.000  H
  H19      1.0000 0.68520  0.16910  0.11370  Biso   1.000  H
  H20      1.0000 0.68520  0.33090  0.61370  Biso   1.000  H
  C21      1.0000 0.35950  0.71920  0.94160  Biso   1.000  C
  C22      1.0000 0.35950  0.78080  0.44160  Biso   1.000  C
  C23      1.0000 0.64050  0.28080  0.05840  Biso   1.000  C
  C24      1.0000 0.64050  0.21920  0.55840  Biso   1.000  C
  H21      1.0000 0.26440  0.70190  0.87930  Biso   1.000  H
  H22      1.0000 0.26440  0.79810  0.37930  Biso   1.000  H
  H23      1.0000 0.73560  0.29810  0.12070  Biso   1.000  H
  H24      1.0000 0.73560  0.20190  0.62070  Biso   1.000  H
  N13      1.0000 0.63690  0.77040  0.11100  Biso   1.000  N
  N14      1.0000 0.63690  0.72960  0.61100  Biso   1.000  N
  N15      1.0000 0.36310  0.22960  0.88900  Biso   1.000  N
  N16      1.0000 0.36310  0.27040  0.38900  Biso   1.000  N
  C25      1.0000 0.59630  0.69730  0.11050  Biso   1.000  C
  C26      1.0000 0.59630  0.80270  0.61050  Biso   1.000  C
  C27      1.0000 0.40370  0.30270  0.88950  Biso   1.000  C
  C28      1.0000 0.40370  0.19730  0.38950  Biso   1.000  C
  H25      1.0000 0.66880  0.66340  0.17480  Biso   1.000  H
  H26      1.0000 0.66880  0.83660  0.67480  Biso   1.000  H
  H27      1.0000 0.33120  0.33660  0.82520  Biso   1.000  H
  H28      1.0000 0.33120  0.16340  0.32520  Biso   1.000  H
  C29      1.0000 0.53020  0.81980  0.02740  Biso   1.000  C
  C30      1.0000 0.53020  0.68020  0.52740  Biso   1.000  C
  C31      1.0000 0.46980  0.18020  0.97260  Biso   1.000  C
  C32      1.0000 0.46980  0.31980  0.47260  Biso   1.000  C
  H29      1.0000 0.55330  0.87130  0.02770  Biso   1.000  H
  H30      1.0000 0.55330  0.62870  0.52770  Biso   1.000  H
  H31      1.0000 0.44670  0.12870  0.97230  Biso   1.000  H
  H32      1.0000 0.44670  0.37130  0.47230  Biso   1.000  H
  Cu1      1.0000 0.85890  0.79958  0.21380  Biso   1.000  Cu
  Cu2      1.0000 0.85890  0.70042  0.71380  Biso   1.000  Cu
  Cu3      1.0000 0.14110  0.20042  0.78620  Biso   1.000  Cu
  Cu4      1.0000 0.14110  0.29958  0.28620  Biso   1.000  Cu
  Cu5      1.0000 0.58910  0.05794  0.46320  Biso   1.000  Cu
  Cu6      1.0000 0.58910  0.44206  0.96320  Biso   1.000  Cu
  Cu7      1.0000 0.41090  0.94206  0.53680  Biso   1.000  Cu
  Cu8      1.0000 0.41090  0.55794  0.03680  Biso   1.000  Cu
