data_image0
_cell_length_a       8.974
_cell_length_b       12.549
_cell_length_c       6.0214
_cell_angle_alpha    90
_cell_angle_beta     100.226
_cell_angle_gamma    90

_symmetry_space_group_name_H-M    "P 1"
_symmetry_int_tables_number       1

loop_
  _symmetry_equiv_pos_as_xyz
  'x, y, z'

loop_
  _atom_site_label
  _atom_site_occupancy
  _atom_site_fract_x
  _atom_site_fract_y
  _atom_site_fract_z
  _atom_site_thermal_displace_type
  _atom_site_B_iso_or_equiv
  _atom_site_type_symbol
  I1       1.0000 0.24977  0.50000  0.49953  Biso   1.000  I
  I2       1.0000 0.75023  0.50000  0.50047  Biso   1.000  I
  I3       1.0000 0.74977  0.00000  0.49953  Biso   1.000  I
  I4       1.0000 0.25023  0.00000  0.50047  Biso   1.000  I
  Cu1      1.0000 0.03670  0.50000  0.73882  Biso   1.000  Cu
  Cu2      1.0000 0.96330  0.50000  0.26118  Biso   1.000  Cu
  Cu3      1.0000 0.53670  0.00000  0.73882  Biso   1.000  Cu
  Cu4      1.0000 0.46330  0.00000  0.26118  Biso   1.000  Cu
  N1       1.0000 0.03460  0.35970  0.90990  Biso   1.000  N
  N2       1.0000 0.96540  0.35970  0.09010  Biso   1.000  N
  N3       1.0000 0.53460  0.85970  0.90990  Biso   1.000  N
  N4       1.0000 0.46540  0.85970  0.09010  Biso   1.000  N
  N5       1.0000 0.96540  0.64030  0.09010  Biso   1.000  N
  N6       1.0000 0.03460  0.64030  0.90990  Biso   1.000  N
  N7       1.0000 0.46540  0.14030  0.09010  Biso   1.000  N
  N8       1.0000 0.53460  0.14030  0.90990  Biso   1.000  N
  C1       1.0000 0.07150  0.26790  0.82510  Biso   1.000  C
  C2       1.0000 0.92850  0.26790  0.17490  Biso   1.000  C
  C3       1.0000 0.57150  0.76790  0.82510  Biso   1.000  C
  C4       1.0000 0.42850  0.76790  0.17490  Biso   1.000  C
  C5       1.0000 0.92850  0.73210  0.17490  Biso   1.000  C
  C6       1.0000 0.07150  0.73210  0.82510  Biso   1.000  C
  C7       1.0000 0.42850  0.23210  0.17490  Biso   1.000  C
  C8       1.0000 0.57150  0.23210  0.82510  Biso   1.000  C
  H1       1.0000 0.12170  0.26910  0.70270  Biso   1.000  H
  H2       1.0000 0.87830  0.26910  0.29730  Biso   1.000  H
  H3       1.0000 0.62170  0.76910  0.70270  Biso   1.000  H
  H4       1.0000 0.37830  0.76910  0.29730  Biso   1.000  H
  H5       1.0000 0.87830  0.73090  0.29730  Biso   1.000  H
  H6       1.0000 0.12170  0.73090  0.70270  Biso   1.000  H
  H7       1.0000 0.37830  0.23090  0.29730  Biso   1.000  H
  H8       1.0000 0.62170  0.23090  0.70270  Biso   1.000  H
  C9       1.0000 0.03780  0.16960  0.91230  Biso   1.000  C
  C10      1.0000 0.96220  0.16960  0.08770  Biso   1.000  C
  C11      1.0000 0.53780  0.66960  0.91230  Biso   1.000  C
  C12      1.0000 0.46220  0.66960  0.08770  Biso   1.000  C
  C13      1.0000 0.96220  0.83040  0.08770  Biso   1.000  C
  C14      1.0000 0.03780  0.83040  0.91230  Biso   1.000  C
  C15      1.0000 0.46220  0.33040  0.08770  Biso   1.000  C
  C16      1.0000 0.53780  0.33040  0.91230  Biso   1.000  C
  H9       1.0000 0.06640  0.10610  0.85190  Biso   1.000  H
  H10      1.0000 0.93360  0.10610  0.14810  Biso   1.000  H
  H11      1.0000 0.56640  0.60610  0.85190  Biso   1.000  H
  H12      1.0000 0.43360  0.60610  0.14810  Biso   1.000  H
  H13      1.0000 0.93360  0.89390  0.14810  Biso   1.000  H
  H14      1.0000 0.06640  0.89390  0.85190  Biso   1.000  H
  H15      1.0000 0.43360  0.39390  0.14810  Biso   1.000  H
  H16      1.0000 0.56640  0.39390  0.85190  Biso   1.000  H
