data_image0
_cell_length_a       12.27
_cell_length_b       14.4
_cell_length_c       12.691
_cell_angle_alpha    90
_cell_angle_beta     90
_cell_angle_gamma    90

_symmetry_space_group_name_H-M    "P 1"
_symmetry_int_tables_number       1

loop_
  _symmetry_equiv_pos_as_xyz
  'x, y, z'

loop_
  _atom_site_label
  _atom_site_occupancy
  _atom_site_fract_x
  _atom_site_fract_y
  _atom_site_fract_z
  _atom_site_thermal_displace_type
  _atom_site_B_iso_or_equiv
  _atom_site_type_symbol
  Cl1      1.0000 0.30243  0.37308  0.11471  Biso   1.000  Cl
  Cl2      1.0000 0.80243  0.87308  0.11471  Biso   1.000  Cl
  Cl3      1.0000 0.69757  0.12692  0.61471  Biso   1.000  Cl
  Cl4      1.0000 0.69757  0.87308  0.38529  Biso   1.000  Cl
  Cl5      1.0000 0.30243  0.62692  0.88529  Biso   1.000  Cl
  Cl6      1.0000 0.19757  0.62692  0.61471  Biso   1.000  Cl
  Cl7      1.0000 0.19757  0.37308  0.38529  Biso   1.000  Cl
  Cl8      1.0000 0.80243  0.12692  0.88529  Biso   1.000  Cl
  Cl9      1.0000 0.69757  0.62692  0.88529  Biso   1.000  Cl
  Cl10     1.0000 0.19757  0.12692  0.88529  Biso   1.000  Cl
  Cl11     1.0000 0.30243  0.87308  0.38529  Biso   1.000  Cl
  Cl12     1.0000 0.30243  0.12692  0.61471  Biso   1.000  Cl
  Cl13     1.0000 0.69757  0.37308  0.11471  Biso   1.000  Cl
  Cl14     1.0000 0.80243  0.37308  0.38529  Biso   1.000  Cl
  Cl15     1.0000 0.80243  0.62692  0.61471  Biso   1.000  Cl
  Cl16     1.0000 0.19757  0.87308  0.11471  Biso   1.000  Cl
  N1       1.0000 0.05510  0.25860  0.17120  Biso   1.000  N
  N2       1.0000 0.55510  0.75860  0.17120  Biso   1.000  N
  N3       1.0000 0.94490  0.24140  0.67120  Biso   1.000  N
  N4       1.0000 0.94490  0.75860  0.32880  Biso   1.000  N
  N5       1.0000 0.05510  0.74140  0.82880  Biso   1.000  N
  N6       1.0000 0.44490  0.74140  0.67120  Biso   1.000  N
  N7       1.0000 0.44490  0.25860  0.32880  Biso   1.000  N
  N8       1.0000 0.55510  0.24140  0.82880  Biso   1.000  N
  N9       1.0000 0.94490  0.74140  0.82880  Biso   1.000  N
  N10      1.0000 0.44490  0.24140  0.82880  Biso   1.000  N
  N11      1.0000 0.05510  0.75860  0.32880  Biso   1.000  N
  N12      1.0000 0.05510  0.24140  0.67120  Biso   1.000  N
  N13      1.0000 0.94490  0.25860  0.17120  Biso   1.000  N
  N14      1.0000 0.55510  0.25860  0.32880  Biso   1.000  N
  N15      1.0000 0.55510  0.74140  0.67120  Biso   1.000  N
  N16      1.0000 0.44490  0.75860  0.17120  Biso   1.000  N
  C1       1.0000 0.10640  0.18210  0.14190  Biso   1.000  C
  C2       1.0000 0.60640  0.68210  0.14190  Biso   1.000  C
  C3       1.0000 0.89360  0.31790  0.64190  Biso   1.000  C
  C4       1.0000 0.89360  0.68210  0.35810  Biso   1.000  C
  C5       1.0000 0.10640  0.81790  0.85810  Biso   1.000  C
  C6       1.0000 0.39360  0.81790  0.64190  Biso   1.000  C
  C7       1.0000 0.39360  0.18210  0.35810  Biso   1.000  C
  C8       1.0000 0.60640  0.31790  0.85810  Biso   1.000  C
  C9       1.0000 0.89360  0.81790  0.85810  Biso   1.000  C
  C10      1.0000 0.39360  0.31790  0.85810  Biso   1.000  C
  C11      1.0000 0.10640  0.68210  0.35810  Biso   1.000  C
  C12      1.0000 0.10640  0.31790  0.64190  Biso   1.000  C
  C13      1.0000 0.89360  0.18210  0.14190  Biso   1.000  C
  C14      1.0000 0.60640  0.18210  0.35810  Biso   1.000  C
  C15      1.0000 0.60640  0.81790  0.64190  Biso   1.000  C
  C16      1.0000 0.39360  0.68210  0.14190  Biso   1.000  C
  H1       1.0000 0.18220  0.18350  0.14010  Biso   1.000  H
  H2       1.0000 0.68220  0.68350  0.14010  Biso   1.000  H
  H3       1.0000 0.81780  0.31650  0.64010  Biso   1.000  H
  H4       1.0000 0.81780  0.68350  0.35990  Biso   1.000  H
  H5       1.0000 0.18220  0.81650  0.85990  Biso   1.000  H
  H6       1.0000 0.31780  0.81650  0.64010  Biso   1.000  H
  H7       1.0000 0.31780  0.18350  0.35990  Biso   1.000  H
  H8       1.0000 0.68220  0.31650  0.85990  Biso   1.000  H
  H9       1.0000 0.81780  0.81650  0.85990  Biso   1.000  H
  H10      1.0000 0.31780  0.31650  0.85990  Biso   1.000  H
  H11      1.0000 0.18220  0.68350  0.35990  Biso   1.000  H
  H12      1.0000 0.18220  0.31650  0.64010  Biso   1.000  H
  H13      1.0000 0.81780  0.18350  0.14010  Biso   1.000  H
  H14      1.0000 0.68220  0.18350  0.35990  Biso   1.000  H
  H15      1.0000 0.68220  0.81650  0.64010  Biso   1.000  H
  H16      1.0000 0.31780  0.68350  0.14010  Biso   1.000  H
  C17      1.0000 0.05580  0.10050  0.11380  Biso   1.000  C
  C18      1.0000 0.55580  0.60050  0.11380  Biso   1.000  C
  C19      1.0000 0.94420  0.39950  0.61380  Biso   1.000  C
  C20      1.0000 0.94420  0.60050  0.38620  Biso   1.000  C
  C21      1.0000 0.05580  0.89950  0.88620  Biso   1.000  C
  C22      1.0000 0.44420  0.89950  0.61380  Biso   1.000  C
  C23      1.0000 0.44420  0.10050  0.38620  Biso   1.000  C
  C24      1.0000 0.55580  0.39950  0.88620  Biso   1.000  C
  C25      1.0000 0.94420  0.89950  0.88620  Biso   1.000  C
  C26      1.0000 0.44420  0.39950  0.88620  Biso   1.000  C
  C27      1.0000 0.05580  0.60050  0.38620  Biso   1.000  C
  C28      1.0000 0.05580  0.39950  0.61380  Biso   1.000  C
  C29      1.0000 0.94420  0.10050  0.11380  Biso   1.000  C
  C30      1.0000 0.55580  0.10050  0.38620  Biso   1.000  C
  C31      1.0000 0.55580  0.89950  0.61380  Biso   1.000  C
  C32      1.0000 0.44420  0.60050  0.11380  Biso   1.000  C
  H17      1.0000 0.09550  0.04780  0.09570  Biso   1.000  H
  H18      1.0000 0.59550  0.54780  0.09570  Biso   1.000  H
  H19      1.0000 0.90450  0.45220  0.59570  Biso   1.000  H
  H20      1.0000 0.90450  0.54780  0.40430  Biso   1.000  H
  H21      1.0000 0.09550  0.95220  0.90430  Biso   1.000  H
  H22      1.0000 0.40450  0.95220  0.59570  Biso   1.000  H
  H23      1.0000 0.40450  0.04780  0.40430  Biso   1.000  H
  H24      1.0000 0.59550  0.45220  0.90430  Biso   1.000  H
  H25      1.0000 0.90450  0.95220  0.90430  Biso   1.000  H
  H26      1.0000 0.40450  0.45220  0.90430  Biso   1.000  H
  H27      1.0000 0.09550  0.54780  0.40430  Biso   1.000  H
  H28      1.0000 0.09550  0.45220  0.59570  Biso   1.000  H
  H29      1.0000 0.90450  0.04780  0.09570  Biso   1.000  H
  H30      1.0000 0.59550  0.04780  0.40430  Biso   1.000  H
  H31      1.0000 0.59550  0.95220  0.59570  Biso   1.000  H
  H32      1.0000 0.40450  0.54780  0.09570  Biso   1.000  H
  N17      1.0000 0.05480  0.48950  0.15780  Biso   1.000  N
  N18      1.0000 0.55480  0.98950  0.15780  Biso   1.000  N
  N19      1.0000 0.94520  0.01050  0.65780  Biso   1.000  N
  N20      1.0000 0.94520  0.98950  0.34220  Biso   1.000  N
  N21      1.0000 0.05480  0.51050  0.84220  Biso   1.000  N
  N22      1.0000 0.44520  0.51050  0.65780  Biso   1.000  N
  N23      1.0000 0.44520  0.48950  0.34220  Biso   1.000  N
  N24      1.0000 0.55480  0.01050  0.84220  Biso   1.000  N
  N25      1.0000 0.94520  0.51050  0.84220  Biso   1.000  N
  N26      1.0000 0.44520  0.01050  0.84220  Biso   1.000  N
  N27      1.0000 0.05480  0.98950  0.34220  Biso   1.000  N
  N28      1.0000 0.05480  0.01050  0.65780  Biso   1.000  N
  N29      1.0000 0.94520  0.48950  0.15780  Biso   1.000  N
  N30      1.0000 0.55480  0.48950  0.34220  Biso   1.000  N
  N31      1.0000 0.55480  0.51050  0.65780  Biso   1.000  N
  N32      1.0000 0.44520  0.98950  0.15780  Biso   1.000  N
  C33      1.0000 0.10600  0.56210  0.11860  Biso   1.000  C
  C34      1.0000 0.60600  0.06210  0.11860  Biso   1.000  C
  C35      1.0000 0.89400  0.93790  0.61860  Biso   1.000  C
  C36      1.0000 0.89400  0.06210  0.38140  Biso   1.000  C
  C37      1.0000 0.10600  0.43790  0.88140  Biso   1.000  C
  C38      1.0000 0.39400  0.43790  0.61860  Biso   1.000  C
  C39      1.0000 0.39400  0.56210  0.38140  Biso   1.000  C
  C40      1.0000 0.60600  0.93790  0.88140  Biso   1.000  C
  C41      1.0000 0.89400  0.43790  0.88140  Biso   1.000  C
  C42      1.0000 0.39400  0.93790  0.88140  Biso   1.000  C
  C43      1.0000 0.10600  0.06210  0.38140  Biso   1.000  C
  C44      1.0000 0.10600  0.93790  0.61860  Biso   1.000  C
  C45      1.0000 0.89400  0.56210  0.11860  Biso   1.000  C
  C46      1.0000 0.60600  0.56210  0.38140  Biso   1.000  C
  C47      1.0000 0.60600  0.43790  0.61860  Biso   1.000  C
  C48      1.0000 0.39400  0.06210  0.11860  Biso   1.000  C
  H33      1.0000 0.18170  0.56000  0.11620  Biso   1.000  H
  H34      1.0000 0.68170  0.06000  0.11620  Biso   1.000  H
  H35      1.0000 0.81830  0.94000  0.61620  Biso   1.000  H
  H36      1.0000 0.81830  0.06000  0.38380  Biso   1.000  H
  H37      1.0000 0.18170  0.44000  0.88380  Biso   1.000  H
  H38      1.0000 0.31830  0.44000  0.61620  Biso   1.000  H
  H39      1.0000 0.31830  0.56000  0.38380  Biso   1.000  H
  H40      1.0000 0.68170  0.94000  0.88380  Biso   1.000  H
  H41      1.0000 0.81830  0.44000  0.88380  Biso   1.000  H
  H42      1.0000 0.31830  0.94000  0.88380  Biso   1.000  H
  H43      1.0000 0.18170  0.06000  0.38380  Biso   1.000  H
  H44      1.0000 0.18170  0.94000  0.61620  Biso   1.000  H
  H45      1.0000 0.81830  0.56000  0.11620  Biso   1.000  H
  H46      1.0000 0.68170  0.56000  0.38380  Biso   1.000  H
  H47      1.0000 0.68170  0.44000  0.61620  Biso   1.000  H
  H48      1.0000 0.31830  0.06000  0.11620  Biso   1.000  H
  C49      1.0000 0.05620  0.63990  0.08130  Biso   1.000  C
  C50      1.0000 0.55620  0.13990  0.08130  Biso   1.000  C
  C51      1.0000 0.94380  0.86010  0.58130  Biso   1.000  C
  C52      1.0000 0.94380  0.13990  0.41870  Biso   1.000  C
  C53      1.0000 0.05620  0.36010  0.91870  Biso   1.000  C
  C54      1.0000 0.44380  0.36010  0.58130  Biso   1.000  C
  C55      1.0000 0.44380  0.63990  0.41870  Biso   1.000  C
  C56      1.0000 0.55620  0.86010  0.91870  Biso   1.000  C
  C57      1.0000 0.94380  0.36010  0.91870  Biso   1.000  C
  C58      1.0000 0.44380  0.86010  0.91870  Biso   1.000  C
  C59      1.0000 0.05620  0.13990  0.41870  Biso   1.000  C
  C60      1.0000 0.05620  0.86010  0.58130  Biso   1.000  C
  C61      1.0000 0.94380  0.63990  0.08130  Biso   1.000  C
  C62      1.0000 0.55620  0.63990  0.41870  Biso   1.000  C
  C63      1.0000 0.55620  0.36010  0.58130  Biso   1.000  C
  C64      1.0000 0.44380  0.13990  0.08130  Biso   1.000  C
  H49      1.0000 0.09600  0.69050  0.05700  Biso   1.000  H
  H50      1.0000 0.59600  0.19050  0.05700  Biso   1.000  H
  H51      1.0000 0.90400  0.80950  0.55700  Biso   1.000  H
  H52      1.0000 0.90400  0.19050  0.44300  Biso   1.000  H
  H53      1.0000 0.09600  0.30950  0.94300  Biso   1.000  H
  H54      1.0000 0.40400  0.30950  0.55700  Biso   1.000  H
  H55      1.0000 0.40400  0.69050  0.44300  Biso   1.000  H
  H56      1.0000 0.59600  0.80950  0.94300  Biso   1.000  H
  H57      1.0000 0.90400  0.30950  0.94300  Biso   1.000  H
  H58      1.0000 0.40400  0.80950  0.94300  Biso   1.000  H
  H59      1.0000 0.09600  0.19050  0.44300  Biso   1.000  H
  H60      1.0000 0.09600  0.80950  0.55700  Biso   1.000  H
  H61      1.0000 0.90400  0.69050  0.05700  Biso   1.000  H
  H62      1.0000 0.59600  0.69050  0.44300  Biso   1.000  H
  H63      1.0000 0.59600  0.30950  0.55700  Biso   1.000  H
  H64      1.0000 0.40400  0.19050  0.05700  Biso   1.000  H
  Cu1      1.0000 0.13062  0.37698  0.21621  Biso   1.000  Cu
  Cu2      1.0000 0.63062  0.87698  0.21621  Biso   1.000  Cu
  Cu3      1.0000 0.86938  0.12302  0.71621  Biso   1.000  Cu
  Cu4      1.0000 0.86938  0.87698  0.28379  Biso   1.000  Cu
  Cu5      1.0000 0.13062  0.62302  0.78379  Biso   1.000  Cu
  Cu6      1.0000 0.36938  0.62302  0.71621  Biso   1.000  Cu
  Cu7      1.0000 0.36938  0.37698  0.28379  Biso   1.000  Cu
  Cu8      1.0000 0.63062  0.12302  0.78379  Biso   1.000  Cu
  Cu9      1.0000 0.86938  0.62302  0.78379  Biso   1.000  Cu
  Cu10     1.0000 0.36938  0.12302  0.78379  Biso   1.000  Cu
  Cu11     1.0000 0.13062  0.87698  0.28379  Biso   1.000  Cu
  Cu12     1.0000 0.13062  0.12302  0.71621  Biso   1.000  Cu
  Cu13     1.0000 0.86938  0.37698  0.21621  Biso   1.000  Cu
  Cu14     1.0000 0.63062  0.37698  0.28379  Biso   1.000  Cu
  Cu15     1.0000 0.63062  0.62302  0.71621  Biso   1.000  Cu
  Cu16     1.0000 0.36938  0.87698  0.21621  Biso   1.000  Cu
