data_image0
_cell_length_a       12.2849
_cell_length_b       14.4337
_cell_length_c       12.7352
_cell_angle_alpha    90
_cell_angle_beta     90
_cell_angle_gamma    90

_symmetry_space_group_name_H-M    "P 1"
_symmetry_int_tables_number       1

loop_
  _symmetry_equiv_pos_as_xyz
  'x, y, z'

loop_
  _atom_site_label
  _atom_site_occupancy
  _atom_site_fract_x
  _atom_site_fract_y
  _atom_site_fract_z
  _atom_site_thermal_displace_type
  _atom_site_B_iso_or_equiv
  _atom_site_type_symbol
  N1       1.0000 0.44493  0.24168  0.17082  Biso   1.000  N
  N2       1.0000 0.55507  0.25832  0.67082  Biso   1.000  N
  N3       1.0000 0.55507  0.74168  0.32918  Biso   1.000  N
  N4       1.0000 0.44493  0.75832  0.82918  Biso   1.000  N
  N5       1.0000 0.94493  0.74168  0.17082  Biso   1.000  N
  N6       1.0000 0.05507  0.75832  0.67082  Biso   1.000  N
  N7       1.0000 0.05507  0.24168  0.32918  Biso   1.000  N
  N8       1.0000 0.94493  0.25832  0.82918  Biso   1.000  N
  N9       1.0000 0.55507  0.75832  0.82918  Biso   1.000  N
  N10      1.0000 0.44493  0.74168  0.32918  Biso   1.000  N
  N11      1.0000 0.44493  0.25832  0.67082  Biso   1.000  N
  N12      1.0000 0.55507  0.24168  0.17082  Biso   1.000  N
  N13      1.0000 0.05507  0.25832  0.82918  Biso   1.000  N
  N14      1.0000 0.94493  0.24168  0.32918  Biso   1.000  N
  N15      1.0000 0.94493  0.75832  0.67082  Biso   1.000  N
  N16      1.0000 0.05507  0.74168  0.17082  Biso   1.000  N
  C1       1.0000 0.39370  0.31760  0.14120  Biso   1.000  C
  C2       1.0000 0.60630  0.18240  0.64120  Biso   1.000  C
  C3       1.0000 0.60630  0.81760  0.35880  Biso   1.000  C
  C4       1.0000 0.39370  0.68240  0.85880  Biso   1.000  C
  C5       1.0000 0.89370  0.81760  0.14120  Biso   1.000  C
  C6       1.0000 0.10630  0.68240  0.64120  Biso   1.000  C
  C7       1.0000 0.10630  0.31760  0.35880  Biso   1.000  C
  C8       1.0000 0.89370  0.18240  0.85880  Biso   1.000  C
  C9       1.0000 0.60630  0.68240  0.85880  Biso   1.000  C
  C10      1.0000 0.39370  0.81760  0.35880  Biso   1.000  C
  C11      1.0000 0.39370  0.18240  0.64120  Biso   1.000  C
  C12      1.0000 0.60630  0.31760  0.14120  Biso   1.000  C
  C13      1.0000 0.10630  0.18240  0.85880  Biso   1.000  C
  C14      1.0000 0.89370  0.31760  0.35880  Biso   1.000  C
  C15      1.0000 0.89370  0.68240  0.64120  Biso   1.000  C
  C16      1.0000 0.10630  0.81760  0.14120  Biso   1.000  C
  C17      1.0000 0.44400  0.39900  0.11350  Biso   1.000  C
  C18      1.0000 0.55600  0.10100  0.61350  Biso   1.000  C
  C19      1.0000 0.55600  0.89900  0.38650  Biso   1.000  C
  C20      1.0000 0.44400  0.60100  0.88650  Biso   1.000  C
  C21      1.0000 0.94400  0.89900  0.11350  Biso   1.000  C
  C22      1.0000 0.05600  0.60100  0.61350  Biso   1.000  C
  C23      1.0000 0.05600  0.39900  0.38650  Biso   1.000  C
  C24      1.0000 0.94400  0.10100  0.88650  Biso   1.000  C
  C25      1.0000 0.55600  0.60100  0.88650  Biso   1.000  C
  C26      1.0000 0.44400  0.89900  0.38650  Biso   1.000  C
  C27      1.0000 0.44400  0.10100  0.61350  Biso   1.000  C
  C28      1.0000 0.55600  0.39900  0.11350  Biso   1.000  C
  C29      1.0000 0.05600  0.10100  0.88650  Biso   1.000  C
  C30      1.0000 0.94400  0.39900  0.38650  Biso   1.000  C
  C31      1.0000 0.94400  0.60100  0.61350  Biso   1.000  C
  C32      1.0000 0.05600  0.89900  0.11350  Biso   1.000  C
  N17      1.0000 0.44491  0.01045  0.15850  Biso   1.000  N
  N18      1.0000 0.55509  0.48955  0.65850  Biso   1.000  N
  N19      1.0000 0.55509  0.51045  0.34150  Biso   1.000  N
  N20      1.0000 0.44491  0.98955  0.84150  Biso   1.000  N
  N21      1.0000 0.94491  0.51045  0.15850  Biso   1.000  N
  N22      1.0000 0.05509  0.98955  0.65850  Biso   1.000  N
  N23      1.0000 0.05509  0.01045  0.34150  Biso   1.000  N
  N24      1.0000 0.94491  0.48955  0.84150  Biso   1.000  N
  N25      1.0000 0.55509  0.98955  0.84150  Biso   1.000  N
  N26      1.0000 0.44491  0.51045  0.34150  Biso   1.000  N
  N27      1.0000 0.44491  0.48955  0.65850  Biso   1.000  N
  N28      1.0000 0.55509  0.01045  0.15850  Biso   1.000  N
  N29      1.0000 0.05509  0.48955  0.84150  Biso   1.000  N
  N30      1.0000 0.94491  0.01045  0.34150  Biso   1.000  N
  N31      1.0000 0.94491  0.98955  0.65850  Biso   1.000  N
  N32      1.0000 0.05509  0.51045  0.15850  Biso   1.000  N
  C33      1.0000 0.39340  0.93790  0.11880  Biso   1.000  C
  C34      1.0000 0.60660  0.56210  0.61880  Biso   1.000  C
  C35      1.0000 0.60660  0.43790  0.38120  Biso   1.000  C
  C36      1.0000 0.39340  0.06210  0.88120  Biso   1.000  C
  C37      1.0000 0.89340  0.43790  0.11880  Biso   1.000  C
  C38      1.0000 0.10660  0.06210  0.61880  Biso   1.000  C
  C39      1.0000 0.10660  0.93790  0.38120  Biso   1.000  C
  C40      1.0000 0.89340  0.56210  0.88120  Biso   1.000  C
  C41      1.0000 0.60660  0.06210  0.88120  Biso   1.000  C
  C42      1.0000 0.39340  0.43790  0.38120  Biso   1.000  C
  C43      1.0000 0.39340  0.56210  0.61880  Biso   1.000  C
  C44      1.0000 0.60660  0.93790  0.11880  Biso   1.000  C
  C45      1.0000 0.10660  0.56210  0.88120  Biso   1.000  C
  C46      1.0000 0.89340  0.93790  0.38120  Biso   1.000  C
  C47      1.0000 0.89340  0.06210  0.61880  Biso   1.000  C
  C48      1.0000 0.10660  0.43790  0.11880  Biso   1.000  C
  C49      1.0000 0.44420  0.85980  0.08190  Biso   1.000  C
  C50      1.0000 0.55580  0.64020  0.58190  Biso   1.000  C
  C51      1.0000 0.55580  0.35980  0.41810  Biso   1.000  C
  C52      1.0000 0.44420  0.14020  0.91810  Biso   1.000  C
  C53      1.0000 0.94420  0.35980  0.08190  Biso   1.000  C
  C54      1.0000 0.05580  0.14020  0.58190  Biso   1.000  C
  C55      1.0000 0.05580  0.85980  0.41810  Biso   1.000  C
  C56      1.0000 0.94420  0.64020  0.91810  Biso   1.000  C
  C57      1.0000 0.55580  0.14020  0.91810  Biso   1.000  C
  C58      1.0000 0.44420  0.35980  0.41810  Biso   1.000  C
  C59      1.0000 0.44420  0.64020  0.58190  Biso   1.000  C
  C60      1.0000 0.55580  0.85980  0.08190  Biso   1.000  C
  C61      1.0000 0.05580  0.64020  0.91810  Biso   1.000  C
  C62      1.0000 0.94420  0.85980  0.41810  Biso   1.000  C
  C63      1.0000 0.94420  0.14020  0.58190  Biso   1.000  C
  C64      1.0000 0.05580  0.35980  0.08190  Biso   1.000  C
  Cl1      1.0000 0.19740  0.12694  0.11515  Biso   1.000  Cl
  Cl2      1.0000 0.80260  0.37306  0.61515  Biso   1.000  Cl
  Cl3      1.0000 0.80260  0.62694  0.38485  Biso   1.000  Cl
  Cl4      1.0000 0.19740  0.87306  0.88485  Biso   1.000  Cl
  Cl5      1.0000 0.69740  0.62694  0.11515  Biso   1.000  Cl
  Cl6      1.0000 0.30260  0.87306  0.61515  Biso   1.000  Cl
  Cl7      1.0000 0.30260  0.12694  0.38485  Biso   1.000  Cl
  Cl8      1.0000 0.69740  0.37306  0.88485  Biso   1.000  Cl
  Cl9      1.0000 0.80260  0.87306  0.88485  Biso   1.000  Cl
  Cl10     1.0000 0.19740  0.62694  0.38485  Biso   1.000  Cl
  Cl11     1.0000 0.19740  0.37306  0.61515  Biso   1.000  Cl
  Cl12     1.0000 0.80260  0.12694  0.11515  Biso   1.000  Cl
  Cl13     1.0000 0.30260  0.37306  0.88485  Biso   1.000  Cl
  Cl14     1.0000 0.69740  0.12694  0.38485  Biso   1.000  Cl
  Cl15     1.0000 0.69740  0.87306  0.61515  Biso   1.000  Cl
  Cl16     1.0000 0.30260  0.62694  0.11515  Biso   1.000  Cl
  Cu1      1.0000 0.36934  0.12325  0.21627  Biso   1.000  Cu
  Cu2      1.0000 0.63066  0.37675  0.71627  Biso   1.000  Cu
  Cu3      1.0000 0.63066  0.62325  0.28373  Biso   1.000  Cu
  Cu4      1.0000 0.36934  0.87675  0.78373  Biso   1.000  Cu
  Cu5      1.0000 0.86934  0.62325  0.21627  Biso   1.000  Cu
  Cu6      1.0000 0.13066  0.87675  0.71627  Biso   1.000  Cu
  Cu7      1.0000 0.13066  0.12325  0.28373  Biso   1.000  Cu
  Cu8      1.0000 0.86934  0.37675  0.78373  Biso   1.000  Cu
  Cu9      1.0000 0.63066  0.87675  0.78373  Biso   1.000  Cu
  Cu10     1.0000 0.36934  0.62325  0.28373  Biso   1.000  Cu
  Cu11     1.0000 0.36934  0.37675  0.71627  Biso   1.000  Cu
  Cu12     1.0000 0.63066  0.12325  0.21627  Biso   1.000  Cu
  Cu13     1.0000 0.13066  0.37675  0.78373  Biso   1.000  Cu
  Cu14     1.0000 0.86934  0.12325  0.28373  Biso   1.000  Cu
  Cu15     1.0000 0.86934  0.87675  0.71627  Biso   1.000  Cu
  Cu16     1.0000 0.13066  0.62325  0.21627  Biso   1.000  Cu
