data_image0
_cell_length_a       12.3352
_cell_length_b       14.7963
_cell_length_c       13.0496
_cell_angle_alpha    90
_cell_angle_beta     90
_cell_angle_gamma    90

_symmetry_space_group_name_H-M    "P 1"
_symmetry_int_tables_number       1

loop_
  _symmetry_equiv_pos_as_xyz
  'x, y, z'

loop_
  _atom_site_label
  _atom_site_occupancy
  _atom_site_fract_x
  _atom_site_fract_y
  _atom_site_fract_z
  _atom_site_thermal_displace_type
  _atom_site_B_iso_or_equiv
  _atom_site_type_symbol
  Cu1      1.0000 0.36939  0.87842  0.78875  Biso   1.000  Cu
  Cu2      1.0000 0.63061  0.62158  0.28875  Biso   1.000  Cu
  Cu3      1.0000 0.63061  0.37842  0.71125  Biso   1.000  Cu
  Cu4      1.0000 0.36939  0.12158  0.21125  Biso   1.000  Cu
  Cu5      1.0000 0.86939  0.37842  0.78875  Biso   1.000  Cu
  Cu6      1.0000 0.13061  0.12158  0.28875  Biso   1.000  Cu
  Cu7      1.0000 0.13061  0.87842  0.71125  Biso   1.000  Cu
  Cu8      1.0000 0.86939  0.62158  0.21125  Biso   1.000  Cu
  Cu9      1.0000 0.63061  0.12158  0.21125  Biso   1.000  Cu
  Cu10     1.0000 0.36939  0.37842  0.71125  Biso   1.000  Cu
  Cu11     1.0000 0.36939  0.62158  0.28875  Biso   1.000  Cu
  Cu12     1.0000 0.63061  0.87842  0.78875  Biso   1.000  Cu
  Cu13     1.0000 0.13061  0.62158  0.21125  Biso   1.000  Cu
  Cu14     1.0000 0.86939  0.87842  0.71125  Biso   1.000  Cu
  Cu15     1.0000 0.86939  0.12158  0.28875  Biso   1.000  Cu
  Cu16     1.0000 0.13061  0.37842  0.78875  Biso   1.000  Cu
  Br1      1.0000 0.19067  0.87282  0.88933  Biso   1.000  Br
  Br2      1.0000 0.80933  0.62718  0.38933  Biso   1.000  Br
  Br3      1.0000 0.80933  0.37282  0.61067  Biso   1.000  Br
  Br4      1.0000 0.19067  0.12718  0.11067  Biso   1.000  Br
  Br5      1.0000 0.69067  0.37282  0.88933  Biso   1.000  Br
  Br6      1.0000 0.30933  0.12718  0.38933  Biso   1.000  Br
  Br7      1.0000 0.30933  0.87282  0.61067  Biso   1.000  Br
  Br8      1.0000 0.69067  0.62718  0.11067  Biso   1.000  Br
  Br9      1.0000 0.80933  0.12718  0.11067  Biso   1.000  Br
  Br10     1.0000 0.19067  0.37282  0.61067  Biso   1.000  Br
  Br11     1.0000 0.19067  0.62718  0.38933  Biso   1.000  Br
  Br12     1.0000 0.80933  0.87282  0.88933  Biso   1.000  Br
  Br13     1.0000 0.30933  0.62718  0.11067  Biso   1.000  Br
  Br14     1.0000 0.69067  0.87282  0.61067  Biso   1.000  Br
  Br15     1.0000 0.69067  0.12718  0.38933  Biso   1.000  Br
  Br16     1.0000 0.30933  0.37282  0.88933  Biso   1.000  Br
  N1       1.0000 0.44520  0.98920  0.84440  Biso   1.000  N
  N2       1.0000 0.55480  0.51080  0.34440  Biso   1.000  N
  N3       1.0000 0.55480  0.48920  0.65560  Biso   1.000  N
  N4       1.0000 0.44520  0.01080  0.15560  Biso   1.000  N
  N5       1.0000 0.94520  0.48920  0.84440  Biso   1.000  N
  N6       1.0000 0.05480  0.01080  0.34440  Biso   1.000  N
  N7       1.0000 0.05480  0.98920  0.65560  Biso   1.000  N
  N8       1.0000 0.94520  0.51080  0.15560  Biso   1.000  N
  N9       1.0000 0.55480  0.01080  0.15560  Biso   1.000  N
  N10      1.0000 0.44520  0.48920  0.65560  Biso   1.000  N
  N11      1.0000 0.44520  0.51080  0.34440  Biso   1.000  N
  N12      1.0000 0.55480  0.98920  0.84440  Biso   1.000  N
  N13      1.0000 0.05480  0.51080  0.15560  Biso   1.000  N
  N14      1.0000 0.94520  0.98920  0.65560  Biso   1.000  N
  N15      1.0000 0.94520  0.01080  0.34440  Biso   1.000  N
  N16      1.0000 0.05480  0.48920  0.84440  Biso   1.000  N
  N17      1.0000 0.44520  0.76110  0.82780  Biso   1.000  N
  N18      1.0000 0.55480  0.73890  0.32780  Biso   1.000  N
  N19      1.0000 0.55480  0.26110  0.67220  Biso   1.000  N
  N20      1.0000 0.44520  0.23890  0.17220  Biso   1.000  N
  N21      1.0000 0.94520  0.26110  0.82780  Biso   1.000  N
  N22      1.0000 0.05480  0.23890  0.32780  Biso   1.000  N
  N23      1.0000 0.05480  0.76110  0.67220  Biso   1.000  N
  N24      1.0000 0.94520  0.73890  0.17220  Biso   1.000  N
  N25      1.0000 0.55480  0.23890  0.17220  Biso   1.000  N
  N26      1.0000 0.44520  0.26110  0.67220  Biso   1.000  N
  N27      1.0000 0.44520  0.73890  0.32780  Biso   1.000  N
  N28      1.0000 0.55480  0.76110  0.82780  Biso   1.000  N
  N29      1.0000 0.05480  0.73890  0.17220  Biso   1.000  N
  N30      1.0000 0.94520  0.76110  0.67220  Biso   1.000  N
  N31      1.0000 0.94520  0.23890  0.32780  Biso   1.000  N
  N32      1.0000 0.05480  0.26110  0.82780  Biso   1.000  N
  C1       1.0000 0.39380  0.05970  0.88300  Biso   1.000  C
  C2       1.0000 0.60620  0.44030  0.38300  Biso   1.000  C
  C3       1.0000 0.60620  0.55970  0.61700  Biso   1.000  C
  C4       1.0000 0.39380  0.94030  0.11700  Biso   1.000  C
  C5       1.0000 0.89380  0.55970  0.88300  Biso   1.000  C
  C6       1.0000 0.10620  0.94030  0.38300  Biso   1.000  C
  C7       1.0000 0.10620  0.05970  0.61700  Biso   1.000  C
  C8       1.0000 0.89380  0.44030  0.11700  Biso   1.000  C
  C9       1.0000 0.60620  0.94030  0.11700  Biso   1.000  C
  C10      1.0000 0.39380  0.55970  0.61700  Biso   1.000  C
  C11      1.0000 0.39380  0.44030  0.38300  Biso   1.000  C
  C12      1.0000 0.60620  0.05970  0.88300  Biso   1.000  C
  C13      1.0000 0.10620  0.44030  0.11700  Biso   1.000  C
  C14      1.0000 0.89380  0.05970  0.61700  Biso   1.000  C
  C15      1.0000 0.89380  0.94030  0.38300  Biso   1.000  C
  C16      1.0000 0.10620  0.55970  0.88300  Biso   1.000  C
  H1       1.0000 0.31850  0.05760  0.88620  Biso   1.000  H
  H2       1.0000 0.68150  0.44240  0.38620  Biso   1.000  H
  H3       1.0000 0.68150  0.55760  0.61380  Biso   1.000  H
  H4       1.0000 0.31850  0.94240  0.11380  Biso   1.000  H
  H5       1.0000 0.81850  0.55760  0.88620  Biso   1.000  H
  H6       1.0000 0.18150  0.94240  0.38620  Biso   1.000  H
  H7       1.0000 0.18150  0.05760  0.61380  Biso   1.000  H
  H8       1.0000 0.81850  0.44240  0.11380  Biso   1.000  H
  H9       1.0000 0.68150  0.94240  0.11380  Biso   1.000  H
  H10      1.0000 0.31850  0.55760  0.61380  Biso   1.000  H
  H11      1.0000 0.31850  0.44240  0.38620  Biso   1.000  H
  H12      1.0000 0.68150  0.05760  0.88620  Biso   1.000  H
  H13      1.0000 0.18150  0.44240  0.11380  Biso   1.000  H
  H14      1.0000 0.81850  0.05760  0.61380  Biso   1.000  H
  H15      1.0000 0.81850  0.94240  0.38620  Biso   1.000  H
  H16      1.0000 0.18150  0.55760  0.88620  Biso   1.000  H
  C17      1.0000 0.44490  0.13610  0.91890  Biso   1.000  C
  C18      1.0000 0.55510  0.36390  0.41890  Biso   1.000  C
  C19      1.0000 0.55510  0.63610  0.58110  Biso   1.000  C
  C20      1.0000 0.44490  0.86390  0.08110  Biso   1.000  C
  C21      1.0000 0.94490  0.63610  0.91890  Biso   1.000  C
  C22      1.0000 0.05510  0.86390  0.41890  Biso   1.000  C
  C23      1.0000 0.05510  0.13610  0.58110  Biso   1.000  C
  C24      1.0000 0.94490  0.36390  0.08110  Biso   1.000  C
  C25      1.0000 0.55510  0.86390  0.08110  Biso   1.000  C
  C26      1.0000 0.44490  0.63610  0.58110  Biso   1.000  C
  C27      1.0000 0.44490  0.36390  0.41890  Biso   1.000  C
  C28      1.0000 0.55510  0.13610  0.91890  Biso   1.000  C
  C29      1.0000 0.05510  0.36390  0.08110  Biso   1.000  C
  C30      1.0000 0.94490  0.13610  0.58110  Biso   1.000  C
  C31      1.0000 0.94490  0.86390  0.41890  Biso   1.000  C
  C32      1.0000 0.05510  0.63610  0.91890  Biso   1.000  C
  H17      1.0000 0.40560  0.18570  0.94220  Biso   1.000  H
  H18      1.0000 0.59440  0.31430  0.44220  Biso   1.000  H
  H19      1.0000 0.59440  0.68570  0.55780  Biso   1.000  H
  H20      1.0000 0.40560  0.81430  0.05780  Biso   1.000  H
  H21      1.0000 0.90560  0.68570  0.94220  Biso   1.000  H
  H22      1.0000 0.09440  0.81430  0.44220  Biso   1.000  H
  H23      1.0000 0.09440  0.18570  0.55780  Biso   1.000  H
  H24      1.0000 0.90560  0.31430  0.05780  Biso   1.000  H
  H25      1.0000 0.59440  0.81430  0.05780  Biso   1.000  H
  H26      1.0000 0.40560  0.68570  0.55780  Biso   1.000  H
  H27      1.0000 0.40560  0.31430  0.44220  Biso   1.000  H
  H28      1.0000 0.59440  0.18570  0.94220  Biso   1.000  H
  H29      1.0000 0.09440  0.31430  0.05780  Biso   1.000  H
  H30      1.0000 0.90560  0.18570  0.55780  Biso   1.000  H
  H31      1.0000 0.90560  0.81430  0.44220  Biso   1.000  H
  H32      1.0000 0.09440  0.68570  0.94220  Biso   1.000  H
  C33      1.0000 0.39320  0.68610  0.85170  Biso   1.000  C
  C34      1.0000 0.60680  0.81390  0.35170  Biso   1.000  C
  C35      1.0000 0.60680  0.18610  0.64830  Biso   1.000  C
  C36      1.0000 0.39320  0.31390  0.14830  Biso   1.000  C
  C37      1.0000 0.89320  0.18610  0.85170  Biso   1.000  C
  C38      1.0000 0.10680  0.31390  0.35170  Biso   1.000  C
  C39      1.0000 0.10680  0.68610  0.64830  Biso   1.000  C
  C40      1.0000 0.89320  0.81390  0.14830  Biso   1.000  C
  C41      1.0000 0.60680  0.31390  0.14830  Biso   1.000  C
  C42      1.0000 0.39320  0.18610  0.64830  Biso   1.000  C
  C43      1.0000 0.39320  0.81390  0.35170  Biso   1.000  C
  C44      1.0000 0.60680  0.68610  0.85170  Biso   1.000  C
  C45      1.0000 0.10680  0.81390  0.14830  Biso   1.000  C
  C46      1.0000 0.89320  0.68610  0.64830  Biso   1.000  C
  C47      1.0000 0.89320  0.31390  0.35170  Biso   1.000  C
  C48      1.0000 0.10680  0.18610  0.85170  Biso   1.000  C
  H33      1.0000 0.31780  0.68720  0.85210  Biso   1.000  H
  H34      1.0000 0.68220  0.81280  0.35210  Biso   1.000  H
  H35      1.0000 0.68220  0.18720  0.64790  Biso   1.000  H
  H36      1.0000 0.31780  0.31280  0.14790  Biso   1.000  H
  H37      1.0000 0.81780  0.18720  0.85210  Biso   1.000  H
  H38      1.0000 0.18220  0.31280  0.35210  Biso   1.000  H
  H39      1.0000 0.18220  0.68720  0.64790  Biso   1.000  H
  H40      1.0000 0.81780  0.81280  0.14790  Biso   1.000  H
  H41      1.0000 0.68220  0.31280  0.14790  Biso   1.000  H
  H42      1.0000 0.31780  0.18720  0.64790  Biso   1.000  H
  H43      1.0000 0.31780  0.81280  0.35210  Biso   1.000  H
  H44      1.0000 0.68220  0.68720  0.85210  Biso   1.000  H
  H45      1.0000 0.18220  0.81280  0.14790  Biso   1.000  H
  H46      1.0000 0.81780  0.68720  0.64790  Biso   1.000  H
  H47      1.0000 0.81780  0.31280  0.35210  Biso   1.000  H
  H48      1.0000 0.18220  0.18720  0.85210  Biso   1.000  H
  C49      1.0000 0.44520  0.60530  0.87630  Biso   1.000  C
  C50      1.0000 0.55480  0.89470  0.37630  Biso   1.000  C
  C51      1.0000 0.55480  0.10530  0.62370  Biso   1.000  C
  C52      1.0000 0.44520  0.39470  0.12370  Biso   1.000  C
  C53      1.0000 0.94520  0.10530  0.87630  Biso   1.000  C
  C54      1.0000 0.05480  0.39470  0.37630  Biso   1.000  C
  C55      1.0000 0.05480  0.60530  0.62370  Biso   1.000  C
  C56      1.0000 0.94520  0.89470  0.12370  Biso   1.000  C
  C57      1.0000 0.55480  0.39470  0.12370  Biso   1.000  C
  C58      1.0000 0.44520  0.10530  0.62370  Biso   1.000  C
  C59      1.0000 0.44520  0.89470  0.37630  Biso   1.000  C
  C60      1.0000 0.55480  0.60530  0.87630  Biso   1.000  C
  C61      1.0000 0.05480  0.89470  0.12370  Biso   1.000  C
  C62      1.0000 0.94520  0.60530  0.62370  Biso   1.000  C
  C63      1.0000 0.94520  0.39470  0.37630  Biso   1.000  C
  C64      1.0000 0.05480  0.10530  0.87630  Biso   1.000  C
  H49      1.0000 0.40600  0.55350  0.89210  Biso   1.000  H
  H50      1.0000 0.59400  0.94650  0.39210  Biso   1.000  H
  H51      1.0000 0.59400  0.05350  0.60790  Biso   1.000  H
  H52      1.0000 0.40600  0.44650  0.10790  Biso   1.000  H
  H53      1.0000 0.90600  0.05350  0.89210  Biso   1.000  H
  H54      1.0000 0.09400  0.44650  0.39210  Biso   1.000  H
  H55      1.0000 0.09400  0.55350  0.60790  Biso   1.000  H
  H56      1.0000 0.90600  0.94650  0.10790  Biso   1.000  H
  H57      1.0000 0.59400  0.44650  0.10790  Biso   1.000  H
  H58      1.0000 0.40600  0.05350  0.60790  Biso   1.000  H
  H59      1.0000 0.40600  0.94650  0.39210  Biso   1.000  H
  H60      1.0000 0.59400  0.55350  0.89210  Biso   1.000  H
  H61      1.0000 0.09400  0.94650  0.10790  Biso   1.000  H
  H62      1.0000 0.90600  0.55350  0.60790  Biso   1.000  H
  H63      1.0000 0.90600  0.44650  0.39210  Biso   1.000  H
  H64      1.0000 0.09400  0.05350  0.89210  Biso   1.000  H
