data_image0
_cell_length_a       3.941
_cell_length_b       8.543
_cell_length_c       8.947
_cell_angle_alpha    90.347
_cell_angle_beta     94.816
_cell_angle_gamma    94.578

_symmetry_space_group_name_H-M    "P 1"
_symmetry_int_tables_number       1

loop_
  _symmetry_equiv_pos_as_xyz
  'x, y, z'

loop_
  _atom_site_label
  _atom_site_occupancy
  _atom_site_fract_x
  _atom_site_fract_y
  _atom_site_fract_z
  _atom_site_thermal_displace_type
  _atom_site_B_iso_or_equiv
  _atom_site_type_symbol
  Br1      1.0000 0.48794  0.27720  0.22954  Biso   1.000  Br
  Br2      1.0000 0.51206  0.72280  0.77046  Biso   1.000  Br
  Cu1      1.0000 0.92877  0.14396  0.11277  Biso   1.000  Cu
  Cu2      1.0000 0.07123  0.85604  0.88723  Biso   1.000  Cu
  N1       1.0000 0.94740  0.18850  0.89340  Biso   1.000  N
  N2       1.0000 0.05260  0.81150  0.10660  Biso   1.000  N
  N3       1.0000 0.06940  0.07800  0.80950  Biso   1.000  N
  N4       1.0000 0.93060  0.92200  0.19050  Biso   1.000  N
  C1       1.0000 0.88530  0.32560  0.83320  Biso   1.000  C
  C2       1.0000 0.11470  0.67440  0.16680  Biso   1.000  C
  C3       1.0000 0.94620  0.36300  0.68780  Biso   1.000  C
  C4       1.0000 0.05380  0.63700  0.31220  Biso   1.000  C
  C5       1.0000 0.13660  0.11190  0.67030  Biso   1.000  C
  C6       1.0000 0.86340  0.88810  0.32970  Biso   1.000  C
  C7       1.0000 0.07790  0.25280  0.60290  Biso   1.000  C
  C8       1.0000 0.92210  0.74720  0.39710  Biso   1.000  C
