data_image0
_cell_length_a       12.336
_cell_length_b       14.805
_cell_length_c       13.055
_cell_angle_alpha    90
_cell_angle_beta     90
_cell_angle_gamma    90

_symmetry_space_group_name_H-M    "P 1"
_symmetry_int_tables_number       1

loop_
  _symmetry_equiv_pos_as_xyz
  'x, y, z'

loop_
  _atom_site_label
  _atom_site_occupancy
  _atom_site_fract_x
  _atom_site_fract_y
  _atom_site_fract_z
  _atom_site_thermal_displace_type
  _atom_site_B_iso_or_equiv
  _atom_site_type_symbol
  Br1      1.0000 0.30932  0.37211  0.11073  Biso   1.000  Br
  Br2      1.0000 0.80932  0.87211  0.11073  Biso   1.000  Br
  Br3      1.0000 0.69068  0.12789  0.61073  Biso   1.000  Br
  Br4      1.0000 0.69068  0.87211  0.38927  Biso   1.000  Br
  Br5      1.0000 0.30932  0.62789  0.88927  Biso   1.000  Br
  Br6      1.0000 0.19068  0.62789  0.61073  Biso   1.000  Br
  Br7      1.0000 0.19068  0.37211  0.38927  Biso   1.000  Br
  Br8      1.0000 0.80932  0.12789  0.88927  Biso   1.000  Br
  Br9      1.0000 0.69068  0.62789  0.88927  Biso   1.000  Br
  Br10     1.0000 0.19068  0.12789  0.88927  Biso   1.000  Br
  Br11     1.0000 0.30932  0.87211  0.38927  Biso   1.000  Br
  Br12     1.0000 0.30932  0.12789  0.61073  Biso   1.000  Br
  Br13     1.0000 0.69068  0.37211  0.11073  Biso   1.000  Br
  Br14     1.0000 0.80932  0.37211  0.38927  Biso   1.000  Br
  Br15     1.0000 0.80932  0.62789  0.61073  Biso   1.000  Br
  Br16     1.0000 0.19068  0.87211  0.11073  Biso   1.000  Br
  Cu1      1.0000 0.13052  0.37757  0.21183  Biso   1.000  Cu
  Cu2      1.0000 0.63052  0.87757  0.21183  Biso   1.000  Cu
  Cu3      1.0000 0.86948  0.12243  0.71183  Biso   1.000  Cu
  Cu4      1.0000 0.86948  0.87757  0.28817  Biso   1.000  Cu
  Cu5      1.0000 0.13052  0.62243  0.78817  Biso   1.000  Cu
  Cu6      1.0000 0.36948  0.62243  0.71183  Biso   1.000  Cu
  Cu7      1.0000 0.36948  0.37757  0.28817  Biso   1.000  Cu
  Cu8      1.0000 0.63052  0.12243  0.78817  Biso   1.000  Cu
  Cu9      1.0000 0.86948  0.62243  0.78817  Biso   1.000  Cu
  Cu10     1.0000 0.36948  0.12243  0.78817  Biso   1.000  Cu
  Cu11     1.0000 0.13052  0.87757  0.28817  Biso   1.000  Cu
  Cu12     1.0000 0.13052  0.12243  0.71183  Biso   1.000  Cu
  Cu13     1.0000 0.86948  0.37757  0.21183  Biso   1.000  Cu
  Cu14     1.0000 0.63052  0.37757  0.28817  Biso   1.000  Cu
  Cu15     1.0000 0.63052  0.62243  0.71183  Biso   1.000  Cu
  Cu16     1.0000 0.36948  0.87757  0.21183  Biso   1.000  Cu
  N1       1.0000 0.44410  0.48840  0.34350  Biso   1.000  N
  N2       1.0000 0.94410  0.98840  0.34350  Biso   1.000  N
  N3       1.0000 0.55590  0.01160  0.84350  Biso   1.000  N
  N4       1.0000 0.55590  0.98840  0.15650  Biso   1.000  N
  N5       1.0000 0.44410  0.51160  0.65650  Biso   1.000  N
  N6       1.0000 0.05590  0.51160  0.84350  Biso   1.000  N
  N7       1.0000 0.05590  0.48840  0.15650  Biso   1.000  N
  N8       1.0000 0.94410  0.01160  0.65650  Biso   1.000  N
  N9       1.0000 0.55590  0.51160  0.65650  Biso   1.000  N
  N10      1.0000 0.05590  0.01160  0.65650  Biso   1.000  N
  N11      1.0000 0.44410  0.98840  0.15650  Biso   1.000  N
  N12      1.0000 0.44410  0.01160  0.84350  Biso   1.000  N
  N13      1.0000 0.55590  0.48840  0.34350  Biso   1.000  N
  N14      1.0000 0.94410  0.48840  0.15650  Biso   1.000  N
  N15      1.0000 0.94410  0.51160  0.84350  Biso   1.000  N
  N16      1.0000 0.05590  0.98840  0.34350  Biso   1.000  N
  N17      1.0000 0.55610  0.26100  0.32740  Biso   1.000  N
  N18      1.0000 0.05610  0.76100  0.32740  Biso   1.000  N
  N19      1.0000 0.44390  0.23900  0.82740  Biso   1.000  N
  N20      1.0000 0.44390  0.76100  0.17260  Biso   1.000  N
  N21      1.0000 0.55610  0.73900  0.67260  Biso   1.000  N
  N22      1.0000 0.94390  0.73900  0.82740  Biso   1.000  N
  N23      1.0000 0.94390  0.26100  0.17260  Biso   1.000  N
  N24      1.0000 0.05610  0.23900  0.67260  Biso   1.000  N
  N25      1.0000 0.44390  0.73900  0.67260  Biso   1.000  N
  N26      1.0000 0.94390  0.23900  0.67260  Biso   1.000  N
  N27      1.0000 0.55610  0.76100  0.17260  Biso   1.000  N
  N28      1.0000 0.55610  0.23900  0.82740  Biso   1.000  N
  N29      1.0000 0.44390  0.26100  0.32740  Biso   1.000  N
  N30      1.0000 0.05610  0.26100  0.17260  Biso   1.000  N
  N31      1.0000 0.05610  0.73900  0.82740  Biso   1.000  N
  N32      1.0000 0.94390  0.76100  0.32740  Biso   1.000  N
  C1       1.0000 0.60800  0.56010  0.38060  Biso   1.000  C
  C2       1.0000 0.10800  0.06010  0.38060  Biso   1.000  C
  C3       1.0000 0.39200  0.93990  0.88060  Biso   1.000  C
  C4       1.0000 0.39200  0.06010  0.11940  Biso   1.000  C
  C5       1.0000 0.60800  0.43990  0.61940  Biso   1.000  C
  C6       1.0000 0.89200  0.43990  0.88060  Biso   1.000  C
  C7       1.0000 0.89200  0.56010  0.11940  Biso   1.000  C
  C8       1.0000 0.10800  0.93990  0.61940  Biso   1.000  C
  C9       1.0000 0.39200  0.43990  0.61940  Biso   1.000  C
  C10      1.0000 0.89200  0.93990  0.61940  Biso   1.000  C
  C11      1.0000 0.60800  0.06010  0.11940  Biso   1.000  C
  C12      1.0000 0.60800  0.93990  0.88060  Biso   1.000  C
  C13      1.0000 0.39200  0.56010  0.38060  Biso   1.000  C
  C14      1.0000 0.10800  0.56010  0.11940  Biso   1.000  C
  C15      1.0000 0.10800  0.43990  0.88060  Biso   1.000  C
  C16      1.0000 0.89200  0.06010  0.38060  Biso   1.000  C
  H1       1.0000 0.68340  0.55910  0.38110  Biso   1.000  H
  H2       1.0000 0.18340  0.05910  0.38110  Biso   1.000  H
  H3       1.0000 0.31660  0.94090  0.88110  Biso   1.000  H
  H4       1.0000 0.31660  0.05910  0.11890  Biso   1.000  H
  H5       1.0000 0.68340  0.44090  0.61890  Biso   1.000  H
  H6       1.0000 0.81660  0.44090  0.88110  Biso   1.000  H
  H7       1.0000 0.81660  0.55910  0.11890  Biso   1.000  H
  H8       1.0000 0.18340  0.94090  0.61890  Biso   1.000  H
  H9       1.0000 0.31660  0.44090  0.61890  Biso   1.000  H
  H10      1.0000 0.81660  0.94090  0.61890  Biso   1.000  H
  H11      1.0000 0.68340  0.05910  0.11890  Biso   1.000  H
  H12      1.0000 0.68340  0.94090  0.88110  Biso   1.000  H
  H13      1.0000 0.31660  0.55910  0.38110  Biso   1.000  H
  H14      1.0000 0.18340  0.55910  0.11890  Biso   1.000  H
  H15      1.0000 0.18340  0.44090  0.88110  Biso   1.000  H
  H16      1.0000 0.81660  0.05910  0.38110  Biso   1.000  H
  C17      1.0000 0.55580  0.63690  0.41890  Biso   1.000  C
  C18      1.0000 0.05580  0.13690  0.41890  Biso   1.000  C
  C19      1.0000 0.44420  0.86310  0.91890  Biso   1.000  C
  C20      1.0000 0.44420  0.13690  0.08110  Biso   1.000  C
  C21      1.0000 0.55580  0.36310  0.58110  Biso   1.000  C
  C22      1.0000 0.94420  0.36310  0.91890  Biso   1.000  C
  C23      1.0000 0.94420  0.63690  0.08110  Biso   1.000  C
  C24      1.0000 0.05580  0.86310  0.58110  Biso   1.000  C
  C25      1.0000 0.44420  0.36310  0.58110  Biso   1.000  C
  C26      1.0000 0.94420  0.86310  0.58110  Biso   1.000  C
  C27      1.0000 0.55580  0.13690  0.08110  Biso   1.000  C
  C28      1.0000 0.55580  0.86310  0.91890  Biso   1.000  C
  C29      1.0000 0.44420  0.63690  0.41890  Biso   1.000  C
  C30      1.0000 0.05580  0.63690  0.08110  Biso   1.000  C
  C31      1.0000 0.05580  0.36310  0.91890  Biso   1.000  C
  C32      1.0000 0.94420  0.13690  0.41890  Biso   1.000  C
  H17      1.0000 0.40510  0.68600  0.44340  Biso   1.000  H
  H18      1.0000 0.90510  0.18600  0.44340  Biso   1.000  H
  H19      1.0000 0.59490  0.81400  0.94340  Biso   1.000  H
  H20      1.0000 0.59490  0.18600  0.05660  Biso   1.000  H
  H21      1.0000 0.40510  0.31400  0.55660  Biso   1.000  H
  H22      1.0000 0.09490  0.31400  0.94340  Biso   1.000  H
  H23      1.0000 0.09490  0.68600  0.05660  Biso   1.000  H
  H24      1.0000 0.90510  0.81400  0.55660  Biso   1.000  H
  H25      1.0000 0.59490  0.31400  0.55660  Biso   1.000  H
  H26      1.0000 0.09490  0.81400  0.55660  Biso   1.000  H
  H27      1.0000 0.40510  0.18600  0.05660  Biso   1.000  H
  H28      1.0000 0.40510  0.81400  0.94340  Biso   1.000  H
  H29      1.0000 0.59490  0.68600  0.44340  Biso   1.000  H
  H30      1.0000 0.90510  0.68600  0.05660  Biso   1.000  H
  H31      1.0000 0.90510  0.31400  0.94340  Biso   1.000  H
  H32      1.0000 0.09490  0.18600  0.44340  Biso   1.000  H
  C33      1.0000 0.39310  0.18540  0.35150  Biso   1.000  C
  C34      1.0000 0.89310  0.68540  0.35150  Biso   1.000  C
  C35      1.0000 0.60690  0.31460  0.85150  Biso   1.000  C
  C36      1.0000 0.60690  0.68540  0.14850  Biso   1.000  C
  C37      1.0000 0.39310  0.81460  0.64850  Biso   1.000  C
  C38      1.0000 0.10690  0.81460  0.85150  Biso   1.000  C
  C39      1.0000 0.10690  0.18540  0.14850  Biso   1.000  C
  C40      1.0000 0.89310  0.31460  0.64850  Biso   1.000  C
  C41      1.0000 0.60690  0.81460  0.64850  Biso   1.000  C
  C42      1.0000 0.10690  0.31460  0.64850  Biso   1.000  C
  C43      1.0000 0.39310  0.68540  0.14850  Biso   1.000  C
  C44      1.0000 0.39310  0.31460  0.85150  Biso   1.000  C
  C45      1.0000 0.60690  0.18540  0.35150  Biso   1.000  C
  C46      1.0000 0.89310  0.18540  0.14850  Biso   1.000  C
  C47      1.0000 0.89310  0.81460  0.85150  Biso   1.000  C
  C48      1.0000 0.10690  0.68540  0.35150  Biso   1.000  C
  H33      1.0000 0.31770  0.18610  0.35170  Biso   1.000  H
  H34      1.0000 0.81770  0.68610  0.35170  Biso   1.000  H
  H35      1.0000 0.68230  0.31390  0.85170  Biso   1.000  H
  H36      1.0000 0.68230  0.68610  0.14830  Biso   1.000  H
  H37      1.0000 0.31770  0.81390  0.64830  Biso   1.000  H
  H38      1.0000 0.18230  0.81390  0.85170  Biso   1.000  H
  H39      1.0000 0.18230  0.18610  0.14830  Biso   1.000  H
  H40      1.0000 0.81770  0.31390  0.64830  Biso   1.000  H
  H41      1.0000 0.68230  0.81390  0.64830  Biso   1.000  H
  H42      1.0000 0.18230  0.31390  0.64830  Biso   1.000  H
  H43      1.0000 0.31770  0.68610  0.14830  Biso   1.000  H
  H44      1.0000 0.31770  0.31390  0.85170  Biso   1.000  H
  H45      1.0000 0.68230  0.18610  0.35170  Biso   1.000  H
  H46      1.0000 0.81770  0.18610  0.14830  Biso   1.000  H
  H47      1.0000 0.81770  0.81390  0.85170  Biso   1.000  H
  H48      1.0000 0.18230  0.68610  0.35170  Biso   1.000  H
  C49      1.0000 0.44320  0.10640  0.37630  Biso   1.000  C
  C50      1.0000 0.94320  0.60640  0.37630  Biso   1.000  C
  C51      1.0000 0.55680  0.39360  0.87630  Biso   1.000  C
  C52      1.0000 0.55680  0.60640  0.12370  Biso   1.000  C
  C53      1.0000 0.44320  0.89360  0.62370  Biso   1.000  C
  C54      1.0000 0.05680  0.89360  0.87630  Biso   1.000  C
  C55      1.0000 0.05680  0.10640  0.12370  Biso   1.000  C
  C56      1.0000 0.94320  0.39360  0.62370  Biso   1.000  C
  C57      1.0000 0.55680  0.89360  0.62370  Biso   1.000  C
  C58      1.0000 0.05680  0.39360  0.62370  Biso   1.000  C
  C59      1.0000 0.44320  0.60640  0.12370  Biso   1.000  C
  C60      1.0000 0.44320  0.39360  0.87630  Biso   1.000  C
  C61      1.0000 0.55680  0.10640  0.37630  Biso   1.000  C
  C62      1.0000 0.94320  0.10640  0.12370  Biso   1.000  C
  C63      1.0000 0.94320  0.89360  0.87630  Biso   1.000  C
  C64      1.0000 0.05680  0.60640  0.37630  Biso   1.000  C
  H49      1.0000 0.59620  0.05470  0.39250  Biso   1.000  H
  H50      1.0000 0.09620  0.55470  0.39250  Biso   1.000  H
  H51      1.0000 0.40380  0.44530  0.89250  Biso   1.000  H
  H52      1.0000 0.40380  0.55470  0.10750  Biso   1.000  H
  H53      1.0000 0.59620  0.94530  0.60750  Biso   1.000  H
  H54      1.0000 0.90380  0.94530  0.89250  Biso   1.000  H
  H55      1.0000 0.90380  0.05470  0.10750  Biso   1.000  H
  H56      1.0000 0.09620  0.44530  0.60750  Biso   1.000  H
  H57      1.0000 0.40380  0.94530  0.60750  Biso   1.000  H
  H58      1.0000 0.90380  0.44530  0.60750  Biso   1.000  H
  H59      1.0000 0.59620  0.55470  0.10750  Biso   1.000  H
  H60      1.0000 0.59620  0.44530  0.89250  Biso   1.000  H
  H61      1.0000 0.40380  0.05470  0.39250  Biso   1.000  H
  H62      1.0000 0.09620  0.05470  0.10750  Biso   1.000  H
  H63      1.0000 0.09620  0.94530  0.89250  Biso   1.000  H
  H64      1.0000 0.90380  0.55470  0.39250  Biso   1.000  H
