data_image0
_cell_length_a       3.7561
_cell_length_b       8.42
_cell_length_c       8.906
_cell_angle_alpha    90.446
_cell_angle_beta     93.891
_cell_angle_gamma    92.284

_symmetry_space_group_name_H-M    "P 1"
_symmetry_int_tables_number       1

loop_
  _symmetry_equiv_pos_as_xyz
  'x, y, z'

loop_
  _atom_site_label
  _atom_site_occupancy
  _atom_site_fract_x
  _atom_site_fract_y
  _atom_site_fract_z
  _atom_site_thermal_displace_type
  _atom_site_B_iso_or_equiv
  _atom_site_type_symbol
  Cu1      1.0000 0.93011  0.15127  0.11317  Biso   1.000  Cu
  Cu2      1.0000 0.06989  0.84873  0.88683  Biso   1.000  Cu
  Cl1      1.0000 0.47210  0.27746  0.22592  Biso   1.000  Cl
  Cl2      1.0000 0.52790  0.72254  0.77408  Biso   1.000  Cl
  N1       1.0000 0.95710  0.19220  0.89280  Biso   1.000  N
  N2       1.0000 0.04290  0.80780  0.10720  Biso   1.000  N
  N3       1.0000 0.07670  0.07420  0.80850  Biso   1.000  N
  N4       1.0000 0.92330  0.92580  0.19150  Biso   1.000  N
  C1       1.0000 0.91610  0.33450  0.83240  Biso   1.000  C
  C2       1.0000 0.08390  0.66550  0.16760  Biso   1.000  C
  C3       1.0000 0.15440  0.10520  0.66820  Biso   1.000  C
  C4       1.0000 0.84560  0.89480  0.33180  Biso   1.000  C
  C5       1.0000 0.98850  0.36920  0.68590  Biso   1.000  C
  C6       1.0000 0.01150  0.63080  0.31410  Biso   1.000  C
  C7       1.0000 0.11430  0.25060  0.60120  Biso   1.000  C
  C8       1.0000 0.88570  0.74940  0.39880  Biso   1.000  C
