data_image0
_cell_length_a       14.018
_cell_length_b       7.2333
_cell_length_c       17.136
_cell_angle_alpha    90
_cell_angle_beta     90
_cell_angle_gamma    90

_symmetry_space_group_name_H-M    "P 1"
_symmetry_int_tables_number       1

loop_
  _symmetry_equiv_pos_as_xyz
  'x, y, z'

loop_
  _atom_site_label
  _atom_site_occupancy
  _atom_site_fract_x
  _atom_site_fract_y
  _atom_site_fract_z
  _atom_site_thermal_displace_type
  _atom_site_B_iso_or_equiv
  _atom_site_type_symbol
  I1       1.0000 0.82387  0.18785  0.39291  Biso   1.000  I
  I2       1.0000 0.32387  0.18785  0.10709  Biso   1.000  I
  I3       1.0000 0.82387  0.31215  0.89291  Biso   1.000  I
  I4       1.0000 0.67613  0.68785  0.39291  Biso   1.000  I
  I5       1.0000 0.17613  0.81215  0.60709  Biso   1.000  I
  I6       1.0000 0.67613  0.81215  0.89291  Biso   1.000  I
  I7       1.0000 0.17613  0.68785  0.10709  Biso   1.000  I
  I8       1.0000 0.32387  0.31215  0.60709  Biso   1.000  I
  I9       1.0000 0.99557  0.68700  0.39839  Biso   1.000  I
  I10      1.0000 0.49557  0.68700  0.10161  Biso   1.000  I
  I11      1.0000 0.99557  0.81300  0.89839  Biso   1.000  I
  I12      1.0000 0.50443  0.18700  0.39839  Biso   1.000  I
  I13      1.0000 0.00443  0.31300  0.60161  Biso   1.000  I
  I14      1.0000 0.50443  0.31300  0.89839  Biso   1.000  I
  I15      1.0000 0.00443  0.18700  0.10161  Biso   1.000  I
  I16      1.0000 0.49557  0.81300  0.60161  Biso   1.000  I
  N1       1.0000 0.83560  0.85660  0.56030  Biso   1.000  N
  N2       1.0000 0.33560  0.85660  0.93970  Biso   1.000  N
  N3       1.0000 0.83560  0.64340  0.06030  Biso   1.000  N
  N4       1.0000 0.66440  0.35660  0.56030  Biso   1.000  N
  N5       1.0000 0.16440  0.14340  0.43970  Biso   1.000  N
  N6       1.0000 0.66440  0.14340  0.06030  Biso   1.000  N
  N7       1.0000 0.16440  0.35660  0.93970  Biso   1.000  N
  N8       1.0000 0.33560  0.64340  0.43970  Biso   1.000  N
  N9       1.0000 0.91480  0.80920  0.60210  Biso   1.000  N
  N10      1.0000 0.41480  0.80920  0.89790  Biso   1.000  N
  N11      1.0000 0.91480  0.69080  0.10210  Biso   1.000  N
  N12      1.0000 0.58520  0.30920  0.60210  Biso   1.000  N
  N13      1.0000 0.08520  0.19080  0.39790  Biso   1.000  N
  N14      1.0000 0.58520  0.19080  0.10210  Biso   1.000  N
  N15      1.0000 0.08520  0.30920  0.89790  Biso   1.000  N
  N16      1.0000 0.41480  0.69080  0.39790  Biso   1.000  N
  C1       1.0000 0.91520  0.84960  0.67880  Biso   1.000  C
  C2       1.0000 0.41520  0.84960  0.82120  Biso   1.000  C
  C3       1.0000 0.91520  0.65040  0.17880  Biso   1.000  C
  C4       1.0000 0.58480  0.34960  0.67880  Biso   1.000  C
  C5       1.0000 0.08480  0.15040  0.32120  Biso   1.000  C
  C6       1.0000 0.58480  0.15040  0.17880  Biso   1.000  C
  C7       1.0000 0.08480  0.34960  0.82120  Biso   1.000  C
  C8       1.0000 0.41520  0.65040  0.32120  Biso   1.000  C
  H1       1.0000 0.96930  0.81860  0.70730  Biso   1.000  H
  H2       1.0000 0.46930  0.81860  0.79270  Biso   1.000  H
  H3       1.0000 0.96930  0.68140  0.20730  Biso   1.000  H
  H4       1.0000 0.53070  0.31860  0.70730  Biso   1.000  H
  H5       1.0000 0.03070  0.18140  0.29270  Biso   1.000  H
  H6       1.0000 0.53070  0.18140  0.20730  Biso   1.000  H
  H7       1.0000 0.03070  0.31860  0.79270  Biso   1.000  H
  H8       1.0000 0.46930  0.68140  0.29270  Biso   1.000  H
  C9       1.0000 0.84190  0.93270  0.71770  Biso   1.000  C
  C10      1.0000 0.34190  0.93270  0.78230  Biso   1.000  C
  C11      1.0000 0.84190  0.56730  0.21770  Biso   1.000  C
  C12      1.0000 0.65810  0.43270  0.71770  Biso   1.000  C
  C13      1.0000 0.15810  0.06730  0.28230  Biso   1.000  C
  C14      1.0000 0.65810  0.06730  0.21770  Biso   1.000  C
  C15      1.0000 0.15810  0.43270  0.78230  Biso   1.000  C
  C16      1.0000 0.34190  0.56730  0.28230  Biso   1.000  C
  H9       1.0000 0.84700  0.96070  0.77050  Biso   1.000  H
  H10      1.0000 0.34700  0.96070  0.72950  Biso   1.000  H
  H11      1.0000 0.84700  0.53930  0.27050  Biso   1.000  H
  H12      1.0000 0.65300  0.46070  0.77050  Biso   1.000  H
  H13      1.0000 0.15300  0.03930  0.22950  Biso   1.000  H
  H14      1.0000 0.65300  0.03930  0.27050  Biso   1.000  H
  H15      1.0000 0.15300  0.46070  0.72950  Biso   1.000  H
  H16      1.0000 0.34700  0.53930  0.22950  Biso   1.000  H
  C17      1.0000 0.76310  0.97250  0.67830  Biso   1.000  C
  C18      1.0000 0.26310  0.97250  0.82170  Biso   1.000  C
  C19      1.0000 0.76310  0.52750  0.17830  Biso   1.000  C
  C20      1.0000 0.73690  0.47250  0.67830  Biso   1.000  C
  C21      1.0000 0.23690  0.02750  0.32170  Biso   1.000  C
  C22      1.0000 0.73690  0.02750  0.17830  Biso   1.000  C
  C23      1.0000 0.23690  0.47250  0.82170  Biso   1.000  C
  C24      1.0000 0.26310  0.52750  0.32170  Biso   1.000  C
  H17      1.0000 0.71040  0.02270  0.70340  Biso   1.000  H
  H18      1.0000 0.21040  0.02270  0.79660  Biso   1.000  H
  H19      1.0000 0.71040  0.47730  0.20340  Biso   1.000  H
  H20      1.0000 0.78960  0.52270  0.70340  Biso   1.000  H
  H21      1.0000 0.28960  0.97730  0.29660  Biso   1.000  H
  H22      1.0000 0.78960  0.97730  0.20340  Biso   1.000  H
  H23      1.0000 0.28960  0.52270  0.79660  Biso   1.000  H
  H24      1.0000 0.21040  0.47730  0.29660  Biso   1.000  H
  C25      1.0000 0.76110  0.93670  0.59660  Biso   1.000  C
  C26      1.0000 0.26110  0.93670  0.90340  Biso   1.000  C
  C27      1.0000 0.76110  0.56330  0.09660  Biso   1.000  C
  C28      1.0000 0.73890  0.43670  0.59660  Biso   1.000  C
  C29      1.0000 0.23890  0.06330  0.40340  Biso   1.000  C
  C30      1.0000 0.73890  0.06330  0.09660  Biso   1.000  C
  C31      1.0000 0.23890  0.43670  0.90340  Biso   1.000  C
  C32      1.0000 0.26110  0.56330  0.40340  Biso   1.000  C
  H25      1.0000 0.70740  0.96910  0.56780  Biso   1.000  H
  H26      1.0000 0.20740  0.96910  0.93220  Biso   1.000  H
  H27      1.0000 0.70740  0.53090  0.06780  Biso   1.000  H
  H28      1.0000 0.79260  0.46910  0.56780  Biso   1.000  H
  H29      1.0000 0.29260  0.03090  0.43220  Biso   1.000  H
  H30      1.0000 0.79260  0.03090  0.06780  Biso   1.000  H
  H31      1.0000 0.29260  0.46910  0.93220  Biso   1.000  H
  H32      1.0000 0.20740  0.53090  0.43220  Biso   1.000  H
  Cu1      1.0000 0.83539  0.84060  0.44208  Biso   1.000  Cu
  Cu2      1.0000 0.33539  0.84060  0.05792  Biso   1.000  Cu
  Cu3      1.0000 0.83539  0.65940  0.94208  Biso   1.000  Cu
  Cu4      1.0000 0.66461  0.34060  0.44208  Biso   1.000  Cu
  Cu5      1.0000 0.16461  0.15940  0.55792  Biso   1.000  Cu
  Cu6      1.0000 0.66461  0.15940  0.94208  Biso   1.000  Cu
  Cu7      1.0000 0.16461  0.34060  0.05792  Biso   1.000  Cu
  Cu8      1.0000 0.33539  0.65940  0.55792  Biso   1.000  Cu
  Cu9      1.0000 0.97970  0.34050  0.45051  Biso   1.000  Cu
  Cu10     1.0000 0.47970  0.34050  0.04949  Biso   1.000  Cu
  Cu11     1.0000 0.97970  0.15950  0.95051  Biso   1.000  Cu
  Cu12     1.0000 0.52030  0.84050  0.45051  Biso   1.000  Cu
  Cu13     1.0000 0.02030  0.65950  0.54949  Biso   1.000  Cu
  Cu14     1.0000 0.52030  0.65950  0.95051  Biso   1.000  Cu
  Cu15     1.0000 0.02030  0.84050  0.04949  Biso   1.000  Cu
  Cu16     1.0000 0.47970  0.15950  0.54949  Biso   1.000  Cu
