data_image0
_cell_length_a       5.8736
_cell_length_b       17.266
_cell_length_c       12.983
_cell_angle_alpha    90
_cell_angle_beta     93.4
_cell_angle_gamma    90

_symmetry_space_group_name_H-M    "P 1"
_symmetry_int_tables_number       1

loop_
  _symmetry_equiv_pos_as_xyz
  'x, y, z'

loop_
  _atom_site_label
  _atom_site_occupancy
  _atom_site_fract_x
  _atom_site_fract_y
  _atom_site_fract_z
  _atom_site_thermal_displace_type
  _atom_site_B_iso_or_equiv
  _atom_site_type_symbol
  Cu1      1.0000 0.24140  0.40080  0.59167  Biso   1.000  Cu
  Cu2      1.0000 0.74140  0.90080  0.59167  Biso   1.000  Cu
  Cu3      1.0000 0.75860  0.40080  0.90833  Biso   1.000  Cu
  Cu4      1.0000 0.25860  0.90080  0.90833  Biso   1.000  Cu
  Cu5      1.0000 0.75860  0.59920  0.40833  Biso   1.000  Cu
  Cu6      1.0000 0.25860  0.09920  0.40833  Biso   1.000  Cu
  Cu7      1.0000 0.24140  0.59920  0.09167  Biso   1.000  Cu
  Cu8      1.0000 0.74140  0.09920  0.09167  Biso   1.000  Cu
  N1       1.0000 0.05790  0.29160  0.58900  Biso   1.000  N
  N2       1.0000 0.55790  0.79160  0.58900  Biso   1.000  N
  N3       1.0000 0.94210  0.29160  0.91100  Biso   1.000  N
  N4       1.0000 0.44210  0.79160  0.91100  Biso   1.000  N
  N5       1.0000 0.94210  0.70840  0.41100  Biso   1.000  N
  N6       1.0000 0.44210  0.20840  0.41100  Biso   1.000  N
  N7       1.0000 0.05790  0.70840  0.08900  Biso   1.000  N
  N8       1.0000 0.55790  0.20840  0.08900  Biso   1.000  N
  N9       1.0000 0.08640  0.16420  0.52090  Biso   1.000  N
  N10      1.0000 0.58640  0.66420  0.52090  Biso   1.000  N
  N11      1.0000 0.91360  0.16420  0.97910  Biso   1.000  N
  N12      1.0000 0.41360  0.66420  0.97910  Biso   1.000  N
  N13      1.0000 0.91360  0.83580  0.47910  Biso   1.000  N
  N14      1.0000 0.41360  0.33580  0.47910  Biso   1.000  N
  N15      1.0000 0.08640  0.83580  0.02090  Biso   1.000  N
  N16      1.0000 0.58640  0.33580  0.02090  Biso   1.000  N
  C1       1.0000 0.87740  0.26970  0.63870  Biso   1.000  C
  C2       1.0000 0.37740  0.76970  0.63870  Biso   1.000  C
  C3       1.0000 0.12260  0.26970  0.86130  Biso   1.000  C
  C4       1.0000 0.62260  0.76970  0.86130  Biso   1.000  C
  C5       1.0000 0.12260  0.73030  0.36130  Biso   1.000  C
  C6       1.0000 0.62260  0.23030  0.36130  Biso   1.000  C
  C7       1.0000 0.87740  0.73030  0.13870  Biso   1.000  C
  C8       1.0000 0.37740  0.23030  0.13870  Biso   1.000  C
  H1       1.0000 0.80020  0.30700  0.67750  Biso   1.000  H
  H2       1.0000 0.30020  0.80700  0.67750  Biso   1.000  H
  H3       1.0000 0.19980  0.30700  0.82250  Biso   1.000  H
  H4       1.0000 0.69980  0.80700  0.82250  Biso   1.000  H
  H5       1.0000 0.19980  0.69300  0.32250  Biso   1.000  H
  H6       1.0000 0.69980  0.19300  0.32250  Biso   1.000  H
  H7       1.0000 0.80020  0.69300  0.17750  Biso   1.000  H
  H8       1.0000 0.30020  0.19300  0.17750  Biso   1.000  H
  C9       1.0000 0.79880  0.19460  0.63550  Biso   1.000  C
  C10      1.0000 0.29880  0.69460  0.63550  Biso   1.000  C
  C11      1.0000 0.20120  0.19460  0.86450  Biso   1.000  C
  C12      1.0000 0.70120  0.69460  0.86450  Biso   1.000  C
  C13      1.0000 0.20120  0.80540  0.36450  Biso   1.000  C
  C14      1.0000 0.70120  0.30540  0.36450  Biso   1.000  C
  C15      1.0000 0.79880  0.80540  0.13550  Biso   1.000  C
  C16      1.0000 0.29880  0.30540  0.13550  Biso   1.000  C
  H9       1.0000 0.67230  0.17890  0.67280  Biso   1.000  H
  H10      1.0000 0.17230  0.67890  0.67280  Biso   1.000  H
  H11      1.0000 0.32770  0.17890  0.82720  Biso   1.000  H
  H12      1.0000 0.82770  0.67890  0.82720  Biso   1.000  H
  H13      1.0000 0.32770  0.82110  0.32720  Biso   1.000  H
  H14      1.0000 0.82770  0.32110  0.32720  Biso   1.000  H
  H15      1.0000 0.67230  0.82110  0.17280  Biso   1.000  H
  H16      1.0000 0.17230  0.32110  0.17280  Biso   1.000  H
  C17      1.0000 0.91170  0.14310  0.57570  Biso   1.000  C
  C18      1.0000 0.41170  0.64310  0.57570  Biso   1.000  C
  C19      1.0000 0.08830  0.14310  0.92430  Biso   1.000  C
  C20      1.0000 0.58830  0.64310  0.92430  Biso   1.000  C
  C21      1.0000 0.08830  0.85690  0.42430  Biso   1.000  C
  C22      1.0000 0.58830  0.35690  0.42430  Biso   1.000  C
  C23      1.0000 0.91170  0.85690  0.07570  Biso   1.000  C
  C24      1.0000 0.41170  0.35690  0.07570  Biso   1.000  C
  H17      1.0000 0.86340  0.09060  0.57340  Biso   1.000  H
  H18      1.0000 0.36340  0.59060  0.57340  Biso   1.000  H
  H19      1.0000 0.13660  0.09060  0.92660  Biso   1.000  H
  H20      1.0000 0.63660  0.59060  0.92660  Biso   1.000  H
  H21      1.0000 0.13660  0.90940  0.42660  Biso   1.000  H
  H22      1.0000 0.63660  0.40940  0.42660  Biso   1.000  H
  H23      1.0000 0.86340  0.90940  0.07340  Biso   1.000  H
  H24      1.0000 0.36340  0.40940  0.07340  Biso   1.000  H
  C25      1.0000 0.15230  0.23720  0.52920  Biso   1.000  C
  C26      1.0000 0.65230  0.73720  0.52920  Biso   1.000  C
  C27      1.0000 0.84770  0.23720  0.97080  Biso   1.000  C
  C28      1.0000 0.34770  0.73720  0.97080  Biso   1.000  C
  C29      1.0000 0.84770  0.76280  0.47080  Biso   1.000  C
  C30      1.0000 0.34770  0.26280  0.47080  Biso   1.000  C
  C31      1.0000 0.15230  0.76280  0.02920  Biso   1.000  C
  C32      1.0000 0.65230  0.26280  0.02920  Biso   1.000  C
  C33      1.0000 0.43620  0.40610  0.71360  Biso   1.000  C
  C34      1.0000 0.93620  0.90610  0.71360  Biso   1.000  C
  C35      1.0000 0.56380  0.40610  0.78640  Biso   1.000  C
  C36      1.0000 0.06380  0.90610  0.78640  Biso   1.000  C
  C37      1.0000 0.56380  0.59390  0.28640  Biso   1.000  C
  C38      1.0000 0.06380  0.09390  0.28640  Biso   1.000  C
  C39      1.0000 0.43620  0.59390  0.21360  Biso   1.000  C
  C40      1.0000 0.93620  0.09390  0.21360  Biso   1.000  C
  N17      1.0000 0.44300  0.02270  0.47780  Biso   1.000  N
  N18      1.0000 0.94300  0.52270  0.47780  Biso   1.000  N
  N19      1.0000 0.55700  0.02270  0.02220  Biso   1.000  N
  N20      1.0000 0.05700  0.52270  0.02220  Biso   1.000  N
  N21      1.0000 0.55700  0.97730  0.52220  Biso   1.000  N
  N22      1.0000 0.05700  0.47730  0.52220  Biso   1.000  N
  N23      1.0000 0.44300  0.97730  0.97780  Biso   1.000  N
  N24      1.0000 0.94300  0.47730  0.97780  Biso   1.000  N
  N25      1.0000 0.00000  0.56500  0.75000  Biso   1.000  N
  N26      1.0000 0.50000  0.06500  0.75000  Biso   1.000  N
  N27      1.0000 0.00000  0.43500  0.25000  Biso   1.000  N
  N28      1.0000 0.50000  0.93500  0.25000  Biso   1.000  N
