data_image0
_cell_length_a       10.357
_cell_length_b       12.884
_cell_length_c       15.307
_cell_angle_alpha    112.97
_cell_angle_beta     98.94
_cell_angle_gamma    101.66

_symmetry_space_group_name_H-M    "P 1"
_symmetry_int_tables_number       1

loop_
  _symmetry_equiv_pos_as_xyz
  'x, y, z'

loop_
  _atom_site_label
  _atom_site_occupancy
  _atom_site_fract_x
  _atom_site_fract_y
  _atom_site_fract_z
  _atom_site_thermal_displace_type
  _atom_site_B_iso_or_equiv
  _atom_site_type_symbol
  Mo1      1.0000 0.08943  0.93187  0.41585  Biso   1.000  Mo
  Mo2      1.0000 0.91057  0.06813  0.58415  Biso   1.000  Mo
  Mo3      1.0000 0.73743  0.83365  0.39211  Biso   1.000  Mo
  Mo4      1.0000 0.26257  0.16635  0.60789  Biso   1.000  Mo
  Mo5      1.0000 0.98703  0.80516  0.54540  Biso   1.000  Mo
  Mo6      1.0000 0.01297  0.19484  0.45460  Biso   1.000  Mo
  Mo7      1.0000 0.16250  0.04209  0.74387  Biso   1.000  Mo
  Mo8      1.0000 0.83750  0.95791  0.25613  Biso   1.000  Mo
  O1       1.0000 0.02110  0.89260  0.68150  Biso   1.000  O
  O2       1.0000 0.97890  0.10740  0.31850  Biso   1.000  O
  O3       1.0000 0.83890  0.90450  0.13350  Biso   1.000  O
  O4       1.0000 0.16110  0.09550  0.86650  Biso   1.000  O
  O5       1.0000 0.95140  0.80110  0.41250  Biso   1.000  O
  O6       1.0000 0.04860  0.19890  0.58750  Biso   1.000  O
  O7       1.0000 0.66850  0.68990  0.36750  Biso   1.000  O
  O8       1.0000 0.33150  0.31010  0.63250  Biso   1.000  O
  O9       1.0000 0.17510  0.09900  0.46540  Biso   1.000  O
  O10      1.0000 0.82490  0.90100  0.53460  Biso   1.000  O
  O11      1.0000 0.22870  0.88170  0.41540  Biso   1.000  O
  O12      1.0000 0.77130  0.11830  0.58460  Biso   1.000  O
  O13      1.0000 0.76030  0.81880  0.26880  Biso   1.000  O
  O14      1.0000 0.23970  0.18120  0.73120  Biso   1.000  O
  O15      1.0000 0.09790  0.99230  0.56730  Biso   1.000  O
  O16      1.0000 0.90210  0.00770  0.43270  Biso   1.000  O
  O17      1.0000 0.02610  0.90360  0.29460  Biso   1.000  O
  O18      1.0000 0.97390  0.09640  0.70540  Biso   1.000  O
  O19      1.0000 0.12880  0.75880  0.53470  Biso   1.000  O
  O20      1.0000 0.87120  0.24120  0.46530  Biso   1.000  O
  O21      1.0000 0.86540  0.68260  0.52510  Biso   1.000  O
  O22      1.0000 0.13460  0.31740  0.47490  Biso   1.000  O
  O23      1.0000 0.60590  0.89370  0.40200  Biso   1.000  O
  O24      1.0000 0.39410  0.10630  0.59800  Biso   1.000  O
  O25      1.0000 0.69810  0.01340  0.26390  Biso   1.000  O
  O26      1.0000 0.30190  0.98660  0.73610  Biso   1.000  O
  Cu1      1.0000 0.15366  0.55815  0.49333  Biso   1.000  Cu
  Cu2      1.0000 0.84634  0.44185  0.50667  Biso   1.000  Cu
  N1       1.0000 0.25740  0.61750  0.62410  Biso   1.000  N
  N2       1.0000 0.74260  0.38250  0.37590  Biso   1.000  N
  N3       1.0000 0.38700  0.73910  0.76800  Biso   1.000  N
  N4       1.0000 0.61300  0.26090  0.23200  Biso   1.000  N
  N5       1.0000 0.39890  0.63120  0.75630  Biso   1.000  N
  N6       1.0000 0.60110  0.36880  0.24370  Biso   1.000  N
  N7       1.0000 0.05960  0.48990  0.36000  Biso   1.000  N
  N8       1.0000 0.94040  0.51010  0.64000  Biso   1.000  N
  N9       1.0000 0.94060  0.45500  0.21790  Biso   1.000  N
  N10      1.0000 0.05940  0.54500  0.78210  Biso   1.000  N
  N11      1.0000 0.97470  0.35670  0.20360  Biso   1.000  N
  N12      1.0000 0.02530  0.64330  0.79640  Biso   1.000  N
  C1       1.0000 0.30390  0.72970  0.68980  Biso   1.000  C
  C2       1.0000 0.69610  0.27030  0.31020  Biso   1.000  C
  H1       1.0000 0.28050  0.79330  0.68130  Biso   1.000  H
  H2       1.0000 0.71950  0.20670  0.31870  Biso   1.000  H
  C3       1.0000 0.31790  0.56230  0.66930  Biso   1.000  C
  C4       1.0000 0.68210  0.43770  0.33070  Biso   1.000  C
  H3       1.0000 0.30270  0.47940  0.64000  Biso   1.000  H
  H4       1.0000 0.69730  0.52060  0.36000  Biso   1.000  H
  C5       1.0000 0.46520  0.84570  0.85680  Biso   1.000  C
  C6       1.0000 0.53480  0.15430  0.14320  Biso   1.000  C
  H5       1.0000 0.45970  0.91570  0.84590  Biso   1.000  H
  H6       1.0000 0.54030  0.08430  0.15410  Biso   1.000  H
  H7       1.0000 0.56230  0.84710  0.87010  Biso   1.000  H
  H8       1.0000 0.43770  0.15290  0.12990  Biso   1.000  H
  C7       1.0000 0.41370  0.85230  0.94440  Biso   1.000  C
  C8       1.0000 0.58630  0.14770  0.05560  Biso   1.000  C
  C9       1.0000 0.30020  0.88930  0.95980  Biso   1.000  C
  C10      1.0000 0.69980  0.11070  0.04020  Biso   1.000  C
  H9       1.0000 0.24960  0.90760  0.91320  Biso   1.000  H
  H10      1.0000 0.75040  0.09240  0.08680  Biso   1.000  H
  C11      1.0000 0.48530  0.82500  0.01350  Biso   1.000  C
  C12      1.0000 0.51470  0.17500  0.98650  Biso   1.000  C
  H11      1.0000 0.56380  0.79970  0.00280  Biso   1.000  H
  H12      1.0000 0.43620  0.20030  0.99720  Biso   1.000  H
  C13      1.0000 0.44480  0.83390  0.09600  Biso   1.000  C
  C14      1.0000 0.55520  0.16610  0.90400  Biso   1.000  C
  H13      1.0000 0.49370  0.81350  0.14170  Biso   1.000  H
  H14      1.0000 0.50630  0.18650  0.85830  Biso   1.000  H
  C15      1.0000 0.26030  0.89970  0.04650  Biso   1.000  C
  C16      1.0000 0.73970  0.10030  0.95350  Biso   1.000  C
  H15      1.0000 0.18240  0.92560  0.05860  Biso   1.000  H
  H16      1.0000 0.81760  0.07440  0.94140  Biso   1.000  H
  C17      1.0000 0.33300  0.87260  0.11280  Biso   1.000  C
  C18      1.0000 0.66700  0.12740  0.88720  Biso   1.000  C
  C19      1.0000 0.29250  0.89070  0.20780  Biso   1.000  C
  C20      1.0000 0.70750  0.10930  0.79220  Biso   1.000  C
  H17      1.0000 0.19330  0.85340  0.19270  Biso   1.000  H
  H18      1.0000 0.80670  0.14660  0.80730  Biso   1.000  H
  H19      1.0000 0.34140  0.85210  0.24100  Biso   1.000  H
  H20      1.0000 0.65860  0.14790  0.75900  Biso   1.000  H
  C21      1.0000 0.98940  0.53420  0.31130  Biso   1.000  C
  C22      1.0000 0.01060  0.46580  0.68870  Biso   1.000  C
  H21      1.0000 0.97600  0.61000  0.33840  Biso   1.000  H
  H22      1.0000 0.02400  0.39000  0.66160  Biso   1.000  H
  C23      1.0000 0.04680  0.38060  0.29120  Biso   1.000  C
  C24      1.0000 0.95320  0.61940  0.70880  Biso   1.000  C
  H23      1.0000 0.08620  0.32650  0.30500  Biso   1.000  H
  H24      1.0000 0.91380  0.67350  0.69500  Biso   1.000  H
  C25      1.0000 0.85240  0.46480  0.13760  Biso   1.000  C
  C26      1.0000 0.14760  0.53520  0.86240  Biso   1.000  C
  H25      1.0000 0.81480  0.53180  0.16570  Biso   1.000  H
  H26      1.0000 0.18520  0.46820  0.83430  Biso   1.000  H
  H27      1.0000 0.77490  0.39210  0.10170  Biso   1.000  H
  H28      1.0000 0.22510  0.60790  0.89830  Biso   1.000  H
  C27      1.0000 0.93030  0.48300  0.06690  Biso   1.000  C
  C28      1.0000 0.06970  0.51700  0.93310  Biso   1.000  C
  C29      1.0000 0.95840  0.38940  0.99650  Biso   1.000  C
  C30      1.0000 0.04160  0.61060  0.00350  Biso   1.000  C
  H29      1.0000 0.93040  0.31310  0.99390  Biso   1.000  H
  H30      1.0000 0.06960  0.68690  0.00610  Biso   1.000  H
  C31      1.0000 0.97350  0.59410  0.06980  Biso   1.000  C
  C32      1.0000 0.02650  0.40590  0.93020  Biso   1.000  C
  H31      1.0000 0.95590  0.65930  0.11790  Biso   1.000  H
  H32      1.0000 0.04410  0.34070  0.88210  Biso   1.000  H
  C33      1.0000 0.66880  0.58630  0.89590  Biso   1.000  C
  C34      1.0000 0.33120  0.41370  0.10410  Biso   1.000  C
  H33      1.0000 0.63480  0.64890  0.88690  Biso   1.000  H
  H34      1.0000 0.36520  0.35110  0.11310  Biso   1.000  H
  H35      1.0000 0.76210  0.62490  0.94020  Biso   1.000  H
  H36      1.0000 0.23790  0.37510  0.05980  Biso   1.000  H
  C35      1.0000 0.58150  0.53980  0.94920  Biso   1.000  C
  C36      1.0000 0.41850  0.46020  0.05080  Biso   1.000  C
  C37      1.0000 0.46720  0.44580  0.89900  Biso   1.000  C
  C38      1.0000 0.53280  0.55420  0.10100  Biso   1.000  C
  H37      1.0000 0.44290  0.40900  0.82920  Biso   1.000  H
  H38      1.0000 0.55710  0.59100  0.17080  Biso   1.000  H
  C39      1.0000 0.61280  0.59580  0.05160  Biso   1.000  C
  C40      1.0000 0.38720  0.40420  0.94840  Biso   1.000  C
  H39      1.0000 0.68990  0.66310  0.08730  Biso   1.000  H
  H40      1.0000 0.31010  0.33690  0.91270  Biso   1.000  H
  Cu3      1.0000 0.52600  0.33210  0.50800  Biso   1.000  Cu
  Cu4      1.0000 0.47400  0.66790  0.49200  Biso   1.000  Cu
  N13      1.0000 0.42400  0.19080  0.38670  Biso   1.000  N
  N14      1.0000 0.57600  0.80920  0.61330  Biso   1.000  N
  C41      1.0000 0.42700  0.08090  0.35390  Biso   1.000  C
  C42      1.0000 0.57300  0.91910  0.64610  Biso   1.000  C
  H41      1.0000 0.49070  0.05230  0.38250  Biso   1.000  H
  H42      1.0000 0.50930  0.94770  0.61750  Biso   1.000  H
  N15      1.0000 0.32600  0.01750  0.27400  Biso   1.000  N
  N16      1.0000 0.67400  0.98250  0.72600  Biso   1.000  N
  N17      1.0000 0.26000  0.08800  0.25820  Biso   1.000  N
  N18      1.0000 0.74000  0.91200  0.74180  Biso   1.000  N
  C43      1.0000 0.32100  0.19530  0.32760  Biso   1.000  C
  C44      1.0000 0.67900  0.80470  0.67240  Biso   1.000  C
  H43      1.0000 0.29480  0.26390  0.33390  Biso   1.000  H
  H44      1.0000 0.70520  0.73610  0.66610  Biso   1.000  H
  N19      1.0000 0.63350  0.39220  0.64610  Biso   1.000  N
  N20      1.0000 0.36650  0.60780  0.35390  Biso   1.000  N
  C45      1.0000 0.62900  0.49430  0.71030  Biso   1.000  C
  C46      1.0000 0.37100  0.50570  0.28970  Biso   1.000  C
  H45      1.0000 0.59310  0.54960  0.69530  Biso   1.000  H
  H46      1.0000 0.40690  0.45040  0.30470  Biso   1.000  H
  N21      1.0000 0.68200  0.50630  0.79880  Biso   1.000  N
  N22      1.0000 0.31800  0.49370  0.20120  Biso   1.000  N
  N23      1.0000 0.71900  0.41200  0.78940  Biso   1.000  N
  N24      1.0000 0.28100  0.58800  0.21060  Biso   1.000  N
  C47      1.0000 0.68900  0.34110  0.69500  Biso   1.000  C
  C48      1.0000 0.31100  0.65890  0.30500  Biso   1.000  C
  H47      1.0000 0.70570  0.26650  0.66700  Biso   1.000  H
  H48      1.0000 0.29430  0.73350  0.33300  Biso   1.000  H
  O27      1.0000 0.50000  0.50000  0.50000  Biso   1.000  O
  O28      1.0000 0.61710  0.22750  0.53220  Biso   1.000  O
  O29      1.0000 0.38290  0.77250  0.46780  Biso   1.000  O
  O30      1.0000 0.23450  0.33670  0.35620  Biso   1.000  O
  O31      1.0000 0.76550  0.66330  0.64380  Biso   1.000  O
  Cu5      1.0000 0.57810  0.28250  0.53520  Biso   1.000  Cu
  Cu6      1.0000 0.42190  0.71750  0.46480  Biso   1.000  Cu
  N25      1.0000 0.47100  0.16020  0.40580  Biso   1.000  N
  N26      1.0000 0.52900  0.83980  0.59420  Biso   1.000  N
  C49      1.0000 0.44900  0.04900  0.35900  Biso   1.000  C
  C50      1.0000 0.55100  0.95100  0.64100  Biso   1.000  C
  H49      1.0000 0.49710  0.00260  0.37850  Biso   1.000  H
  H50      1.0000 0.50290  0.99740  0.62150  Biso   1.000  H
  N27      1.0000 0.35300  0.01120  0.28120  Biso   1.000  N
  N28      1.0000 0.64700  0.98880  0.71880  Biso   1.000  N
  N29      1.0000 0.31400  0.09900  0.28000  Biso   1.000  N
  N30      1.0000 0.68600  0.90100  0.72000  Biso   1.000  N
  C51      1.0000 0.38700  0.19110  0.35700  Biso   1.000  C
  C52      1.0000 0.61300  0.80890  0.64300  Biso   1.000  C
  H51      1.0000 0.38050  0.26880  0.37480  Biso   1.000  H
  H52      1.0000 0.61950  0.73120  0.62520  Biso   1.000  H
  N31      1.0000 0.66800  0.37100  0.67660  Biso   1.000  N
  N32      1.0000 0.33200  0.62900  0.32340  Biso   1.000  N
  C53      1.0000 0.62900  0.46180  0.72590  Biso   1.000  C
  C54      1.0000 0.37100  0.53820  0.27410  Biso   1.000  C
  H53      1.0000 0.57350  0.49750  0.69860  Biso   1.000  H
  H54      1.0000 0.42650  0.50250  0.30140  Biso   1.000  H
  N33      1.0000 0.68100  0.49520  0.81900  Biso   1.000  N
  N34      1.0000 0.31900  0.50480  0.18100  Biso   1.000  N
  N35      1.0000 0.75100  0.42500  0.82740  Biso   1.000  N
  N36      1.0000 0.24900  0.57500  0.17260  Biso   1.000  N
  C55      1.0000 0.74300  0.34830  0.73940  Biso   1.000  C
  C56      1.0000 0.25700  0.65170  0.26060  Biso   1.000  C
  H55      1.0000 0.78530  0.28650  0.72370  Biso   1.000  H
  H56      1.0000 0.21470  0.71350  0.27630  Biso   1.000  H
  O32      1.0000 0.43580  0.48590  0.46930  Biso   1.000  O
  O33      1.0000 0.56420  0.51410  0.53070  Biso   1.000  O
  O34      1.0000 0.39210  0.34420  0.43730  Biso   1.000  O
  O35      1.0000 0.60790  0.65580  0.56270  Biso   1.000  O
  H57      1.0000 0.19190  0.87100  0.19490  Biso   1.000  H
  H58      1.0000 0.80810  0.12900  0.80510  Biso   1.000  H
  H59      1.0000 0.32310  0.83720  0.23290  Biso   1.000  H
  H60      1.0000 0.67690  0.16280  0.76710  Biso   1.000  H
  H61      1.0000 0.62680  0.63660  0.87270  Biso   1.000  H
  H62      1.0000 0.37320  0.36340  0.12730  Biso   1.000  H
  H63      1.0000 0.76020  0.63470  0.94060  Biso   1.000  H
  H64      1.0000 0.23980  0.36530  0.05940  Biso   1.000  H
