data_image0
_cell_length_a       12.469
_cell_length_b       13.905
_cell_length_c       18.135
_cell_angle_alpha    88.61
_cell_angle_beta     70.12
_cell_angle_gamma    73.73

_symmetry_space_group_name_H-M    "P 1"
_symmetry_int_tables_number       1

loop_
  _symmetry_equiv_pos_as_xyz
  'x, y, z'

loop_
  _atom_site_label
  _atom_site_occupancy
  _atom_site_fract_x
  _atom_site_fract_y
  _atom_site_fract_z
  _atom_site_thermal_displace_type
  _atom_site_B_iso_or_equiv
  _atom_site_type_symbol
  Mo1      1.0000 0.48507  0.60935  0.05602  Biso   1.000  Mo
  Mo2      1.0000 0.51493  0.39065  0.94398  Biso   1.000  Mo
  Mo3      1.0000 0.24565  0.58173  0.04116  Biso   1.000  Mo
  Mo4      1.0000 0.75435  0.41827  0.95884  Biso   1.000  Mo
  Mo5      1.0000 0.22093  0.08442  0.50879  Biso   1.000  Mo
  Mo6      1.0000 0.77907  0.91558  0.49121  Biso   1.000  Mo
  Mo7      1.0000 0.49697  0.12812  0.52800  Biso   1.000  Mo
  Mo8      1.0000 0.50303  0.87188  0.47200  Biso   1.000  Mo
  Mo9      1.0000 0.36910  0.58015  0.85087  Biso   1.000  Mo
  Mo10     1.0000 0.63090  0.41985  0.14913  Biso   1.000  Mo
  Mo11     1.0000 0.38803  0.39627  0.13197  Biso   1.000  Mo
  Mo12     1.0000 0.61197  0.60373  0.86803  Biso   1.000  Mo
  Mo13     1.0000 0.28227  0.99259  0.66721  Biso   1.000  Mo
  Mo14     1.0000 0.71773  0.00741  0.33279  Biso   1.000  Mo
  Mo15     1.0000 0.43735  0.09138  0.33587  Biso   1.000  Mo
  Mo16     1.0000 0.56265  0.90862  0.66413  Biso   1.000  Mo
  Cu1      1.0000 0.53568  0.71479  0.22510  Biso   1.000  Cu
  Cu2      1.0000 0.46432  0.28521  0.77490  Biso   1.000  Cu
  Cu3      1.0000 0.62244  0.04957  0.84230  Biso   1.000  Cu
  Cu4      1.0000 0.37756  0.95043  0.15770  Biso   1.000  Cu
  Cu5      1.0000 0.37019  0.45624  0.65682  Biso   1.000  Cu
  Cu6      1.0000 0.62981  0.54376  0.34318  Biso   1.000  Cu
  Cu7      1.0000 0.01517  0.23375  0.72159  Biso   1.000  Cu
  Cu8      1.0000 0.98483  0.76625  0.27841  Biso   1.000  Cu
  O1       1.0000 0.46200  0.19260  0.29100  Biso   1.000  O
  O2       1.0000 0.53800  0.80740  0.70900  Biso   1.000  O
  O3       1.0000 0.34140  0.56990  0.11050  Biso   1.000  O
  O4       1.0000 0.65860  0.43010  0.88950  Biso   1.000  O
  O5       1.0000 0.53570  0.56740  0.80420  Biso   1.000  O
  O6       1.0000 0.46430  0.43260  0.19580  Biso   1.000  O
  O7       1.0000 0.54100  0.58720  0.13330  Biso   1.000  O
  O8       1.0000 0.45900  0.41280  0.86670  Biso   1.000  O
  O9       1.0000 0.44460  0.27080  0.11900  Biso   1.000  O
  O10      1.0000 0.55540  0.72920  0.88100  Biso   1.000  O
  O11      1.0000 0.19480  0.70790  0.04940  Biso   1.000  O
  O12      1.0000 0.80520  0.29210  0.95060  Biso   1.000  O
  O13      1.0000 0.44250  0.57250  0.95930  Biso   1.000  O
  O14      1.0000 0.55750  0.42750  0.04070  Biso   1.000  O
  O15      1.0000 0.63740  0.58630  0.97230  Biso   1.000  O
  O16      1.0000 0.36260  0.41370  0.02770  Biso   1.000  O
  O17      1.0000 0.31300  0.70640  0.85710  Biso   1.000  O
  O18      1.0000 0.68700  0.29360  0.14290  Biso   1.000  O
  O19      1.0000 0.24820  0.55060  0.93880  Biso   1.000  O
  O20      1.0000 0.75180  0.44940  0.06120  Biso   1.000  O
  O21      1.0000 0.43150  0.73630  0.06170  Biso   1.000  O
  O22      1.0000 0.56850  0.26370  0.93830  Biso   1.000  O
  O23      1.0000 0.24540  0.41900  0.19540  Biso   1.000  O
  O24      1.0000 0.75460  0.58100  0.80460  Biso   1.000  O
  O25      1.0000 0.17860  0.09920  0.71980  Biso   1.000  O
  O26      1.0000 0.82140  0.90080  0.28020  Biso   1.000  O
  O27      1.0000 0.31460  0.15150  0.43110  Biso   1.000  O
  O28      1.0000 0.68540  0.84850  0.56890  Biso   1.000  O
  O29      1.0000 0.11610  0.18360  0.57060  Biso   1.000  O
  O30      1.0000 0.88390  0.81640  0.42940  Biso   1.000  O
  O31      1.0000 0.14630  0.04520  0.45840  Biso   1.000  O
  O32      1.0000 0.85370  0.95480  0.54160  Biso   1.000  O
  O33      1.0000 0.22360  0.98430  0.58450  Biso   1.000  O
  O34      1.0000 0.77640  0.01570  0.41550  Biso   1.000  O
  O35      1.0000 0.35680  0.10170  0.56920  Biso   1.000  O
  O36      1.0000 0.64320  0.89830  0.43080  Biso   1.000  O
  O37      1.0000 0.12720  0.54260  0.09650  Biso   1.000  O
  O38      1.0000 0.87280  0.45740  0.90350  Biso   1.000  O
  O39      1.0000 0.40020  0.95660  0.43760  Biso   1.000  O
  O40      1.0000 0.59980  0.04340  0.56240  Biso   1.000  O
  O41      1.0000 0.34140  0.53880  0.77070  Biso   1.000  O
  O42      1.0000 0.65860  0.46120  0.22930  Biso   1.000  O
  O43      1.0000 0.54760  0.11290  0.42090  Biso   1.000  O
  O44      1.0000 0.45240  0.88710  0.57910  Biso   1.000  O
  O45      1.0000 0.41290  0.00460  0.69660  Biso   1.000  O
  O46      1.0000 0.58710  0.99540  0.30340  Biso   1.000  O
  O47      1.0000 0.24570  0.89710  0.71770  Biso   1.000  O
  O48      1.0000 0.75430  0.10290  0.28230  Biso   1.000  O
  O49      1.0000 0.47790  0.24830  0.55870  Biso   1.000  O
  O50      1.0000 0.52210  0.75170  0.44130  Biso   1.000  O
  O51      1.0000 0.37040  0.03970  0.28800  Biso   1.000  O
  O52      1.0000 0.62960  0.96030  0.71200  Biso   1.000  O
  C1       1.0000 0.80660  0.15720  0.79210  Biso   1.000  C
  C2       1.0000 0.19340  0.84280  0.20790  Biso   1.000  C
  H1       1.0000 0.75790  0.21740  0.82390  Biso   1.000  H
  H2       1.0000 0.24210  0.78260  0.17610  Biso   1.000  H
  C3       1.0000 0.95260  0.05170  0.70890  Biso   1.000  C
  C4       1.0000 0.04740  0.94830  0.29110  Biso   1.000  C
  H3       1.0000 0.02690  0.02190  0.66860  Biso   1.000  H
  H4       1.0000 0.97310  0.97810  0.33140  Biso   1.000  H
  C5       1.0000 0.87910  0.89970  0.73000  Biso   1.000  C
  C6       1.0000 0.12090  0.10030  0.27000  Biso   1.000  C
  H5       1.0000 0.94770  0.86900  0.68190  Biso   1.000  H
  H6       1.0000 0.05230  0.13100  0.31810  Biso   1.000  H
  H7       1.0000 0.80600  0.89390  0.72250  Biso   1.000  H
  H8       1.0000 0.19400  0.10610  0.27750  Biso   1.000  H
  C7       1.0000 0.89570  0.84220  0.80160  Biso   1.000  C
  C8       1.0000 0.10430  0.15780  0.19840  Biso   1.000  C
  C9       1.0000 0.81800  0.78810  0.84020  Biso   1.000  C
  C10      1.0000 0.18200  0.21190  0.15980  Biso   1.000  C
  H9       1.0000 0.75190  0.78920  0.82510  Biso   1.000  H
  H10      1.0000 0.24810  0.21080  0.17490  Biso   1.000  H
  C11      1.0000 0.98600  0.84330  0.82890  Biso   1.000  C
  C12      1.0000 0.01400  0.15670  0.17110  Biso   1.000  C
  H11      1.0000 0.03770  0.88280  0.80490  Biso   1.000  H
  H12      1.0000 0.96230  0.11720  0.19510  Biso   1.000  H
  C13      1.0000 0.83760  0.73240  0.90110  Biso   1.000  C
  C14      1.0000 0.16240  0.26760  0.09890  Biso   1.000  C
  H13      1.0000 0.78700  0.69220  0.92530  Biso   1.000  H
  H14      1.0000 0.21300  0.30780  0.07470  Biso   1.000  H
  C15      1.0000 0.00240  0.78900  0.88910  Biso   1.000  C
  C16      1.0000 0.99760  0.21100  0.11090  Biso   1.000  C
  H15      1.0000 0.06720  0.78940  0.90530  Biso   1.000  H
  H16      1.0000 0.93280  0.21060  0.09470  Biso   1.000  H
  C17      1.0000 0.92830  0.73370  0.92720  Biso   1.000  C
  C18      1.0000 0.07170  0.26630  0.07280  Biso   1.000  C
  C19      1.0000 0.94890  0.67100  0.99300  Biso   1.000  C
  C20      1.0000 0.05110  0.32900  0.00700  Biso   1.000  C
  H17      1.0000 0.95920  0.59990  0.97870  Biso   1.000  H
  H18      1.0000 0.04080  0.40010  0.02130  Biso   1.000  H
  H19      1.0000 0.02330  0.67500  0.99940  Biso   1.000  H
  H20      1.0000 0.97670  0.32500  0.00060  Biso   1.000  H
  C21      1.0000 0.73660  0.79680  0.16580  Biso   1.000  C
  C22      1.0000 0.26340  0.20320  0.83420  Biso   1.000  C
  H21      1.0000 0.70330  0.84910  0.20690  Biso   1.000  H
  H22      1.0000 0.29670  0.15090  0.79310  Biso   1.000  H
  C23      1.0000 0.76160  0.66800  0.09760  Biso   1.000  C
  C24      1.0000 0.23840  0.33200  0.90240  Biso   1.000  C
  H23      1.0000 0.75170  0.60990  0.07740  Biso   1.000  H
  H24      1.0000 0.24830  0.39010  0.92260  Biso   1.000  H
  C25      1.0000 0.56140  0.55320  0.62390  Biso   1.000  C
  C26      1.0000 0.43860  0.44680  0.37610  Biso   1.000  C
  H25      1.0000 0.52450  0.59850  0.66970  Biso   1.000  H
  H26      1.0000 0.47550  0.40150  0.33030  Biso   1.000  H
  C27      1.0000 0.59800  0.44040  0.53360  Biso   1.000  C
  C28      1.0000 0.40200  0.55960  0.46640  Biso   1.000  C
  H27      1.0000 0.58870  0.38880  0.50500  Biso   1.000  H
  H28      1.0000 0.41130  0.61120  0.49500  Biso   1.000  H
  C29      1.0000 0.74760  0.60700  0.56050  Biso   1.000  C
  C30      1.0000 0.25240  0.39300  0.43950  Biso   1.000  C
  H29      1.0000 0.72920  0.63980  0.61300  Biso   1.000  H
  H30      1.0000 0.27080  0.36020  0.38700  Biso   1.000  H
  H31      1.0000 0.73240  0.66070  0.52530  Biso   1.000  H
  H32      1.0000 0.26760  0.33930  0.47470  Biso   1.000  H
  C31      1.0000 0.87780  0.54900  0.52920  Biso   1.000  C
  C32      1.0000 0.12220  0.45100  0.47080  Biso   1.000  C
  C33      1.0000 0.94780  0.57160  0.46000  Biso   1.000  C
  C34      1.0000 0.05220  0.42840  0.54000  Biso   1.000  C
  H33      1.0000 0.91350  0.62150  0.43130  Biso   1.000  H
  H34      1.0000 0.08650  0.37850  0.56870  Biso   1.000  H
  C35      1.0000 0.92980  0.47730  0.57010  Biso   1.000  C
  C36      1.0000 0.07020  0.52270  0.42990  Biso   1.000  C
  H35      1.0000 0.88230  0.46090  0.61920  Biso   1.000  H
  H36      1.0000 0.11770  0.53910  0.38080  Biso   1.000  H
  C37      1.0000 0.42390  0.96260  0.89280  Biso   1.000  C
  C38      1.0000 0.57610  0.03740  0.10720  Biso   1.000  C
  H37      1.0000 0.45460  0.91430  0.84910  Biso   1.000  H
  H38      1.0000 0.54540  0.08570  0.15090  Biso   1.000  H
  C39      1.0000 0.39520  0.08400  0.97260  Biso   1.000  C
  C40      1.0000 0.60480  0.91600  0.02740  Biso   1.000  C
  H39      1.0000 0.40460  0.14060  0.99540  Biso   1.000  H
  H40      1.0000 0.59540  0.85940  0.00460  Biso   1.000  H
  C41      1.0000 0.24940  0.90390  0.97350  Biso   1.000  C
  C42      1.0000 0.75060  0.09610  0.02650  Biso   1.000  C
  H41      1.0000 0.25670  0.87100  0.02130  Biso   1.000  H
  H42      1.0000 0.74330  0.12900  0.97870  Biso   1.000  H
  H43      1.0000 0.27890  0.85040  0.93030  Biso   1.000  H
  H44      1.0000 0.72110  0.14960  0.06970  Biso   1.000  H
  C43      1.0000 0.12020  0.95490  0.98800  Biso   1.000  C
  C44      1.0000 0.87980  0.04510  0.01200  Biso   1.000  C
  C45      1.0000 0.08490  0.00900  0.93130  Biso   1.000  C
  C46      1.0000 0.91510  0.99100  0.06870  Biso   1.000  C
  H45      1.0000 0.14370  0.01540  0.88330  Biso   1.000  H
  H46      1.0000 0.85630  0.98460  0.11670  Biso   1.000  H
  C47      1.0000 0.03510  0.94550  0.05720  Biso   1.000  C
  C48      1.0000 0.96490  0.05450  0.94280  Biso   1.000  C
  H47      1.0000 0.05770  0.90850  0.09700  Biso   1.000  H
  H48      1.0000 0.94230  0.09150  0.90300  Biso   1.000  H
  C49      1.0000 0.03410  0.43550  0.74320  Biso   1.000  C
  C50      1.0000 0.96590  0.56450  0.25680  Biso   1.000  C
  H49      1.0000 0.95110  0.46450  0.76980  Biso   1.000  H
  H50      1.0000 0.04890  0.53550  0.23020  Biso   1.000  H
  C51      1.0000 0.20050  0.33440  0.68190  Biso   1.000  C
  C52      1.0000 0.79950  0.66560  0.31810  Biso   1.000  C
  H51      1.0000 0.25990  0.27520  0.65440  Biso   1.000  H
  H52      1.0000 0.74010  0.72480  0.34560  Biso   1.000  H
  C53      1.0000 0.09570  0.59160  0.74400  Biso   1.000  C
  C54      1.0000 0.90430  0.40840  0.25600  Biso   1.000  C
  H53      1.0000 0.15650  0.59840  0.76560  Biso   1.000  H
  H54      1.0000 0.84350  0.40160  0.23440  Biso   1.000  H
  H55      1.0000 0.01630  0.62000  0.78480  Biso   1.000  H
  H56      1.0000 0.98370  0.38000  0.21520  Biso   1.000  H
  C55      1.0000 0.10420  0.65090  0.67210  Biso   1.000  C
  C56      1.0000 0.89580  0.34910  0.32790  Biso   1.000  C
  C57      1.0000 0.02250  0.66030  0.63520  Biso   1.000  C
  C58      1.0000 0.97750  0.33970  0.36480  Biso   1.000  C
  H57      1.0000 0.96010  0.62980  0.65500  Biso   1.000  H
  H58      1.0000 0.03990  0.37020  0.34500  Biso   1.000  H
  C59      1.0000 0.19060  0.70080  0.64420  Biso   1.000  C
  C60      1.0000 0.80940  0.29920  0.35580  Biso   1.000  C
  H59      1.0000 0.24630  0.69550  0.67020  Biso   1.000  H
  H60      1.0000 0.75370  0.30450  0.32980  Biso   1.000  H
  C61      1.0000 0.03130  0.71620  0.56670  Biso   1.000  C
  C62      1.0000 0.96870  0.28380  0.43330  Biso   1.000  C
  H61      1.0000 0.97610  0.72050  0.54050  Biso   1.000  H
  H62      1.0000 0.02390  0.27950  0.45950  Biso   1.000  H
  C63      1.0000 0.19850  0.75680  0.58150  Biso   1.000  C
  C64      1.0000 0.80150  0.24320  0.41850  Biso   1.000  C
  H63      1.0000 0.25700  0.79180  0.56550  Biso   1.000  H
  H64      1.0000 0.74300  0.20820  0.43450  Biso   1.000  H
  C65      1.0000 0.11830  0.76310  0.53900  Biso   1.000  C
  C66      1.0000 0.88170  0.23690  0.46100  Biso   1.000  C
  C67      1.0000 0.12510  0.81990  0.46660  Biso   1.000  C
  C68      1.0000 0.87490  0.18010  0.53340  Biso   1.000  C
  H65      1.0000 0.04990  0.83060  0.45610  Biso   1.000  H
  H66      1.0000 0.95010  0.16940  0.54390  Biso   1.000  H
  H67      1.0000 0.13350  0.88670  0.47630  Biso   1.000  H
  H68      1.0000 0.86650  0.11330  0.52370  Biso   1.000  H
  C69      1.0000 0.32070  0.79140  0.35890  Biso   1.000  C
  C70      1.0000 0.67930  0.20860  0.64110  Biso   1.000  C
  H69      1.0000 0.34210  0.84810  0.37080  Biso   1.000  H
  H70      1.0000 0.65790  0.15190  0.62920  Biso   1.000  H
  C71      1.0000 0.31730  0.65950  0.30430  Biso   1.000  C
  C72      1.0000 0.68270  0.34050  0.69570  Biso   1.000  C
  H71      1.0000 0.34010  0.60290  0.26820  Biso   1.000  H
  H72      1.0000 0.65990  0.39710  0.73180  Biso   1.000  H
  N1       1.0000 0.91470  0.14680  0.74160  Biso   1.000  N
  N2       1.0000 0.08530  0.85320  0.25840  Biso   1.000  N
  N3       1.0000 0.77280  0.07350  0.79360  Biso   1.000  N
  N4       1.0000 0.22720  0.92650  0.20640  Biso   1.000  N
  N5       1.0000 0.86980  0.00670  0.74180  Biso   1.000  N
  N6       1.0000 0.13020  0.99330  0.25820  Biso   1.000  N
  N7       1.0000 0.85070  0.70380  0.06770  Biso   1.000  N
  N8       1.0000 0.14930  0.29620  0.93230  Biso   1.000  N
  N9       1.0000 0.83580  0.78750  0.10880  Biso   1.000  N
  N10      1.0000 0.16420  0.21250  0.89120  Biso   1.000  N
  N11      1.0000 0.68580  0.72650  0.16160  Biso   1.000  N
  N12      1.0000 0.31420  0.27350  0.83840  Biso   1.000  N
  N13      1.0000 0.51830  0.48510  0.60370  Biso   1.000  N
  N14      1.0000 0.48170  0.51490  0.39630  Biso   1.000  N
  N15      1.0000 0.69000  0.47630  0.50930  Biso   1.000  N
  N16      1.0000 0.31000  0.52370  0.49070  Biso   1.000  N
  N17      1.0000 0.66690  0.54620  0.56750  Biso   1.000  N
  N18      1.0000 0.33310  0.45380  0.43250  Biso   1.000  N
  N19      1.0000 0.47450  0.03380  0.90220  Biso   1.000  N
  N20      1.0000 0.52550  0.96620  0.09780  Biso   1.000  N
  N21      1.0000 0.30620  0.04740  0.00550  Biso   1.000  N
  N22      1.0000 0.69380  0.95260  0.99450  Biso   1.000  N
  N23      1.0000 0.32650  0.97050  0.95300  Biso   1.000  N
  N24      1.0000 0.67350  0.02950  0.04700  Biso   1.000  N
  N25      1.0000 0.08460  0.33870  0.71840  Biso   1.000  N
  N26      1.0000 0.91540  0.66130  0.28160  Biso   1.000  N
  N27      1.0000 0.22310  0.42090  0.68820  Biso   1.000  N
  N28      1.0000 0.77690  0.57910  0.31180  Biso   1.000  N
  N29      1.0000 0.11350  0.48610  0.72620  Biso   1.000  N
  N30      1.0000 0.88650  0.51390  0.27380  Biso   1.000  N
  N31      1.0000 0.38540  0.72340  0.29890  Biso   1.000  N
  N32      1.0000 0.61460  0.27660  0.70110  Biso   1.000  N
  N33      1.0000 0.21980  0.68430  0.36300  Biso   1.000  N
  N34      1.0000 0.78020  0.31570  0.63700  Biso   1.000  N
  N35      1.0000 0.22140  0.76870  0.39990  Biso   1.000  N
  N36      1.0000 0.77860  0.23130  0.60010  Biso   1.000  N
