data_image0
_cell_length_a       9.744
_cell_length_b       9.755
_cell_length_c       14.407
_cell_angle_alpha    90
_cell_angle_beta     90
_cell_angle_gamma    90

_symmetry_space_group_name_H-M    "P 1"
_symmetry_int_tables_number       1

loop_
  _symmetry_equiv_pos_as_xyz
  'x, y, z'

loop_
  _atom_site_label
  _atom_site_occupancy
  _atom_site_fract_x
  _atom_site_fract_y
  _atom_site_fract_z
  _atom_site_thermal_displace_type
  _atom_site_B_iso_or_equiv
  _atom_site_type_symbol
  N1       1.0000 0.45020  0.03160  0.92590  Biso   1.000  N
  N2       1.0000 0.04980  0.96840  0.42590  Biso   1.000  N
  N3       1.0000 0.54980  0.53160  0.57410  Biso   1.000  N
  N4       1.0000 0.95020  0.46840  0.07410  Biso   1.000  N
  N5       1.0000 0.21780  0.19930  0.67440  Biso   1.000  N
  N6       1.0000 0.28220  0.80070  0.17440  Biso   1.000  N
  N7       1.0000 0.78220  0.69930  0.82560  Biso   1.000  N
  N8       1.0000 0.71780  0.30070  0.32560  Biso   1.000  N
  C1       1.0000 0.44120  0.95150  0.98340  Biso   1.000  C
  C2       1.0000 0.05880  0.04850  0.48340  Biso   1.000  C
  C3       1.0000 0.55880  0.45150  0.51660  Biso   1.000  C
  C4       1.0000 0.94120  0.54850  0.01660  Biso   1.000  C
  C5       1.0000 0.29820  0.19140  0.73270  Biso   1.000  C
  C6       1.0000 0.20180  0.80860  0.23270  Biso   1.000  C
  C7       1.0000 0.70180  0.69140  0.76730  Biso   1.000  C
  C8       1.0000 0.79820  0.30860  0.26730  Biso   1.000  C
  N9       1.0000 0.44260  0.36570  0.91230  Biso   1.000  N
  N10      1.0000 0.05740  0.63430  0.41230  Biso   1.000  N
  N11      1.0000 0.55740  0.86570  0.58770  Biso   1.000  N
  N12      1.0000 0.94260  0.13430  0.08770  Biso   1.000  N
  N13      1.0000 0.88310  0.19480  0.66200  Biso   1.000  N
  N14      1.0000 0.61690  0.80520  0.16200  Biso   1.000  N
  N15      1.0000 0.11690  0.69480  0.83800  Biso   1.000  N
  N16      1.0000 0.38310  0.30520  0.33800  Biso   1.000  N
  N17      1.0000 0.43020  0.61510  0.01000  Biso   1.000  N
  N18      1.0000 0.06980  0.38490  0.51000  Biso   1.000  N
  N19      1.0000 0.56980  0.11510  0.49000  Biso   1.000  N
  N20      1.0000 0.93020  0.88490  0.99000  Biso   1.000  N
  N21      1.0000 0.63520  0.18120  0.76110  Biso   1.000  N
  N22      1.0000 0.86480  0.81880  0.26110  Biso   1.000  N
  N23      1.0000 0.36480  0.68120  0.73890  Biso   1.000  N
  N24      1.0000 0.13520  0.31880  0.23890  Biso   1.000  N
  C9       1.0000 0.33570  0.39740  0.96510  Biso   1.000  C
  C10      1.0000 0.16430  0.60260  0.46510  Biso   1.000  C
  C11      1.0000 0.66430  0.89740  0.53490  Biso   1.000  C
  C12      1.0000 0.83570  0.10260  0.03490  Biso   1.000  C
  C13      1.0000 0.22330  0.29180  0.97540  Biso   1.000  C
  C14      1.0000 0.27670  0.70820  0.47540  Biso   1.000  C
  C15      1.0000 0.77670  0.79180  0.52460  Biso   1.000  C
  C16      1.0000 0.72330  0.20820  0.02460  Biso   1.000  C
  H1       1.0000 0.15020  0.32920  0.01230  Biso   1.000  H
  H2       1.0000 0.34980  0.67080  0.51230  Biso   1.000  H
  H3       1.0000 0.84980  0.82920  0.48770  Biso   1.000  H
  H4       1.0000 0.65020  0.17080  0.98770  Biso   1.000  H
  H5       1.0000 0.25950  0.21160  0.00530  Biso   1.000  H
  H6       1.0000 0.24050  0.78840  0.50530  Biso   1.000  H
  H7       1.0000 0.74050  0.71160  0.49470  Biso   1.000  H
  H8       1.0000 0.75950  0.28840  0.99470  Biso   1.000  H
  H9       1.0000 0.18870  0.26760  0.91520  Biso   1.000  H
  H10      1.0000 0.31130  0.73240  0.41520  Biso   1.000  H
  H11      1.0000 0.81130  0.76760  0.58480  Biso   1.000  H
  H12      1.0000 0.68870  0.23240  0.08480  Biso   1.000  H
  C17      1.0000 0.32910  0.52350  0.01260  Biso   1.000  C
  C18      1.0000 0.17090  0.47650  0.51260  Biso   1.000  C
  C19      1.0000 0.67090  0.02350  0.48740  Biso   1.000  C
  C20      1.0000 0.82910  0.97650  0.98740  Biso   1.000  C
  H13      1.0000 0.25100  0.54360  0.04710  Biso   1.000  H
  H14      1.0000 0.24900  0.45640  0.54710  Biso   1.000  H
  H15      1.0000 0.74900  0.04360  0.45290  Biso   1.000  H
  H16      1.0000 0.75100  0.95640  0.95290  Biso   1.000  H
  C21      1.0000 0.53720  0.58130  0.95860  Biso   1.000  C
  C22      1.0000 0.96280  0.41870  0.45860  Biso   1.000  C
  C23      1.0000 0.46280  0.08130  0.54140  Biso   1.000  C
  C24      1.0000 0.03720  0.91870  0.04140  Biso   1.000  C
  H17      1.0000 0.61160  0.64090  0.95600  Biso   1.000  H
  H18      1.0000 0.88840  0.35910  0.45600  Biso   1.000  H
  H19      1.0000 0.38840  0.14090  0.54400  Biso   1.000  H
  H20      1.0000 0.11160  0.85910  0.04400  Biso   1.000  H
  C25      1.0000 0.54240  0.46040  0.90870  Biso   1.000  C
  C26      1.0000 0.95760  0.53960  0.40870  Biso   1.000  C
  C27      1.0000 0.45760  0.96040  0.59130  Biso   1.000  C
  C28      1.0000 0.04240  0.03960  0.09130  Biso   1.000  C
  H21      1.0000 0.61810  0.44400  0.87100  Biso   1.000  H
  H22      1.0000 0.88190  0.55600  0.37100  Biso   1.000  H
  H23      1.0000 0.38190  0.94400  0.62900  Biso   1.000  H
  H24      1.0000 0.11810  0.05600  0.12900  Biso   1.000  H
  C29      1.0000 0.85200  0.08530  0.71590  Biso   1.000  C
  C30      1.0000 0.64800  0.91470  0.21590  Biso   1.000  C
  C31      1.0000 0.14800  0.58530  0.78410  Biso   1.000  C
  C32      1.0000 0.35200  0.41470  0.28410  Biso   1.000  C
  C33      1.0000 0.95600  0.97310  0.72610  Biso   1.000  C
  C34      1.0000 0.54400  0.02690  0.22610  Biso   1.000  C
  C35      1.0000 0.04400  0.47310  0.77390  Biso   1.000  C
  C36      1.0000 0.45600  0.52690  0.27390  Biso   1.000  C
  H25      1.0000 0.91010  0.88850  0.74010  Biso   1.000  H
  H26      1.0000 0.58990  0.11150  0.24010  Biso   1.000  H
  H27      1.0000 0.08990  0.38850  0.75990  Biso   1.000  H
  H28      1.0000 0.41010  0.61150  0.25990  Biso   1.000  H
  H29      1.0000 0.01820  0.99550  0.77550  Biso   1.000  H
  H30      1.0000 0.48180  0.00450  0.27550  Biso   1.000  H
  H31      1.0000 0.98180  0.49550  0.72450  Biso   1.000  H
  H32      1.0000 0.51820  0.50450  0.22450  Biso   1.000  H
  H33      1.0000 0.00630  0.96350  0.66910  Biso   1.000  H
  H34      1.0000 0.49370  0.03650  0.16910  Biso   1.000  H
  H35      1.0000 0.99370  0.46350  0.83090  Biso   1.000  H
  H36      1.0000 0.50630  0.53650  0.33090  Biso   1.000  H
  C37      1.0000 0.72810  0.08130  0.76290  Biso   1.000  C
  C38      1.0000 0.77190  0.91870  0.26290  Biso   1.000  C
  C39      1.0000 0.27190  0.58130  0.73710  Biso   1.000  C
  C40      1.0000 0.22810  0.41870  0.23710  Biso   1.000  C
  H37      1.0000 0.70860  0.00370  0.79810  Biso   1.000  H
  H38      1.0000 0.79140  0.99630  0.29810  Biso   1.000  H
  H39      1.0000 0.29140  0.50370  0.70190  Biso   1.000  H
  H40      1.0000 0.20860  0.49630  0.20190  Biso   1.000  H
  C41      1.0000 0.66970  0.28860  0.70800  Biso   1.000  C
  C42      1.0000 0.83030  0.71140  0.20800  Biso   1.000  C
  C43      1.0000 0.33030  0.78860  0.79200  Biso   1.000  C
  C44      1.0000 0.16970  0.21140  0.29200  Biso   1.000  C
  H41      1.0000 0.60990  0.36270  0.70400  Biso   1.000  H
  H42      1.0000 0.89010  0.63730  0.20400  Biso   1.000  H
  H43      1.0000 0.39010  0.86270  0.79600  Biso   1.000  H
  H44      1.0000 0.10990  0.13730  0.29600  Biso   1.000  H
  C45      1.0000 0.78970  0.29230  0.65980  Biso   1.000  C
  C46      1.0000 0.71030  0.70770  0.15980  Biso   1.000  C
  C47      1.0000 0.21030  0.79230  0.84020  Biso   1.000  C
  C48      1.0000 0.28970  0.20770  0.34020  Biso   1.000  C
  H45      1.0000 0.80680  0.36860  0.62290  Biso   1.000  H
  H46      1.0000 0.69320  0.63140  0.12290  Biso   1.000  H
  H47      1.0000 0.19320  0.86860  0.87710  Biso   1.000  H
  H48      1.0000 0.30680  0.13140  0.37710  Biso   1.000  H
  Cu1      1.0000 0.43665  0.17570  0.82811  Biso   1.000  Cu
  Cu2      1.0000 0.06335  0.82430  0.32811  Biso   1.000  Cu
  Cu3      1.0000 0.56335  0.67570  0.67189  Biso   1.000  Cu
  Cu4      1.0000 0.93665  0.32430  0.17189  Biso   1.000  Cu
  Cu5      1.0000 0.42550  0.81350  0.07812  Biso   1.000  Cu
  Cu6      1.0000 0.07450  0.18650  0.57812  Biso   1.000  Cu
  Cu7      1.0000 0.57450  0.31350  0.42188  Biso   1.000  Cu
  Cu8      1.0000 0.92550  0.68650  0.92188  Biso   1.000  Cu
