data_image0
_cell_length_a       11.748
_cell_length_b       11.748
_cell_length_c       10.617
_cell_angle_alpha    90
_cell_angle_beta     90
_cell_angle_gamma    90

_symmetry_space_group_name_H-M    "P 1"
_symmetry_int_tables_number       1

loop_
  _symmetry_equiv_pos_as_xyz
  'x, y, z'

loop_
  _atom_site_label
  _atom_site_occupancy
  _atom_site_fract_x
  _atom_site_fract_y
  _atom_site_fract_z
  _atom_site_thermal_displace_type
  _atom_site_B_iso_or_equiv
  _atom_site_type_symbol
  Cu1      1.0000 0.44183  0.66679  0.12955  Biso   1.000  Cu
  Cu2      1.0000 0.33321  0.94183  0.62955  Biso   1.000  Cu
  Cu3      1.0000 0.16679  0.55817  0.62955  Biso   1.000  Cu
  Cu4      1.0000 0.05817  0.83321  0.12955  Biso   1.000  Cu
  Cu5      1.0000 0.55817  0.33321  0.87045  Biso   1.000  Cu
  Cu6      1.0000 0.66679  0.05817  0.37045  Biso   1.000  Cu
  Cu7      1.0000 0.83321  0.44183  0.37045  Biso   1.000  Cu
  Cu8      1.0000 0.94183  0.16679  0.87045  Biso   1.000  Cu
  N1       1.0000 0.29600  0.73150  0.15560  Biso   1.000  N
  N2       1.0000 0.26850  0.79600  0.65560  Biso   1.000  N
  N3       1.0000 0.23150  0.70400  0.65560  Biso   1.000  N
  N4       1.0000 0.20400  0.76850  0.15560  Biso   1.000  N
  N5       1.0000 0.70400  0.26850  0.84440  Biso   1.000  N
  N6       1.0000 0.73150  0.20400  0.34440  Biso   1.000  N
  N7       1.0000 0.76850  0.29600  0.34440  Biso   1.000  N
  N8       1.0000 0.79600  0.23150  0.84440  Biso   1.000  N
  C1       1.0000 0.48600  0.54070  0.02960  Biso   1.000  C
  C2       1.0000 0.45930  0.98600  0.52960  Biso   1.000  C
  C3       1.0000 0.04070  0.51400  0.52960  Biso   1.000  C
  C4       1.0000 0.01400  0.95930  0.02960  Biso   1.000  C
  C5       1.0000 0.51400  0.45930  0.97040  Biso   1.000  C
  C6       1.0000 0.54070  0.01400  0.47040  Biso   1.000  C
  C7       1.0000 0.95930  0.48600  0.47040  Biso   1.000  C
  C8       1.0000 0.98600  0.04070  0.97040  Biso   1.000  C
  N9       1.0000 0.55290  0.81940  0.08900  Biso   1.000  N
  N10      1.0000 0.18060  0.05290  0.58900  Biso   1.000  N
  N11      1.0000 0.31940  0.44710  0.58900  Biso   1.000  N
  N12      1.0000 0.94710  0.68060  0.08900  Biso   1.000  N
  N13      1.0000 0.44710  0.18060  0.91100  Biso   1.000  N
  N14      1.0000 0.81940  0.94710  0.41100  Biso   1.000  N
  N15      1.0000 0.68060  0.55290  0.41100  Biso   1.000  N
  N16      1.0000 0.05290  0.31940  0.91100  Biso   1.000  N
  N17      1.0000 0.51920  0.63520  0.31000  Biso   1.000  N
  N18      1.0000 0.36480  0.01920  0.81000  Biso   1.000  N
  N19      1.0000 0.13520  0.48080  0.81000  Biso   1.000  N
  N20      1.0000 0.98080  0.86480  0.31000  Biso   1.000  N
  N21      1.0000 0.48080  0.36480  0.69000  Biso   1.000  N
  N22      1.0000 0.63520  0.98080  0.19000  Biso   1.000  N
  N23      1.0000 0.86480  0.51920  0.19000  Biso   1.000  N
  N24      1.0000 0.01920  0.13520  0.69000  Biso   1.000  N
  C9       1.0000 0.58880  0.85850  0.97610  Biso   1.000  C
  C10      1.0000 0.14150  0.08880  0.47610  Biso   1.000  C
  C11      1.0000 0.35850  0.41120  0.47610  Biso   1.000  C
  C12      1.0000 0.91120  0.64150  0.97610  Biso   1.000  C
  C13      1.0000 0.41120  0.14150  0.02390  Biso   1.000  C
  C14      1.0000 0.85850  0.91120  0.52390  Biso   1.000  C
  C15      1.0000 0.64150  0.58880  0.52390  Biso   1.000  C
  C16      1.0000 0.08880  0.35850  0.02390  Biso   1.000  C
  C17      1.0000 0.55970  0.78430  0.86630  Biso   1.000  C
  C18      1.0000 0.21570  0.05970  0.36630  Biso   1.000  C
  C19      1.0000 0.28430  0.44030  0.36630  Biso   1.000  C
  C20      1.0000 0.94030  0.71570  0.86630  Biso   1.000  C
  C21      1.0000 0.44030  0.21570  0.13370  Biso   1.000  C
  C22      1.0000 0.78430  0.94030  0.63370  Biso   1.000  C
  C23      1.0000 0.71570  0.55970  0.63370  Biso   1.000  C
  C24      1.0000 0.05970  0.28430  0.13370  Biso   1.000  C
  H1       1.0000 0.47840  0.77780  0.85940  Biso   1.000  H
  H2       1.0000 0.22220  0.97840  0.35940  Biso   1.000  H
  H3       1.0000 0.27780  0.52160  0.35940  Biso   1.000  H
  H4       1.0000 0.02160  0.72220  0.85940  Biso   1.000  H
  H5       1.0000 0.52160  0.22220  0.14060  Biso   1.000  H
  H6       1.0000 0.77780  0.02160  0.64060  Biso   1.000  H
  H7       1.0000 0.72220  0.47840  0.64060  Biso   1.000  H
  H8       1.0000 0.97840  0.27780  0.14060  Biso   1.000  H
  H9       1.0000 0.59220  0.71020  0.87840  Biso   1.000  H
  H10      1.0000 0.28980  0.09220  0.37840  Biso   1.000  H
  H11      1.0000 0.21020  0.40780  0.37840  Biso   1.000  H
  H12      1.0000 0.90780  0.78980  0.87840  Biso   1.000  H
  H13      1.0000 0.40780  0.28980  0.12160  Biso   1.000  H
  H14      1.0000 0.71020  0.90780  0.62160  Biso   1.000  H
  H15      1.0000 0.78980  0.59220  0.62160  Biso   1.000  H
  H16      1.0000 0.09220  0.21020  0.12160  Biso   1.000  H
  H17      1.0000 0.58960  0.81740  0.79060  Biso   1.000  H
  H18      1.0000 0.18260  0.08960  0.29060  Biso   1.000  H
  H19      1.0000 0.31740  0.41040  0.29060  Biso   1.000  H
  H20      1.0000 0.91040  0.68260  0.79060  Biso   1.000  H
  H21      1.0000 0.41040  0.18260  0.20940  Biso   1.000  H
  H22      1.0000 0.81740  0.91040  0.70940  Biso   1.000  H
  H23      1.0000 0.68260  0.58960  0.70940  Biso   1.000  H
  H24      1.0000 0.08960  0.31740  0.20940  Biso   1.000  H
  C25      1.0000 0.65290  0.95770  0.96970  Biso   1.000  C
  C26      1.0000 0.04230  0.15290  0.46970  Biso   1.000  C
  C27      1.0000 0.45770  0.34710  0.46970  Biso   1.000  C
  C28      1.0000 0.84710  0.54230  0.96970  Biso   1.000  C
  C29      1.0000 0.34710  0.04230  0.03030  Biso   1.000  C
  C30      1.0000 0.95770  0.84710  0.53030  Biso   1.000  C
  C31      1.0000 0.54230  0.65290  0.53030  Biso   1.000  C
  C32      1.0000 0.15290  0.45770  0.03030  Biso   1.000  C
  H25      1.0000 0.68240  0.98350  0.89360  Biso   1.000  H
  H26      1.0000 0.01650  0.18240  0.39360  Biso   1.000  H
  H27      1.0000 0.48350  0.31760  0.39360  Biso   1.000  H
  H28      1.0000 0.81760  0.51650  0.89360  Biso   1.000  H
  H29      1.0000 0.31760  0.01650  0.10640  Biso   1.000  H
  H30      1.0000 0.98350  0.81760  0.60640  Biso   1.000  H
  H31      1.0000 0.51650  0.68240  0.60640  Biso   1.000  H
  H32      1.0000 0.18240  0.48350  0.10640  Biso   1.000  H
  C33      1.0000 0.57760  0.88340  0.18820  Biso   1.000  C
  C34      1.0000 0.11660  0.07760  0.68820  Biso   1.000  C
  C35      1.0000 0.38340  0.42240  0.68820  Biso   1.000  C
  C36      1.0000 0.92240  0.61660  0.18820  Biso   1.000  C
  C37      1.0000 0.42240  0.11660  0.81180  Biso   1.000  C
  C38      1.0000 0.88340  0.92240  0.31180  Biso   1.000  C
  C39      1.0000 0.61660  0.57760  0.31180  Biso   1.000  C
  C40      1.0000 0.07760  0.38340  0.81180  Biso   1.000  C
  H33      1.0000 0.55150  0.85700  0.26560  Biso   1.000  H
  H34      1.0000 0.14300  0.05150  0.76560  Biso   1.000  H
  H35      1.0000 0.35700  0.44850  0.76560  Biso   1.000  H
  H36      1.0000 0.94850  0.64300  0.26560  Biso   1.000  H
  H37      1.0000 0.44850  0.14300  0.73440  Biso   1.000  H
  H38      1.0000 0.85700  0.94850  0.23440  Biso   1.000  H
  H39      1.0000 0.64300  0.55150  0.23440  Biso   1.000  H
  H40      1.0000 0.05150  0.35700  0.73440  Biso   1.000  H
  C41      1.0000 0.48520  0.67070  0.42270  Biso   1.000  C
  C42      1.0000 0.32930  0.98520  0.92270  Biso   1.000  C
  C43      1.0000 0.17070  0.51480  0.92270  Biso   1.000  C
  C44      1.0000 0.01480  0.82930  0.42270  Biso   1.000  C
  C45      1.0000 0.51480  0.32930  0.57730  Biso   1.000  C
  C46      1.0000 0.67070  0.01480  0.07730  Biso   1.000  C
  C47      1.0000 0.82930  0.48520  0.07730  Biso   1.000  C
  C48      1.0000 0.98520  0.17070  0.57730  Biso   1.000  C
  H41      1.0000 0.41700  0.71080  0.42740  Biso   1.000  H
  H42      1.0000 0.28920  0.91700  0.92740  Biso   1.000  H
  H43      1.0000 0.21080  0.58300  0.92740  Biso   1.000  H
  H44      1.0000 0.08300  0.78920  0.42740  Biso   1.000  H
  H45      1.0000 0.58300  0.28920  0.57260  Biso   1.000  H
  H46      1.0000 0.71080  0.08300  0.07260  Biso   1.000  H
  H47      1.0000 0.78920  0.41700  0.07260  Biso   1.000  H
  H48      1.0000 0.91700  0.21080  0.57260  Biso   1.000  H
