data_image0
_cell_length_a       14.172
_cell_length_b       8.687
_cell_length_c       7.365
_cell_angle_alpha    90
_cell_angle_beta     97.22
_cell_angle_gamma    90

_symmetry_space_group_name_H-M    "P 1"
_symmetry_int_tables_number       1

loop_
  _symmetry_equiv_pos_as_xyz
  'x, y, z'

loop_
  _atom_site_label
  _atom_site_occupancy
  _atom_site_fract_x
  _atom_site_fract_y
  _atom_site_fract_z
  _atom_site_thermal_displace_type
  _atom_site_B_iso_or_equiv
  _atom_site_type_symbol
  Cu1      1.0000 0.21176  0.15214  0.38023  Biso   1.000  Cu
  Cu2      1.0000 0.78824  0.15214  0.11977  Biso   1.000  Cu
  Cu3      1.0000 0.71176  0.65214  0.38023  Biso   1.000  Cu
  Cu4      1.0000 0.28824  0.65214  0.11977  Biso   1.000  Cu
  Cu5      1.0000 0.78824  0.84786  0.61977  Biso   1.000  Cu
  Cu6      1.0000 0.21176  0.84786  0.88023  Biso   1.000  Cu
  Cu7      1.0000 0.28824  0.34786  0.61977  Biso   1.000  Cu
  Cu8      1.0000 0.71176  0.34786  0.88023  Biso   1.000  Cu
  C1       1.0000 0.22390  0.35740  0.28770  Biso   1.000  C
  C2       1.0000 0.77610  0.35740  0.21230  Biso   1.000  C
  C3       1.0000 0.72390  0.85740  0.28770  Biso   1.000  C
  C4       1.0000 0.27610  0.85740  0.21230  Biso   1.000  C
  C5       1.0000 0.77610  0.64260  0.71230  Biso   1.000  C
  C6       1.0000 0.22390  0.64260  0.78770  Biso   1.000  C
  C7       1.0000 0.27610  0.14260  0.71230  Biso   1.000  C
  C8       1.0000 0.72390  0.14260  0.78770  Biso   1.000  C
  N1       1.0000 0.26620  0.96890  0.28770  Biso   1.000  N
  N2       1.0000 0.73380  0.96890  0.21230  Biso   1.000  N
  N3       1.0000 0.76620  0.46890  0.28770  Biso   1.000  N
  N4       1.0000 0.23380  0.46890  0.21230  Biso   1.000  N
  N5       1.0000 0.73380  0.03110  0.71230  Biso   1.000  N
  N6       1.0000 0.26620  0.03110  0.78770  Biso   1.000  N
  N7       1.0000 0.23380  0.53110  0.71230  Biso   1.000  N
  N8       1.0000 0.76620  0.53110  0.78770  Biso   1.000  N
  N9       1.0000 0.08260  0.06580  0.45100  Biso   1.000  N
  N10      1.0000 0.91740  0.06580  0.04900  Biso   1.000  N
  N11      1.0000 0.58260  0.56580  0.45100  Biso   1.000  N
  N12      1.0000 0.41740  0.56580  0.04900  Biso   1.000  N
  N13      1.0000 0.91740  0.93420  0.54900  Biso   1.000  N
  N14      1.0000 0.08260  0.93420  0.95100  Biso   1.000  N
  N15      1.0000 0.41740  0.43420  0.54900  Biso   1.000  N
  N16      1.0000 0.58260  0.43420  0.95100  Biso   1.000  N
  C9       1.0000 0.01070  0.15490  0.49380  Biso   1.000  C
  C10      1.0000 0.98930  0.15490  0.00620  Biso   1.000  C
  C11      1.0000 0.51070  0.65490  0.49380  Biso   1.000  C
  C12      1.0000 0.48930  0.65490  0.00620  Biso   1.000  C
  C13      1.0000 0.98930  0.84510  0.50620  Biso   1.000  C
  C14      1.0000 0.01070  0.84510  0.99380  Biso   1.000  C
  C15      1.0000 0.48930  0.34510  0.50620  Biso   1.000  C
  C16      1.0000 0.51070  0.34510  0.99380  Biso   1.000  C
  C17      1.0000 0.01690  0.32240  0.50240  Biso   1.000  C
  C18      1.0000 0.98310  0.32240  0.99760  Biso   1.000  C
  C19      1.0000 0.51690  0.82240  0.50240  Biso   1.000  C
  C20      1.0000 0.48310  0.82240  0.99760  Biso   1.000  C
  C21      1.0000 0.98310  0.67760  0.49760  Biso   1.000  C
  C22      1.0000 0.01690  0.67760  0.00240  Biso   1.000  C
  C23      1.0000 0.48310  0.17760  0.49760  Biso   1.000  C
  C24      1.0000 0.51690  0.17760  0.00240  Biso   1.000  C
  H1       1.0000 0.05690  0.35230  0.61170  Biso   1.000  H
  H2       1.0000 0.94310  0.35230  0.88830  Biso   1.000  H
  H3       1.0000 0.55690  0.85230  0.61170  Biso   1.000  H
  H4       1.0000 0.44310  0.85230  0.88830  Biso   1.000  H
  H5       1.0000 0.94310  0.64770  0.38830  Biso   1.000  H
  H6       1.0000 0.05690  0.64770  0.11170  Biso   1.000  H
  H7       1.0000 0.44310  0.14770  0.38830  Biso   1.000  H
  H8       1.0000 0.55690  0.14770  0.11170  Biso   1.000  H
  H9       1.0000 0.95450  0.36490  0.50380  Biso   1.000  H
  H10      1.0000 0.04550  0.36490  0.99620  Biso   1.000  H
  H11      1.0000 0.45450  0.86490  0.50380  Biso   1.000  H
  H12      1.0000 0.54550  0.86490  0.99620  Biso   1.000  H
  H13      1.0000 0.04550  0.63510  0.49620  Biso   1.000  H
  H14      1.0000 0.95450  0.63510  0.00380  Biso   1.000  H
  H15      1.0000 0.54550  0.13510  0.49620  Biso   1.000  H
  H16      1.0000 0.45450  0.13510  0.00380  Biso   1.000  H
  H17      1.0000 0.04350  0.36010  0.39730  Biso   1.000  H
  H18      1.0000 0.95650  0.36010  0.10270  Biso   1.000  H
  H19      1.0000 0.54350  0.86010  0.39730  Biso   1.000  H
  H20      1.0000 0.45650  0.86010  0.10270  Biso   1.000  H
  H21      1.0000 0.95650  0.63990  0.60270  Biso   1.000  H
  H22      1.0000 0.04350  0.63990  0.89730  Biso   1.000  H
  H23      1.0000 0.45650  0.13990  0.60270  Biso   1.000  H
  H24      1.0000 0.54350  0.13990  0.89730  Biso   1.000  H
  C25      1.0000 0.07150  0.91300  0.45960  Biso   1.000  C
  C26      1.0000 0.92850  0.91300  0.04040  Biso   1.000  C
  C27      1.0000 0.57150  0.41300  0.45960  Biso   1.000  C
  C28      1.0000 0.42850  0.41300  0.04040  Biso   1.000  C
  C29      1.0000 0.92850  0.08700  0.54040  Biso   1.000  C
  C30      1.0000 0.07150  0.08700  0.95960  Biso   1.000  C
  C31      1.0000 0.42850  0.58700  0.54040  Biso   1.000  C
  C32      1.0000 0.57150  0.58700  0.95960  Biso   1.000  C
  H25      1.0000 0.12100  0.84980  0.43310  Biso   1.000  H
  H26      1.0000 0.87900  0.84980  0.06690  Biso   1.000  H
  H27      1.0000 0.62100  0.34980  0.43310  Biso   1.000  H
  H28      1.0000 0.37900  0.34980  0.06690  Biso   1.000  H
  H29      1.0000 0.87900  0.15020  0.56690  Biso   1.000  H
  H30      1.0000 0.12100  0.15020  0.93310  Biso   1.000  H
  H31      1.0000 0.37900  0.65020  0.56690  Biso   1.000  H
  H32      1.0000 0.62100  0.65020  0.93310  Biso   1.000  H
