data_image0
_cell_length_a       14.1228
_cell_length_b       8.7264
_cell_length_c       7.2508
_cell_angle_alpha    90
_cell_angle_beta     98.125
_cell_angle_gamma    90

_symmetry_space_group_name_H-M    "P 1"
_symmetry_int_tables_number       1

loop_
  _symmetry_equiv_pos_as_xyz
  'x, y, z'

loop_
  _atom_site_label
  _atom_site_occupancy
  _atom_site_fract_x
  _atom_site_fract_y
  _atom_site_fract_z
  _atom_site_thermal_displace_type
  _atom_site_B_iso_or_equiv
  _atom_site_type_symbol
  Cu1      1.0000 0.28820  0.15050  0.11820  Biso   1.000  Cu
  Cu2      1.0000 0.71180  0.15050  0.38180  Biso   1.000  Cu
  Cu3      1.0000 0.78820  0.65050  0.11820  Biso   1.000  Cu
  Cu4      1.0000 0.21180  0.65050  0.38180  Biso   1.000  Cu
  Cu5      1.0000 0.71180  0.84950  0.88180  Biso   1.000  Cu
  Cu6      1.0000 0.28820  0.84950  0.61820  Biso   1.000  Cu
  Cu7      1.0000 0.21180  0.34950  0.88180  Biso   1.000  Cu
  Cu8      1.0000 0.78820  0.34950  0.61820  Biso   1.000  Cu
  N1       1.0000 0.41640  0.06510  0.04890  Biso   1.000  N
  N2       1.0000 0.58360  0.06510  0.45110  Biso   1.000  N
  N3       1.0000 0.91640  0.56510  0.04890  Biso   1.000  N
  N4       1.0000 0.08360  0.56510  0.45110  Biso   1.000  N
  N5       1.0000 0.58360  0.93490  0.95110  Biso   1.000  N
  N6       1.0000 0.41640  0.93490  0.54890  Biso   1.000  N
  N7       1.0000 0.08360  0.43490  0.95110  Biso   1.000  N
  N8       1.0000 0.91640  0.43490  0.54890  Biso   1.000  N
  N9       1.0000 0.23320  0.96510  0.20950  Biso   1.000  N
  N10      1.0000 0.76680  0.96510  0.29050  Biso   1.000  N
  N11      1.0000 0.73320  0.46510  0.20950  Biso   1.000  N
  N12      1.0000 0.26680  0.46510  0.29050  Biso   1.000  N
  N13      1.0000 0.76680  0.03490  0.79050  Biso   1.000  N
  N14      1.0000 0.23320  0.03490  0.70950  Biso   1.000  N
  N15      1.0000 0.26680  0.53490  0.79050  Biso   1.000  N
  N16      1.0000 0.73320  0.53490  0.70950  Biso   1.000  N
  N17      1.0000 0.27730  0.35290  0.21460  Biso   1.000  N
  N18      1.0000 0.72270  0.35290  0.28540  Biso   1.000  N
  N19      1.0000 0.77730  0.85290  0.21460  Biso   1.000  N
  N20      1.0000 0.22270  0.85290  0.28540  Biso   1.000  N
  N21      1.0000 0.72270  0.64710  0.78540  Biso   1.000  N
  N22      1.0000 0.27730  0.64710  0.71460  Biso   1.000  N
  N23      1.0000 0.22270  0.14710  0.78540  Biso   1.000  N
  N24      1.0000 0.77730  0.14710  0.71460  Biso   1.000  N
  C1       1.0000 0.48890  0.15300  0.00660  Biso   1.000  C
  C2       1.0000 0.51110  0.15300  0.49340  Biso   1.000  C
  C3       1.0000 0.98890  0.65300  0.00660  Biso   1.000  C
  C4       1.0000 0.01110  0.65300  0.49340  Biso   1.000  C
  C5       1.0000 0.51110  0.84700  0.99340  Biso   1.000  C
  C6       1.0000 0.48890  0.84700  0.50660  Biso   1.000  C
  C7       1.0000 0.01110  0.34700  0.99340  Biso   1.000  C
  C8       1.0000 0.98890  0.34700  0.50660  Biso   1.000  C
  C9       1.0000 0.42860  0.91240  0.04190  Biso   1.000  C
  C10      1.0000 0.57140  0.91240  0.45810  Biso   1.000  C
  C11      1.0000 0.92860  0.41240  0.04190  Biso   1.000  C
  C12      1.0000 0.07140  0.41240  0.45810  Biso   1.000  C
  C13      1.0000 0.57140  0.08760  0.95810  Biso   1.000  C
  C14      1.0000 0.42860  0.08760  0.54190  Biso   1.000  C
  C15      1.0000 0.07140  0.58760  0.95810  Biso   1.000  C
  C16      1.0000 0.92860  0.58760  0.54190  Biso   1.000  C
  C17      1.0000 0.48150  0.32410  0.00040  Biso   1.000  C
  C18      1.0000 0.51850  0.32410  0.49960  Biso   1.000  C
  C19      1.0000 0.98150  0.82410  0.00040  Biso   1.000  C
  C20      1.0000 0.01850  0.82410  0.49960  Biso   1.000  C
  C21      1.0000 0.51850  0.67590  0.99960  Biso   1.000  C
  C22      1.0000 0.48150  0.67590  0.50040  Biso   1.000  C
  C23      1.0000 0.01850  0.17590  0.99960  Biso   1.000  C
  C24      1.0000 0.98150  0.17590  0.50040  Biso   1.000  C
  H1       1.0000 0.38010  0.84850  0.07060  Biso   1.000  H
  H2       1.0000 0.61990  0.84850  0.42940  Biso   1.000  H
  H3       1.0000 0.88010  0.34850  0.07060  Biso   1.000  H
  H4       1.0000 0.11990  0.34850  0.42940  Biso   1.000  H
  H5       1.0000 0.61990  0.15150  0.92940  Biso   1.000  H
  H6       1.0000 0.38010  0.15150  0.57060  Biso   1.000  H
  H7       1.0000 0.11990  0.65150  0.92940  Biso   1.000  H
  H8       1.0000 0.88010  0.65150  0.57060  Biso   1.000  H
  H9       1.0000 0.43480  0.35420  0.89760  Biso   1.000  H
  H10      1.0000 0.56520  0.35420  0.60240  Biso   1.000  H
  H11      1.0000 0.93480  0.85420  0.89760  Biso   1.000  H
  H12      1.0000 0.06520  0.85420  0.60240  Biso   1.000  H
  H13      1.0000 0.56520  0.64580  0.10240  Biso   1.000  H
  H14      1.0000 0.43480  0.64580  0.39760  Biso   1.000  H
  H15      1.0000 0.06520  0.14580  0.10240  Biso   1.000  H
  H16      1.0000 0.93480  0.14580  0.39760  Biso   1.000  H
  H17      1.0000 0.54250  0.36700  0.98520  Biso   1.000  H
  H18      1.0000 0.45750  0.36700  0.51480  Biso   1.000  H
  H19      1.0000 0.04250  0.86700  0.98520  Biso   1.000  H
  H20      1.0000 0.95750  0.86700  0.51480  Biso   1.000  H
  H21      1.0000 0.45750  0.63300  0.01480  Biso   1.000  H
  H22      1.0000 0.54250  0.63300  0.48520  Biso   1.000  H
  H23      1.0000 0.95750  0.13300  0.01480  Biso   1.000  H
  H24      1.0000 0.04250  0.13300  0.48520  Biso   1.000  H
  H25      1.0000 0.46250  0.36070  0.11450  Biso   1.000  H
  H26      1.0000 0.53750  0.36070  0.38550  Biso   1.000  H
  H27      1.0000 0.96250  0.86070  0.11450  Biso   1.000  H
  H28      1.0000 0.03750  0.86070  0.38550  Biso   1.000  H
  H29      1.0000 0.53750  0.63930  0.88550  Biso   1.000  H
  H30      1.0000 0.46250  0.63930  0.61450  Biso   1.000  H
  H31      1.0000 0.03750  0.13930  0.88550  Biso   1.000  H
  H32      1.0000 0.96250  0.13930  0.61450  Biso   1.000  H
