data_image0
_cell_length_a       3.852
_cell_length_b       5.76
_cell_length_c       9.248
_cell_angle_alpha    94.45
_cell_angle_beta     97.82
_cell_angle_gamma    106.6

_symmetry_space_group_name_H-M    "P 1"
_symmetry_int_tables_number       1

loop_
  _symmetry_equiv_pos_as_xyz
  'x, y, z'

loop_
  _atom_site_label
  _atom_site_occupancy
  _atom_site_fract_x
  _atom_site_fract_y
  _atom_site_fract_z
  _atom_site_thermal_displace_type
  _atom_site_B_iso_or_equiv
  _atom_site_type_symbol
  Cu1      1.0000 0.51097  0.13929  0.87774  Biso   1.000  Cu
  S1       1.0000 0.00720  0.99852  0.00017  Biso   1.000  S
  C1       1.0000 0.82990  0.70070  0.94520  Biso   1.000  C
  N1       1.0000 0.70000  0.49350  0.91020  Biso   1.000  N
  N2       1.0000 0.43030  0.96980  0.66620  Biso   1.000  N
  N3       1.0000 0.23660  0.59600  0.50650  Biso   1.000  N
  C2       1.0000 0.26390  0.73040  0.63290  Biso   1.000  C
  H1       1.0000 0.15560  0.64940  0.70610  Biso   1.000  H
  C3       1.0000 0.39790  0.70990  0.40100  Biso   1.000  C
  C4       1.0000 0.37840  0.55730  0.25940  Biso   1.000  C
  H2       1.0000 0.59940  0.51130  0.26130  Biso   1.000  H
  H3       1.0000 0.35200  0.64980  0.17870  Biso   1.000  H
  H4       1.0000 0.17100  0.41330  0.24750  Biso   1.000  H
  C5       1.0000 0.57650  0.95790  0.42480  Biso   1.000  C
  H5       1.0000 0.68730  0.03870  0.35200  Biso   1.000  H
  C6       1.0000 0.58580  0.08180  0.55930  Biso   1.000  C
  H6       1.0000 0.70410  0.24890  0.57640  Biso   1.000  H
