data_image0
_cell_length_a       5.792
_cell_length_b       6.752
_cell_length_c       11.316
_cell_angle_alpha    77.08
_cell_angle_beta     75.23
_cell_angle_gamma    88.96

_symmetry_space_group_name_H-M    "P 1"
_symmetry_int_tables_number       1

loop_
  _symmetry_equiv_pos_as_xyz
  'x, y, z'

loop_
  _atom_site_label
  _atom_site_occupancy
  _atom_site_fract_x
  _atom_site_fract_y
  _atom_site_fract_z
  _atom_site_thermal_displace_type
  _atom_site_B_iso_or_equiv
  _atom_site_type_symbol
  Cu1      1.0000 0.40880  0.76979  0.23747  Biso   1.000  Cu
  Cu2      1.0000 0.59120  0.23021  0.76253  Biso   1.000  Cu
  S1       1.0000 0.18050  0.04820  0.17590  Biso   1.000  S
  S2       1.0000 0.81950  0.95180  0.82410  Biso   1.000  S
  N1       1.0000 0.72280  0.86300  0.23850  Biso   1.000  N
  N2       1.0000 0.27720  0.13700  0.76150  Biso   1.000  N
  C1       1.0000 0.91120  0.93730  0.21280  Biso   1.000  C
  C2       1.0000 0.08880  0.06270  0.78720  Biso   1.000  C
  N3       1.0000 0.45110  0.59580  0.09950  Biso   1.000  N
  N4       1.0000 0.54890  0.40420  0.90050  Biso   1.000  N
  N5       1.0000 0.18400  0.59580  0.39860  Biso   1.000  N
  N6       1.0000 0.81600  0.40420  0.60140  Biso   1.000  N
  C3       1.0000 0.60800  0.45480  0.08930  Biso   1.000  C
  C4       1.0000 0.39200  0.54520  0.91070  Biso   1.000  C
  C5       1.0000 0.71820  0.40070  0.19500  Biso   1.000  C
  C6       1.0000 0.28180  0.59930  0.80500  Biso   1.000  C
  H1       1.0000 0.79900  0.51880  0.20190  Biso   1.000  H
  H2       1.0000 0.20100  0.48120  0.79810  Biso   1.000  H
  H3       1.0000 0.83100  0.29700  0.18100  Biso   1.000  H
  H4       1.0000 0.16900  0.70300  0.81900  Biso   1.000  H
  H5       1.0000 0.59660  0.35100  0.27120  Biso   1.000  H
  H6       1.0000 0.40340  0.64900  0.72880  Biso   1.000  H
  C7       1.0000 0.34070  0.64080  0.00920  Biso   1.000  C
  C8       1.0000 0.65930  0.35920  0.99080  Biso   1.000  C
  H7       1.0000 0.22590  0.73900  0.01200  Biso   1.000  H
  H8       1.0000 0.77410  0.26100  0.98800  Biso   1.000  H
  C9       1.0000 0.12160  0.66060  0.50570  Biso   1.000  C
  C10      1.0000 0.87840  0.33940  0.49430  Biso   1.000  C
  C11      1.0000 0.25940  0.83820  0.51160  Biso   1.000  C
  C12      1.0000 0.74060  0.16180  0.48840  Biso   1.000  C
  H9       1.0000 0.17390  0.89480  0.58010  Biso   1.000  H
  H10      1.0000 0.82610  0.10520  0.41990  Biso   1.000  H
  H11      1.0000 0.28140  0.93890  0.43440  Biso   1.000  H
  H12      1.0000 0.71860  0.06110  0.56560  Biso   1.000  H
  H13      1.0000 0.41240  0.79660  0.52410  Biso   1.000  H
  H14      1.0000 0.58760  0.20340  0.47590  Biso   1.000  H
  C13      1.0000 0.06110  0.43510  0.39540  Biso   1.000  C
  C14      1.0000 0.93890  0.56490  0.60460  Biso   1.000  C
  H15      1.0000 0.10000  0.38450  0.32310  Biso   1.000  H
  H16      1.0000 0.90000  0.61550  0.67690  Biso   1.000  H
