data_image0
_cell_length_a       3.884
_cell_length_b       17.51
_cell_length_c       10.84
_cell_angle_alpha    90
_cell_angle_beta     96.97
_cell_angle_gamma    90

_symmetry_space_group_name_H-M    "P 1"
_symmetry_int_tables_number       1

loop_
  _symmetry_equiv_pos_as_xyz
  'x, y, z'

loop_
  _atom_site_label
  _atom_site_occupancy
  _atom_site_fract_x
  _atom_site_fract_y
  _atom_site_fract_z
  _atom_site_thermal_displace_type
  _atom_site_B_iso_or_equiv
  _atom_site_type_symbol
  Cl1      1.0000 0.26730  0.91290  0.02670  Biso   1.000  Cl
  Cl2      1.0000 0.23270  0.41290  0.47330  Biso   1.000  Cl
  Cl3      1.0000 0.73270  0.08710  0.97330  Biso   1.000  Cl
  Cl4      1.0000 0.76730  0.58710  0.52670  Biso   1.000  Cl
  Cu1      1.0000 0.28920  0.04570  0.08680  Biso   1.000  Cu
  Cu2      1.0000 0.21080  0.54570  0.41320  Biso   1.000  Cu
  Cu3      1.0000 0.71080  0.95430  0.91320  Biso   1.000  Cu
  Cu4      1.0000 0.78920  0.45430  0.58680  Biso   1.000  Cu
  C1       1.0000 0.22420  0.09660  0.35050  Biso   1.000  C
  C2       1.0000 0.27580  0.59660  0.14950  Biso   1.000  C
  C3       1.0000 0.77580  0.90340  0.64950  Biso   1.000  C
  C4       1.0000 0.72420  0.40340  0.85050  Biso   1.000  C
  C5       1.0000 0.13340  0.12930  0.46480  Biso   1.000  C
  C6       1.0000 0.36660  0.62930  0.03520  Biso   1.000  C
  C7       1.0000 0.86660  0.87070  0.53520  Biso   1.000  C
  C8       1.0000 0.63340  0.37070  0.96480  Biso   1.000  C
  C9       1.0000 0.00450  0.20380  0.46360  Biso   1.000  C
  C10      1.0000 0.49550  0.70380  0.03640  Biso   1.000  C
  C11      1.0000 0.99550  0.79620  0.53640  Biso   1.000  C
  C12      1.0000 0.50450  0.29620  0.96360  Biso   1.000  C
  C13      1.0000 0.91700  0.23630  0.57280  Biso   1.000  C
  C14      1.0000 0.58300  0.73630  0.92720  Biso   1.000  C
  C15      1.0000 0.08300  0.76370  0.42720  Biso   1.000  C
  C16      1.0000 0.41700  0.26370  0.07280  Biso   1.000  C
  C17      1.0000 0.95980  0.19570  0.68320  Biso   1.000  C
  C18      1.0000 0.54020  0.69570  0.81680  Biso   1.000  C
  C19      1.0000 0.04020  0.80430  0.31680  Biso   1.000  C
  C20      1.0000 0.45980  0.30430  0.18320  Biso   1.000  C
  C21      1.0000 0.08900  0.12190  0.68440  Biso   1.000  C
  C22      1.0000 0.41100  0.62190  0.81560  Biso   1.000  C
  C23      1.0000 0.91100  0.87810  0.31560  Biso   1.000  C
  C24      1.0000 0.58900  0.37810  0.18440  Biso   1.000  C
  C25      1.0000 0.17620  0.08870  0.57520  Biso   1.000  C
  C26      1.0000 0.32380  0.58870  0.92480  Biso   1.000  C
  C27      1.0000 0.82380  0.91130  0.42480  Biso   1.000  C
  C28      1.0000 0.67620  0.41130  0.07520  Biso   1.000  C
  N1       1.0000 0.25100  0.07550  0.25780  Biso   1.000  N
  N2       1.0000 0.24900  0.57550  0.24220  Biso   1.000  N
  N3       1.0000 0.74900  0.92450  0.74220  Biso   1.000  N
  N4       1.0000 0.75100  0.42450  0.75780  Biso   1.000  N
