data_image0
_cell_length_a       3.866
_cell_length_b       17.464
_cell_length_c       10.813
_cell_angle_alpha    90
_cell_angle_beta     97.81
_cell_angle_gamma    90

_symmetry_space_group_name_H-M    "P 1"
_symmetry_int_tables_number       1

loop_
  _symmetry_equiv_pos_as_xyz
  'x, y, z'

loop_
  _atom_site_label
  _atom_site_occupancy
  _atom_site_fract_x
  _atom_site_fract_y
  _atom_site_fract_z
  _atom_site_thermal_displace_type
  _atom_site_B_iso_or_equiv
  _atom_site_type_symbol
  Cl1      1.0000 0.73240  0.08766  0.97092  Biso   1.000  Cl
  Cl2      1.0000 0.76760  0.58766  0.52908  Biso   1.000  Cl
  Cl3      1.0000 0.26760  0.91234  0.02908  Biso   1.000  Cl
  Cl4      1.0000 0.23240  0.41234  0.47092  Biso   1.000  Cl
  Cu1      1.0000 0.29330  0.04532  0.08594  Biso   1.000  Cu
  Cu2      1.0000 0.20670  0.54532  0.41406  Biso   1.000  Cu
  Cu3      1.0000 0.70670  0.95468  0.91406  Biso   1.000  Cu
  Cu4      1.0000 0.79330  0.45468  0.58594  Biso   1.000  Cu
  N1       1.0000 0.27720  0.07930  0.25430  Biso   1.000  N
  N2       1.0000 0.22280  0.57930  0.24570  Biso   1.000  N
  N3       1.0000 0.72280  0.92070  0.74570  Biso   1.000  N
  N4       1.0000 0.77720  0.42070  0.75430  Biso   1.000  N
  C1       1.0000 0.13380  0.13140  0.46360  Biso   1.000  C
  C2       1.0000 0.36620  0.63140  0.03640  Biso   1.000  C
  C3       1.0000 0.86620  0.86860  0.53640  Biso   1.000  C
  C4       1.0000 0.63380  0.36860  0.96360  Biso   1.000  C
  C5       1.0000 0.19110  0.08580  0.56940  Biso   1.000  C
  C6       1.0000 0.30890  0.58580  0.93060  Biso   1.000  C
  C7       1.0000 0.80890  0.91420  0.43060  Biso   1.000  C
  C8       1.0000 0.69110  0.41420  0.06940  Biso   1.000  C
  C9       1.0000 0.10710  0.11300  0.68110  Biso   1.000  C
  C10      1.0000 0.39290  0.61300  0.81890  Biso   1.000  C
  C11      1.0000 0.89290  0.88700  0.31890  Biso   1.000  C
  C12      1.0000 0.60710  0.38700  0.18110  Biso   1.000  C
  C13      1.0000 0.97020  0.18460  0.68610  Biso   1.000  C
  C14      1.0000 0.52980  0.68460  0.81390  Biso   1.000  C
  C15      1.0000 0.02980  0.81540  0.31390  Biso   1.000  C
  C16      1.0000 0.47020  0.31540  0.18610  Biso   1.000  C
  C17      1.0000 0.91440  0.23050  0.58370  Biso   1.000  C
  C18      1.0000 0.58560  0.73050  0.91630  Biso   1.000  C
  C19      1.0000 0.08560  0.76950  0.41630  Biso   1.000  C
  C20      1.0000 0.41440  0.26950  0.08370  Biso   1.000  C
  C21      1.0000 0.99680  0.20410  0.47000  Biso   1.000  C
  C22      1.0000 0.50320  0.70410  0.03000  Biso   1.000  C
  C23      1.0000 0.00320  0.79590  0.53000  Biso   1.000  C
  C24      1.0000 0.49680  0.29590  0.97000  Biso   1.000  C
  C25      1.0000 0.21500  0.10240  0.34690  Biso   1.000  C
  C26      1.0000 0.28500  0.60240  0.15310  Biso   1.000  C
  C27      1.0000 0.78500  0.89760  0.65310  Biso   1.000  C
  C28      1.0000 0.71500  0.39760  0.84690  Biso   1.000  C
  H1       1.0000 0.26900  0.03700  0.56300  Biso   1.000  H
  H2       1.0000 0.23100  0.53700  0.93700  Biso   1.000  H
  H3       1.0000 0.73100  0.96300  0.43700  Biso   1.000  H
  H4       1.0000 0.76900  0.46300  0.06300  Biso   1.000  H
  H5       1.0000 0.14600  0.07400  0.75000  Biso   1.000  H
  H6       1.0000 0.35400  0.57400  0.75000  Biso   1.000  H
  H7       1.0000 0.85400  0.92600  0.25000  Biso   1.000  H
  H8       1.0000 0.64600  0.42600  0.25000  Biso   1.000  H
  H9       1.0000 0.91300  0.20500  0.75600  Biso   1.000  H
  H10      1.0000 0.58700  0.70500  0.74400  Biso   1.000  H
  H11      1.0000 0.08700  0.79500  0.24400  Biso   1.000  H
  H12      1.0000 0.41300  0.29500  0.25600  Biso   1.000  H
  H13      1.0000 0.82600  0.28000  0.58500  Biso   1.000  H
  H14      1.0000 0.67400  0.78000  0.91500  Biso   1.000  H
  H15      1.0000 0.17400  0.72000  0.41500  Biso   1.000  H
  H16      1.0000 0.32600  0.22000  0.08500  Biso   1.000  H
  H17      1.0000 0.96100  0.23100  0.40600  Biso   1.000  H
  H18      1.0000 0.53900  0.73100  0.09400  Biso   1.000  H
  H19      1.0000 0.03900  0.76900  0.59400  Biso   1.000  H
  H20      1.0000 0.46100  0.26900  0.90600  Biso   1.000  H
