data_image0
_cell_length_a       9.254
_cell_length_b       10.737
_cell_length_c       10.887
_cell_angle_alpha    78.62
_cell_angle_beta     74.18
_cell_angle_gamma    68.22

_symmetry_space_group_name_H-M    "P 1"
_symmetry_int_tables_number       1

loop_
  _symmetry_equiv_pos_as_xyz
  'x, y, z'

loop_
  _atom_site_label
  _atom_site_occupancy
  _atom_site_fract_x
  _atom_site_fract_y
  _atom_site_fract_z
  _atom_site_thermal_displace_type
  _atom_site_B_iso_or_equiv
  _atom_site_type_symbol
  Cu1      1.0000 0.43160  0.05884  0.89112  Biso   1.000  Cu
  Cu2      1.0000 0.56840  0.94116  0.10888  Biso   1.000  Cu
  Cu3      1.0000 0.91871  0.54752  0.61596  Biso   1.000  Cu
  Cu4      1.0000 0.08129  0.45248  0.38404  Biso   1.000  Cu
  S1       1.0000 0.00230  0.31708  0.58091  Biso   1.000  S
  S2       1.0000 0.99770  0.68292  0.41909  Biso   1.000  S
  S3       1.0000 0.19141  0.22864  0.66985  Biso   1.000  S
  S4       1.0000 0.80859  0.77136  0.33015  Biso   1.000  S
  S5       1.0000 0.35417  0.28587  0.83318  Biso   1.000  S
  S6       1.0000 0.64583  0.71413  0.16682  Biso   1.000  S
  S7       1.0000 0.09173  0.51067  0.74230  Biso   1.000  S
  S8       1.0000 0.90827  0.48933  0.25770  Biso   1.000  S
  S9       1.0000 0.70718  0.96530  0.88360  Biso   1.000  S
  S10      1.0000 0.29282  0.03470  0.11640  Biso   1.000  S
  S11      1.0000 0.76984  0.79393  0.79801  Biso   1.000  S
  S12      1.0000 0.23016  0.20607  0.20199  Biso   1.000  S
  S13      1.0000 0.42042  0.89624  0.79255  Biso   1.000  S
  S14      1.0000 0.57958  0.10376  0.20745  Biso   1.000  S
  S15      1.0000 0.64691  0.64523  0.68194  Biso   1.000  S
  S16      1.0000 0.35309  0.35477  0.31806  Biso   1.000  S
  C1       1.0000 0.20980  0.34770  0.74770  Biso   1.000  C
  C2       1.0000 0.79020  0.65230  0.25230  Biso   1.000  C
  C3       1.0000 0.60690  0.78260  0.75890  Biso   1.000  C
  C4       1.0000 0.39310  0.21740  0.24110  Biso   1.000  C
  N1       1.0000 0.82380  0.32770  0.90990  Biso   1.000  N
  N2       1.0000 0.17620  0.67230  0.09010  Biso   1.000  N
  C5       1.0000 0.76520  0.43550  0.99330  Biso   1.000  C
  C6       1.0000 0.23480  0.56450  0.00670  Biso   1.000  C
  C7       1.0000 0.92580  0.19850  0.96420  Biso   1.000  C
  C8       1.0000 0.07420  0.80150  0.03580  Biso   1.000  C
  C9       1.0000 0.68660  0.30920  0.88140  Biso   1.000  C
  C10      1.0000 0.31340  0.69080  0.11860  Biso   1.000  C
  H1       1.0000 0.70070  0.51680  0.95240  Biso   1.000  H
  H2       1.0000 0.29930  0.48320  0.04760  Biso   1.000  H
  H3       1.0000 0.70240  0.40970  0.07340  Biso   1.000  H
  H4       1.0000 0.29760  0.59030  0.92660  Biso   1.000  H
  H5       1.0000 0.85420  0.45070  0.00910  Biso   1.000  H
  H6       1.0000 0.14580  0.54930  0.99090  Biso   1.000  H
  H7       1.0000 0.96030  0.13200  0.90530  Biso   1.000  H
  H8       1.0000 0.03970  0.86800  0.09470  Biso   1.000  H
  H9       1.0000 0.01720  0.21010  0.97950  Biso   1.000  H
  H10      1.0000 0.98280  0.78990  0.02050  Biso   1.000  H
  H11      1.0000 0.86550  0.16910  0.04380  Biso   1.000  H
  H12      1.0000 0.13450  0.83090  0.95620  Biso   1.000  H
  H13      1.0000 0.62070  0.39310  0.84540  Biso   1.000  H
  H14      1.0000 0.37930  0.60690  0.15460  Biso   1.000  H
  H15      1.0000 0.72470  0.24350  0.82130  Biso   1.000  H
  H16      1.0000 0.27530  0.75650  0.17870  Biso   1.000  H
  H17      1.0000 0.62530  0.27790  0.95940  Biso   1.000  H
  H18      1.0000 0.37470  0.72210  0.04060  Biso   1.000  H
  N3       1.0000 0.31370  0.81290  0.55760  Biso   1.000  N
  N4       1.0000 0.68630  0.18710  0.44240  Biso   1.000  N
  C11      1.0000 0.14680  0.84850  0.62990  Biso   1.000  C
  C12      1.0000 0.85320  0.15150  0.37010  Biso   1.000  C
  C13      1.0000 0.34180  0.92250  0.45970  Biso   1.000  C
  C14      1.0000 0.65820  0.07750  0.54030  Biso   1.000  C
  C15      1.0000 0.36410  0.68540  0.49830  Biso   1.000  C
  C16      1.0000 0.63590  0.31460  0.50170  Biso   1.000  C
  H19      1.0000 0.11650  0.93090  0.66710  Biso   1.000  H
  H20      1.0000 0.88350  0.06910  0.33290  Biso   1.000  H
  H21      1.0000 0.07980  0.86020  0.57200  Biso   1.000  H
  H22      1.0000 0.92020  0.13980  0.42800  Biso   1.000  H
  H23      1.0000 0.13490  0.77760  0.69680  Biso   1.000  H
  H24      1.0000 0.86510  0.22240  0.30320  Biso   1.000  H
  H25      1.0000 0.30880  0.00430  0.49870  Biso   1.000  H
  H26      1.0000 0.69120  0.99570  0.50130  Biso   1.000  H
  H27      1.0000 0.45340  0.89780  0.42000  Biso   1.000  H
  H28      1.0000 0.54660  0.10220  0.58000  Biso   1.000  H
  H29      1.0000 0.28180  0.93620  0.39590  Biso   1.000  H
  H30      1.0000 0.71820  0.06380  0.60410  Biso   1.000  H
  H31      1.0000 0.34510  0.61530  0.56360  Biso   1.000  H
  H32      1.0000 0.65490  0.38470  0.43640  Biso   1.000  H
  H33      1.0000 0.30410  0.69850  0.43460  Biso   1.000  H
  H34      1.0000 0.69590  0.30150  0.56540  Biso   1.000  H
  H35      1.0000 0.47570  0.66010  0.45860  Biso   1.000  H
  H36      1.0000 0.52430  0.33990  0.54140  Biso   1.000  H
