data_image0
_cell_length_a       19.672
_cell_length_b       17.197
_cell_length_c       13.68
_cell_angle_alpha    90
_cell_angle_beta     126.67
_cell_angle_gamma    90

_symmetry_space_group_name_H-M    "P 1"
_symmetry_int_tables_number       1

loop_
  _symmetry_equiv_pos_as_xyz
  'x, y, z'

loop_
  _atom_site_label
  _atom_site_occupancy
  _atom_site_fract_x
  _atom_site_fract_y
  _atom_site_fract_z
  _atom_site_thermal_displace_type
  _atom_site_B_iso_or_equiv
  _atom_site_type_symbol
  Cu1      1.0000 0.50000  0.06547  0.75000  Biso   1.000  Cu
  Cu2      1.0000 0.00000  0.56547  0.75000  Biso   1.000  Cu
  Cu3      1.0000 0.50000  0.93453  0.25000  Biso   1.000  Cu
  Cu4      1.0000 0.00000  0.43453  0.25000  Biso   1.000  Cu
  P1       1.0000 0.50000  0.23683  0.75000  Biso   1.000  P
  P2       1.0000 0.00000  0.73683  0.75000  Biso   1.000  P
  P3       1.0000 0.50000  0.76317  0.25000  Biso   1.000  P
  P4       1.0000 0.00000  0.26317  0.25000  Biso   1.000  P
  P5       1.0000 0.57241  0.98917  0.92250  Biso   1.000  P
  P6       1.0000 0.07241  0.48917  0.92250  Biso   1.000  P
  P7       1.0000 0.42759  0.98917  0.57750  Biso   1.000  P
  P8       1.0000 0.92759  0.48917  0.57750  Biso   1.000  P
  P9       1.0000 0.42759  0.01083  0.07750  Biso   1.000  P
  P10      1.0000 0.92759  0.51083  0.07750  Biso   1.000  P
  P11      1.0000 0.57241  0.01083  0.42250  Biso   1.000  P
  P12      1.0000 0.07241  0.51083  0.42250  Biso   1.000  P
  S1       1.0000 0.41810  0.17198  0.75378  Biso   1.000  S
  S2       1.0000 0.91810  0.67198  0.75378  Biso   1.000  S
  S3       1.0000 0.58190  0.17198  0.74622  Biso   1.000  S
  S4       1.0000 0.08190  0.67198  0.74622  Biso   1.000  S
  S5       1.0000 0.58190  0.82802  0.24622  Biso   1.000  S
  S6       1.0000 0.08190  0.32802  0.24622  Biso   1.000  S
  S7       1.0000 0.41810  0.82802  0.25378  Biso   1.000  S
  S8       1.0000 0.91810  0.32802  0.25378  Biso   1.000  S
  O1       1.0000 0.45600  0.30010  0.64380  Biso   1.000  O
  O2       1.0000 0.95600  0.80010  0.64380  Biso   1.000  O
  O3       1.0000 0.54400  0.30010  0.85620  Biso   1.000  O
  O4       1.0000 0.04400  0.80010  0.85620  Biso   1.000  O
  O5       1.0000 0.54400  0.69990  0.35620  Biso   1.000  O
  O6       1.0000 0.04400  0.19990  0.35620  Biso   1.000  O
  O7       1.0000 0.45600  0.69990  0.14380  Biso   1.000  O
  O8       1.0000 0.95600  0.19990  0.14380  Biso   1.000  O
  Cl1      1.0000 0.56200  0.53240  0.87710  Biso   1.000  Cl
  Cl2      1.0000 0.06200  0.03240  0.87710  Biso   1.000  Cl
  Cl3      1.0000 0.43800  0.53240  0.62290  Biso   1.000  Cl
  Cl4      1.0000 0.93800  0.03240  0.62290  Biso   1.000  Cl
  Cl5      1.0000 0.43800  0.46760  0.12290  Biso   1.000  Cl
  Cl6      1.0000 0.93800  0.96760  0.12290  Biso   1.000  Cl
  Cl7      1.0000 0.56200  0.46760  0.37710  Biso   1.000  Cl
  Cl8      1.0000 0.06200  0.96760  0.37710  Biso   1.000  Cl
  C1       1.0000 0.41610  0.27920  0.51770  Biso   1.000  C
  C2       1.0000 0.91610  0.77920  0.51770  Biso   1.000  C
  C3       1.0000 0.58390  0.27920  0.98230  Biso   1.000  C
  C4       1.0000 0.08390  0.77920  0.98230  Biso   1.000  C
  C5       1.0000 0.58390  0.72080  0.48230  Biso   1.000  C
  C6       1.0000 0.08390  0.22080  0.48230  Biso   1.000  C
  C7       1.0000 0.41610  0.72080  0.01770  Biso   1.000  C
  C8       1.0000 0.91610  0.22080  0.01770  Biso   1.000  C
  H1       1.0000 0.42130  0.22300  0.51220  Biso   1.000  H
  H2       1.0000 0.92130  0.72300  0.51220  Biso   1.000  H
  H3       1.0000 0.57870  0.22300  0.98780  Biso   1.000  H
  H4       1.0000 0.07870  0.72300  0.98780  Biso   1.000  H
  H5       1.0000 0.57870  0.77700  0.48780  Biso   1.000  H
  H6       1.0000 0.07870  0.27700  0.48780  Biso   1.000  H
  H7       1.0000 0.42130  0.77700  0.01220  Biso   1.000  H
  H8       1.0000 0.92130  0.27700  0.01220  Biso   1.000  H
  C9       1.0000 0.46150  0.32060  0.47660  Biso   1.000  C
  C10      1.0000 0.96150  0.82060  0.47660  Biso   1.000  C
  C11      1.0000 0.53850  0.32060  0.02340  Biso   1.000  C
  C12      1.0000 0.03850  0.82060  0.02340  Biso   1.000  C
  C13      1.0000 0.53850  0.67940  0.52340  Biso   1.000  C
  C14      1.0000 0.03850  0.17940  0.52340  Biso   1.000  C
  C15      1.0000 0.46150  0.67940  0.97660  Biso   1.000  C
  C16      1.0000 0.96150  0.17940  0.97660  Biso   1.000  C
  H9       1.0000 0.51970  0.30420  0.52530  Biso   1.000  H
  H10      1.0000 0.01970  0.80420  0.52530  Biso   1.000  H
  H11      1.0000 0.48030  0.30420  0.97470  Biso   1.000  H
  H12      1.0000 0.98030  0.80420  0.97470  Biso   1.000  H
  H13      1.0000 0.48030  0.69580  0.47470  Biso   1.000  H
  H14      1.0000 0.98030  0.19580  0.47470  Biso   1.000  H
  H15      1.0000 0.51970  0.69580  0.02530  Biso   1.000  H
  H16      1.0000 0.01970  0.19580  0.02530  Biso   1.000  H
  H17      1.0000 0.45890  0.37560  0.48550  Biso   1.000  H
  H18      1.0000 0.95890  0.87560  0.48550  Biso   1.000  H
  H19      1.0000 0.54110  0.37560  0.01450  Biso   1.000  H
  H20      1.0000 0.04110  0.87560  0.01450  Biso   1.000  H
  H21      1.0000 0.54110  0.62440  0.51450  Biso   1.000  H
  H22      1.0000 0.04110  0.12440  0.51450  Biso   1.000  H
  H23      1.0000 0.45890  0.62440  0.98550  Biso   1.000  H
  H24      1.0000 0.95890  0.12440  0.98550  Biso   1.000  H
  H25      1.0000 0.43530  0.30850  0.39260  Biso   1.000  H
  H26      1.0000 0.93530  0.80850  0.39260  Biso   1.000  H
  H27      1.0000 0.56470  0.30850  0.10740  Biso   1.000  H
  H28      1.0000 0.06470  0.80850  0.10740  Biso   1.000  H
  H29      1.0000 0.56470  0.69150  0.60740  Biso   1.000  H
  H30      1.0000 0.06470  0.19150  0.60740  Biso   1.000  H
  H31      1.0000 0.43530  0.69150  0.89260  Biso   1.000  H
  H32      1.0000 0.93530  0.19150  0.89260  Biso   1.000  H
  C17      1.0000 0.32340  0.30030  0.44530  Biso   1.000  C
  C18      1.0000 0.82340  0.80030  0.44530  Biso   1.000  C
  C19      1.0000 0.67660  0.30030  0.05470  Biso   1.000  C
  C20      1.0000 0.17660  0.80030  0.05470  Biso   1.000  C
  C21      1.0000 0.67660  0.69970  0.55470  Biso   1.000  C
  C22      1.0000 0.17660  0.19970  0.55470  Biso   1.000  C
  C23      1.0000 0.32340  0.69970  0.94530  Biso   1.000  C
  C24      1.0000 0.82340  0.19970  0.94530  Biso   1.000  C
  H33      1.0000 0.29780  0.27170  0.47590  Biso   1.000  H
  H34      1.0000 0.79780  0.77170  0.47590  Biso   1.000  H
  H35      1.0000 0.70220  0.27170  0.02410  Biso   1.000  H
  H36      1.0000 0.20220  0.77170  0.02410  Biso   1.000  H
  H37      1.0000 0.70220  0.72830  0.52410  Biso   1.000  H
  H38      1.0000 0.20220  0.22830  0.52410  Biso   1.000  H
  H39      1.0000 0.29780  0.72830  0.97590  Biso   1.000  H
  H40      1.0000 0.79780  0.22830  0.97590  Biso   1.000  H
  H41      1.0000 0.29550  0.28750  0.36110  Biso   1.000  H
  H42      1.0000 0.79550  0.78750  0.36110  Biso   1.000  H
  H43      1.0000 0.70450  0.28750  0.13890  Biso   1.000  H
  H44      1.0000 0.20450  0.78750  0.13890  Biso   1.000  H
  H45      1.0000 0.70450  0.71250  0.63890  Biso   1.000  H
  H46      1.0000 0.20450  0.21250  0.63890  Biso   1.000  H
  H47      1.0000 0.29550  0.71250  0.86110  Biso   1.000  H
  H48      1.0000 0.79550  0.21250  0.86110  Biso   1.000  H
  H49      1.0000 0.31800  0.35500  0.45290  Biso   1.000  H
  H50      1.0000 0.81800  0.85500  0.45290  Biso   1.000  H
  H51      1.0000 0.68200  0.35500  0.04710  Biso   1.000  H
  H52      1.0000 0.18200  0.85500  0.04710  Biso   1.000  H
  H53      1.0000 0.68200  0.64500  0.54710  Biso   1.000  H
  H54      1.0000 0.18200  0.14500  0.54710  Biso   1.000  H
  H55      1.0000 0.31800  0.64500  0.95290  Biso   1.000  H
  H56      1.0000 0.81800  0.14500  0.95290  Biso   1.000  H
  C25      1.0000 0.60280  0.89500  0.89800  Biso   1.000  C
  C26      1.0000 0.10280  0.39500  0.89800  Biso   1.000  C
  C27      1.0000 0.39720  0.89500  0.60200  Biso   1.000  C
  C28      1.0000 0.89720  0.39500  0.60200  Biso   1.000  C
  C29      1.0000 0.39720  0.10500  0.10200  Biso   1.000  C
  C30      1.0000 0.89720  0.60500  0.10200  Biso   1.000  C
  C31      1.0000 0.60280  0.10500  0.39800  Biso   1.000  C
  C32      1.0000 0.10280  0.60500  0.39800  Biso   1.000  C
  C33      1.0000 0.65200  0.89540  0.85580  Biso   1.000  C
  C34      1.0000 0.15200  0.39540  0.85580  Biso   1.000  C
  C35      1.0000 0.34800  0.89540  0.64420  Biso   1.000  C
  C36      1.0000 0.84800  0.39540  0.64420  Biso   1.000  C
  C37      1.0000 0.34800  0.10460  0.14420  Biso   1.000  C
  C38      1.0000 0.84800  0.60460  0.14420  Biso   1.000  C
  C39      1.0000 0.65200  0.10460  0.35580  Biso   1.000  C
  C40      1.0000 0.15200  0.60460  0.35580  Biso   1.000  C
  H57      1.0000 0.66700  0.94260  0.84040  Biso   1.000  H
  H58      1.0000 0.16700  0.44260  0.84040  Biso   1.000  H
  H59      1.0000 0.33300  0.94260  0.65960  Biso   1.000  H
  H60      1.0000 0.83300  0.44260  0.65960  Biso   1.000  H
  H61      1.0000 0.33300  0.05740  0.15960  Biso   1.000  H
  H62      1.0000 0.83300  0.55740  0.15960  Biso   1.000  H
  H63      1.0000 0.66700  0.05740  0.34040  Biso   1.000  H
  H64      1.0000 0.16700  0.55740  0.34040  Biso   1.000  H
  C41      1.0000 0.67860  0.82730  0.83670  Biso   1.000  C
  C42      1.0000 0.17860  0.32730  0.83670  Biso   1.000  C
  C43      1.0000 0.32140  0.82730  0.66330  Biso   1.000  C
  C44      1.0000 0.82140  0.32730  0.66330  Biso   1.000  C
  C45      1.0000 0.32140  0.17270  0.16330  Biso   1.000  C
  C46      1.0000 0.82140  0.67270  0.16330  Biso   1.000  C
  C47      1.0000 0.67860  0.17270  0.33670  Biso   1.000  C
  C48      1.0000 0.17860  0.67270  0.33670  Biso   1.000  C
  H65      1.0000 0.71310  0.82870  0.81110  Biso   1.000  H
  H66      1.0000 0.21310  0.32870  0.81110  Biso   1.000  H
  H67      1.0000 0.28690  0.82870  0.68890  Biso   1.000  H
  H68      1.0000 0.78690  0.32870  0.68890  Biso   1.000  H
  H69      1.0000 0.28690  0.17130  0.18890  Biso   1.000  H
  H70      1.0000 0.78690  0.67130  0.18890  Biso   1.000  H
  H71      1.0000 0.71310  0.17130  0.31110  Biso   1.000  H
  H72      1.0000 0.21310  0.67130  0.31110  Biso   1.000  H
  C49      1.0000 0.65480  0.75700  0.85490  Biso   1.000  C
  C50      1.0000 0.15480  0.25700  0.85490  Biso   1.000  C
  C51      1.0000 0.34520  0.75700  0.64510  Biso   1.000  C
  C52      1.0000 0.84520  0.25700  0.64510  Biso   1.000  C
  C53      1.0000 0.34520  0.24300  0.14510  Biso   1.000  C
  C54      1.0000 0.84520  0.74300  0.14510  Biso   1.000  C
  C55      1.0000 0.65480  0.24300  0.35490  Biso   1.000  C
  C56      1.0000 0.15480  0.74300  0.35490  Biso   1.000  C
  H73      1.0000 0.67130  0.71070  0.83940  Biso   1.000  H
  H74      1.0000 0.17130  0.21070  0.83940  Biso   1.000  H
  H75      1.0000 0.32870  0.71070  0.66060  Biso   1.000  H
  H76      1.0000 0.82870  0.21070  0.66060  Biso   1.000  H
  H77      1.0000 0.32870  0.28930  0.16060  Biso   1.000  H
  H78      1.0000 0.82870  0.78930  0.16060  Biso   1.000  H
  H79      1.0000 0.67130  0.28930  0.33940  Biso   1.000  H
  H80      1.0000 0.17130  0.78930  0.33940  Biso   1.000  H
  C57      1.0000 0.60620  0.75600  0.89650  Biso   1.000  C
  C58      1.0000 0.10620  0.25600  0.89650  Biso   1.000  C
  C59      1.0000 0.39380  0.75600  0.60350  Biso   1.000  C
  C60      1.0000 0.89380  0.25600  0.60350  Biso   1.000  C
  C61      1.0000 0.39380  0.24400  0.10350  Biso   1.000  C
  C62      1.0000 0.89380  0.74400  0.10350  Biso   1.000  C
  C63      1.0000 0.60620  0.24400  0.39650  Biso   1.000  C
  C64      1.0000 0.10620  0.74400  0.39650  Biso   1.000  C
  H81      1.0000 0.59080  0.70880  0.91120  Biso   1.000  H
  H82      1.0000 0.09080  0.20880  0.91120  Biso   1.000  H
  H83      1.0000 0.40920  0.70880  0.58880  Biso   1.000  H
  H84      1.0000 0.90920  0.20880  0.58880  Biso   1.000  H
  H85      1.0000 0.40920  0.29120  0.08880  Biso   1.000  H
  H86      1.0000 0.90920  0.79120  0.08880  Biso   1.000  H
  H87      1.0000 0.59080  0.29120  0.41120  Biso   1.000  H
  H88      1.0000 0.09080  0.79120  0.41120  Biso   1.000  H
  C65      1.0000 0.58070  0.82370  0.91630  Biso   1.000  C
  C66      1.0000 0.08070  0.32370  0.91630  Biso   1.000  C
  C67      1.0000 0.41930  0.82370  0.58370  Biso   1.000  C
  C68      1.0000 0.91930  0.32370  0.58370  Biso   1.000  C
  C69      1.0000 0.41930  0.17630  0.08370  Biso   1.000  C
  C70      1.0000 0.91930  0.67630  0.08370  Biso   1.000  C
  C71      1.0000 0.58070  0.17630  0.41630  Biso   1.000  C
  C72      1.0000 0.08070  0.67630  0.41630  Biso   1.000  C
  H89      1.0000 0.54710  0.82170  0.94320  Biso   1.000  H
  H90      1.0000 0.04710  0.32170  0.94320  Biso   1.000  H
  H91      1.0000 0.45290  0.82170  0.55680  Biso   1.000  H
  H92      1.0000 0.95290  0.32170  0.55680  Biso   1.000  H
  H93      1.0000 0.45290  0.17830  0.05680  Biso   1.000  H
  H94      1.0000 0.95290  0.67830  0.05680  Biso   1.000  H
  H95      1.0000 0.54710  0.17830  0.44320  Biso   1.000  H
  H96      1.0000 0.04710  0.67830  0.44320  Biso   1.000  H
  C73      1.0000 0.67300  0.01990  0.06440  Biso   1.000  C
  C74      1.0000 0.17300  0.51990  0.06440  Biso   1.000  C
  C75      1.0000 0.32700  0.01990  0.43560  Biso   1.000  C
  C76      1.0000 0.82700  0.51990  0.43560  Biso   1.000  C
  C77      1.0000 0.32700  0.98010  0.93560  Biso   1.000  C
  C78      1.0000 0.82700  0.48010  0.93560  Biso   1.000  C
  C79      1.0000 0.67300  0.98010  0.56440  Biso   1.000  C
  C80      1.0000 0.17300  0.48010  0.56440  Biso   1.000  C
  C81      1.0000 0.71190  0.97630  0.17060  Biso   1.000  C
  C82      1.0000 0.21190  0.47630  0.17060  Biso   1.000  C
  C83      1.0000 0.28810  0.97630  0.32940  Biso   1.000  C
  C84      1.0000 0.78810  0.47630  0.32940  Biso   1.000  C
  C85      1.0000 0.28810  0.02370  0.82940  Biso   1.000  C
  C86      1.0000 0.78810  0.52370  0.82940  Biso   1.000  C
  C87      1.0000 0.71190  0.02370  0.67060  Biso   1.000  C
  C88      1.0000 0.21190  0.52370  0.67060  Biso   1.000  C
  H97      1.0000 0.68660  0.93050  0.17040  Biso   1.000  H
  H98      1.0000 0.18660  0.43050  0.17040  Biso   1.000  H
  H99      1.0000 0.31340  0.93050  0.32960  Biso   1.000  H
  H100     1.0000 0.81340  0.43050  0.32960  Biso   1.000  H
  H101     1.0000 0.31340  0.06950  0.82960  Biso   1.000  H
  H102     1.0000 0.81340  0.56950  0.82960  Biso   1.000  H
  H103     1.0000 0.68660  0.06950  0.67040  Biso   1.000  H
  H104     1.0000 0.18660  0.56950  0.67040  Biso   1.000  H
  C89      1.0000 0.78670  0.99980  0.27530  Biso   1.000  C
  C90      1.0000 0.28670  0.49980  0.27530  Biso   1.000  C
  C91      1.0000 0.21330  0.99980  0.22470  Biso   1.000  C
  C92      1.0000 0.71330  0.49980  0.22470  Biso   1.000  C
  C93      1.0000 0.21330  0.00020  0.72470  Biso   1.000  C
  C94      1.0000 0.71330  0.50020  0.72470  Biso   1.000  C
  C95      1.0000 0.78670  0.00020  0.77530  Biso   1.000  C
  C96      1.0000 0.28670  0.50020  0.77530  Biso   1.000  C
  H105     1.0000 0.81210  0.96890  0.34460  Biso   1.000  H
  H106     1.0000 0.31210  0.46890  0.34460  Biso   1.000  H
  H107     1.0000 0.18790  0.96890  0.15540  Biso   1.000  H
  H108     1.0000 0.68790  0.46890  0.15540  Biso   1.000  H
  H109     1.0000 0.18790  0.03110  0.65540  Biso   1.000  H
  H110     1.0000 0.68790  0.53110  0.65540  Biso   1.000  H
  H111     1.0000 0.81210  0.03110  0.84460  Biso   1.000  H
  H112     1.0000 0.31210  0.53110  0.84460  Biso   1.000  H
  C97      1.0000 0.82530  0.06760  0.28100  Biso   1.000  C
  C98      1.0000 0.32530  0.56760  0.28100  Biso   1.000  C
  C99      1.0000 0.17470  0.06760  0.21900  Biso   1.000  C
  C100     1.0000 0.67470  0.56760  0.21900  Biso   1.000  C
  C101     1.0000 0.17470  0.93240  0.71900  Biso   1.000  C
  C102     1.0000 0.67470  0.43240  0.71900  Biso   1.000  C
  C103     1.0000 0.82530  0.93240  0.78100  Biso   1.000  C
  C104     1.0000 0.32530  0.43240  0.78100  Biso   1.000  C
  H113     1.0000 0.87510  0.08430  0.35360  Biso   1.000  H
  H114     1.0000 0.37510  0.58430  0.35360  Biso   1.000  H
  H115     1.0000 0.12490  0.08430  0.14640  Biso   1.000  H
  H116     1.0000 0.62490  0.58430  0.14640  Biso   1.000  H
  H117     1.0000 0.12490  0.91570  0.64640  Biso   1.000  H
  H118     1.0000 0.62490  0.41570  0.64640  Biso   1.000  H
  H119     1.0000 0.87510  0.91570  0.85360  Biso   1.000  H
  H120     1.0000 0.37510  0.41570  0.85360  Biso   1.000  H
  C105     1.0000 0.78790  0.11020  0.17560  Biso   1.000  C
  C106     1.0000 0.28790  0.61020  0.17560  Biso   1.000  C
  C107     1.0000 0.21210  0.11020  0.32440  Biso   1.000  C
  C108     1.0000 0.71210  0.61020  0.32440  Biso   1.000  C
  C109     1.0000 0.21210  0.88980  0.82440  Biso   1.000  C
  C110     1.0000 0.71210  0.38980  0.82440  Biso   1.000  C
  C111     1.0000 0.78790  0.88980  0.67560  Biso   1.000  C
  C112     1.0000 0.28790  0.38980  0.67560  Biso   1.000  C
  H121     1.0000 0.81420  0.15530  0.17580  Biso   1.000  H
  H122     1.0000 0.31420  0.65530  0.17580  Biso   1.000  H
  H123     1.0000 0.18580  0.15530  0.32420  Biso   1.000  H
  H124     1.0000 0.68580  0.65530  0.32420  Biso   1.000  H
  H125     1.0000 0.18580  0.84470  0.82420  Biso   1.000  H
  H126     1.0000 0.68580  0.34470  0.82420  Biso   1.000  H
  H127     1.0000 0.81420  0.84470  0.67580  Biso   1.000  H
  H128     1.0000 0.31420  0.34470  0.67580  Biso   1.000  H
  C113     1.0000 0.71130  0.08700  0.06840  Biso   1.000  C
  C114     1.0000 0.21130  0.58700  0.06840  Biso   1.000  C
  C115     1.0000 0.28870  0.08700  0.43160  Biso   1.000  C
  C116     1.0000 0.78870  0.58700  0.43160  Biso   1.000  C
  C117     1.0000 0.28870  0.91300  0.93160  Biso   1.000  C
  C118     1.0000 0.78870  0.41300  0.93160  Biso   1.000  C
  C119     1.0000 0.71130  0.91300  0.56840  Biso   1.000  C
  C120     1.0000 0.21130  0.41300  0.56840  Biso   1.000  C
  H129     1.0000 0.68600  0.11760  0.99890  Biso   1.000  H
  H130     1.0000 0.18600  0.61760  0.99890  Biso   1.000  H
  H131     1.0000 0.31400  0.11760  0.50110  Biso   1.000  H
  H132     1.0000 0.81400  0.61760  0.50110  Biso   1.000  H
  H133     1.0000 0.31400  0.88240  0.00110  Biso   1.000  H
  H134     1.0000 0.81400  0.38240  0.00110  Biso   1.000  H
  H135     1.0000 0.68600  0.88240  0.49890  Biso   1.000  H
  H136     1.0000 0.18600  0.38240  0.49890  Biso   1.000  H
  C121     1.0000 0.50910  0.96430  0.97720  Biso   1.000  C
  C122     1.0000 0.00910  0.46430  0.97720  Biso   1.000  C
  C123     1.0000 0.49090  0.96430  0.52280  Biso   1.000  C
  C124     1.0000 0.99090  0.46430  0.52280  Biso   1.000  C
  C125     1.0000 0.49090  0.03570  0.02280  Biso   1.000  C
  C126     1.0000 0.99090  0.53570  0.02280  Biso   1.000  C
  C127     1.0000 0.50910  0.03570  0.47720  Biso   1.000  C
  C128     1.0000 0.00910  0.53570  0.47720  Biso   1.000  C
  H137     1.0000 0.45610  0.94080  0.91140  Biso   1.000  H
  H138     1.0000 0.95610  0.44080  0.91140  Biso   1.000  H
  H139     1.0000 0.54390  0.94080  0.58860  Biso   1.000  H
  H140     1.0000 0.04390  0.44080  0.58860  Biso   1.000  H
  H141     1.0000 0.54390  0.05920  0.08860  Biso   1.000  H
  H142     1.0000 0.04390  0.55920  0.08860  Biso   1.000  H
  H143     1.0000 0.45610  0.05920  0.41140  Biso   1.000  H
  H144     1.0000 0.95610  0.55920  0.41140  Biso   1.000  H
  H145     1.0000 0.53980  0.92660  0.04260  Biso   1.000  H
  H146     1.0000 0.03980  0.42660  0.04260  Biso   1.000  H
  H147     1.0000 0.46020  0.92660  0.45740  Biso   1.000  H
  H148     1.0000 0.96020  0.42660  0.45740  Biso   1.000  H
  H149     1.0000 0.46020  0.07340  0.95740  Biso   1.000  H
  H150     1.0000 0.96020  0.57340  0.95740  Biso   1.000  H
  H151     1.0000 0.53980  0.07340  0.54260  Biso   1.000  H
  H152     1.0000 0.03980  0.57340  0.54260  Biso   1.000  H
  C129     1.0000 0.50000  0.47960  0.75000  Biso   1.000  C
  C130     1.0000 0.00000  0.97960  0.75000  Biso   1.000  C
  C131     1.0000 0.50000  0.52040  0.25000  Biso   1.000  C
  C132     1.0000 0.00000  0.02040  0.25000  Biso   1.000  C
