data_image0
_cell_length_a       11.752
_cell_length_b       13.127
_cell_length_c       13.268
_cell_angle_alpha    61.126
_cell_angle_beta     76.858
_cell_angle_gamma    68.48

_symmetry_space_group_name_H-M    "P 1"
_symmetry_int_tables_number       1

loop_
  _symmetry_equiv_pos_as_xyz
  'x, y, z'

loop_
  _atom_site_label
  _atom_site_occupancy
  _atom_site_fract_x
  _atom_site_fract_y
  _atom_site_fract_z
  _atom_site_thermal_displace_type
  _atom_site_B_iso_or_equiv
  _atom_site_type_symbol
  Cu1      1.0000 0.81366  0.31050  0.09328  Biso   1.000  Cu
  Cu2      1.0000 0.18634  0.68950  0.90672  Biso   1.000  Cu
  P1       1.0000 0.00934  0.31772  0.02199  Biso   1.000  P
  P2       1.0000 0.99066  0.68228  0.97801  Biso   1.000  P
  P3       1.0000 0.68371  0.39286  0.94981  Biso   1.000  P
  P4       1.0000 0.31629  0.60714  0.05019  Biso   1.000  P
  S1       1.0000 0.73240  0.39684  0.23330  Biso   1.000  S
  S2       1.0000 0.26760  0.60316  0.76670  Biso   1.000  S
  P5       1.0000 0.74310  0.22410  0.33821  Biso   1.000  P
  P6       1.0000 0.25690  0.77590  0.66179  Biso   1.000  P
  S3       1.0000 0.78920  0.12136  0.25750  Biso   1.000  S
  S4       1.0000 0.21080  0.87864  0.74250  Biso   1.000  S
  C1       1.0000 0.06570  0.27070  0.90500  Biso   1.000  C
  C2       1.0000 0.93430  0.72930  0.09500  Biso   1.000  C
  C3       1.0000 0.75550  0.46600  0.80590  Biso   1.000  C
  C4       1.0000 0.24450  0.53400  0.19410  Biso   1.000  C
  C5       1.0000 0.13770  0.22850  0.11600  Biso   1.000  C
  C6       1.0000 0.86230  0.77150  0.88400  Biso   1.000  C
  O1       1.0000 0.84460  0.16350  0.43210  Biso   1.000  O
  O2       1.0000 0.15540  0.83650  0.56790  Biso   1.000  O
  C7       1.0000 0.62900  0.29020  0.93070  Biso   1.000  C
  C8       1.0000 0.37100  0.70980  0.06930  Biso   1.000  C
  C9       1.0000 0.02330  0.47180  0.95750  Biso   1.000  C
  C10      1.0000 0.97670  0.52820  0.04250  Biso   1.000  C
  H1       1.0000 0.10860  0.46840  0.93400  Biso   1.000  H
  H2       1.0000 0.89140  0.53160  0.06600  Biso   1.000  H
  H3       1.0000 0.97660  0.52300  0.88920  Biso   1.000  H
  H4       1.0000 0.02340  0.47700  0.11080  Biso   1.000  H
  C11      1.0000 0.77990  0.57260  0.77400  Biso   1.000  C
  C12      1.0000 0.22010  0.42740  0.22600  Biso   1.000  C
  H5       1.0000 0.75470  0.60890  0.82390  Biso   1.000  H
  H6       1.0000 0.24530  0.39110  0.17610  Biso   1.000  H
  C13      1.0000 0.13460  0.32660  0.80760  Biso   1.000  C
  C14      1.0000 0.86540  0.67340  0.19240  Biso   1.000  C
  H7       1.0000 0.15170  0.39530  0.79640  Biso   1.000  H
  H8       1.0000 0.84830  0.60470  0.20360  Biso   1.000  H
  C15      1.0000 0.54400  0.51920  0.94840  Biso   1.000  C
  C16      1.0000 0.45600  0.48080  0.05160  Biso   1.000  C
  H9       1.0000 0.56780  0.58380  0.94580  Biso   1.000  H
  H10      1.0000 0.43220  0.41620  0.05420  Biso   1.000  H
  H11      1.0000 0.50240  0.55210  0.87900  Biso   1.000  H
  H12      1.0000 0.49760  0.44790  0.12100  Biso   1.000  H
  C17      1.0000 0.84080  0.62740  0.66980  Biso   1.000  C
  C18      1.0000 0.15920  0.37260  0.33020  Biso   1.000  C
  H13      1.0000 0.85590  0.69980  0.65020  Biso   1.000  H
  H14      1.0000 0.14410  0.30020  0.34980  Biso   1.000  H
  C19      1.0000 0.85540  0.46950  0.62620  Biso   1.000  C
  C20      1.0000 0.14460  0.53050  0.37380  Biso   1.000  C
  H15      1.0000 0.88080  0.43360  0.57600  Biso   1.000  H
  H16      1.0000 0.11920  0.56640  0.42400  Biso   1.000  H
  C21      1.0000 0.79510  0.41500  0.72950  Biso   1.000  C
  C22      1.0000 0.20490  0.58500  0.27050  Biso   1.000  C
  H17      1.0000 0.78050  0.34250  0.74840  Biso   1.000  H
  H18      1.0000 0.21950  0.65750  0.25160  Biso   1.000  H
  C23      1.0000 0.68840  0.16480  0.98460  Biso   1.000  C
  C24      1.0000 0.31160  0.83520  0.01540  Biso   1.000  C
  H19      1.0000 0.74890  0.13520  0.03490  Biso   1.000  H
  H20      1.0000 0.25110  0.86480  0.96510  Biso   1.000  H
  C25      1.0000 0.07860  0.12940  0.83320  Biso   1.000  C
  C26      1.0000 0.92140  0.87060  0.16680  Biso   1.000  C
  H21      1.0000 0.05900  0.06290  0.84200  Biso   1.000  H
  H22      1.0000 0.94100  0.93710  0.15800  Biso   1.000  H
  O3       1.0000 0.63100  0.20380  0.42750  Biso   1.000  O
  O4       1.0000 0.36900  0.79620  0.57250  Biso   1.000  O
  C27      1.0000 0.17870  0.28130  0.72600  Biso   1.000  C
  C28      1.0000 0.82130  0.71870  0.27400  Biso   1.000  C
  H23      1.0000 0.22810  0.31720  0.66240  Biso   1.000  H
  H24      1.0000 0.77190  0.68280  0.33760  Biso   1.000  H
  C29      1.0000 0.14910  0.18380  0.73980  Biso   1.000  C
  C30      1.0000 0.85090  0.81620  0.26020  Biso   1.000  C
  H25      1.0000 0.17750  0.15430  0.68460  Biso   1.000  H
  H26      1.0000 0.82250  0.84570  0.31540  Biso   1.000  H
  C31      1.0000 0.21560  0.09110  0.30110  Biso   1.000  C
  C32      1.0000 0.78440  0.90890  0.69890  Biso   1.000  C
  H27      1.0000 0.20140  0.04300  0.37910  Biso   1.000  H
  H28      1.0000 0.79860  0.95700  0.62090  Biso   1.000  H
  C33      1.0000 0.03610  0.17330  0.91530  Biso   1.000  C
  C34      1.0000 0.96390  0.82670  0.08470  Biso   1.000  C
  H29      1.0000 0.98670  0.13670  0.97840  Biso   1.000  H
  H30      1.0000 0.01330  0.86330  0.02160  Biso   1.000  H
  C35      1.0000 0.11870  0.15850  0.23000  Biso   1.000  C
  C36      1.0000 0.88130  0.84150  0.77000  Biso   1.000  C
  H31      1.0000 0.03990  0.15580  0.26080  Biso   1.000  H
  H32      1.0000 0.96010  0.84420  0.73920  Biso   1.000  H
  C37      1.0000 0.33200  0.09470  0.25760  Biso   1.000  C
  C38      1.0000 0.66800  0.90530  0.74240  Biso   1.000  C
  H33      1.0000 0.39640  0.04940  0.30630  Biso   1.000  H
  H34      1.0000 0.60360  0.95060  0.69370  Biso   1.000  H
  C39      1.0000 0.35450  0.16410  0.14350  Biso   1.000  C
  C40      1.0000 0.64550  0.83590  0.85650  Biso   1.000  C
  H35      1.0000 0.43360  0.16690  0.11380  Biso   1.000  H
  H36      1.0000 0.56640  0.83310  0.88620  Biso   1.000  H
  C41      1.0000 0.25700  0.23060  0.07270  Biso   1.000  C
  C42      1.0000 0.74300  0.76940  0.92730  Biso   1.000  C
  H37      1.0000 0.27150  0.27770  0.99450  Biso   1.000  H
  H38      1.0000 0.72850  0.72230  0.00550  Biso   1.000  H
  C43      1.0000 0.53700  0.33030  0.85880  Biso   1.000  C
  C44      1.0000 0.46300  0.66970  0.14120  Biso   1.000  C
  H39      1.0000 0.49510  0.41310  0.82300  Biso   1.000  H
  H40      1.0000 0.50490  0.58690  0.17700  Biso   1.000  H
  C45      1.0000 0.50680  0.24980  0.83970  Biso   1.000  C
  C46      1.0000 0.49320  0.75020  0.16030  Biso   1.000  C
  H41      1.0000 0.44450  0.27790  0.79170  Biso   1.000  H
  H42      1.0000 0.55550  0.72210  0.20830  Biso   1.000  H
  C47      1.0000 0.87870  0.57510  0.59590  Biso   1.000  C
  C48      1.0000 0.12130  0.42490  0.40410  Biso   1.000  C
  H43      1.0000 0.92000  0.61120  0.52560  Biso   1.000  H
  H44      1.0000 0.08000  0.38880  0.47440  Biso   1.000  H
  C49      1.0000 0.65880  0.08510  0.96420  Biso   1.000  C
  C50      1.0000 0.34120  0.91490  0.03580  Biso   1.000  C
  H45      1.0000 0.69990  0.00200  0.99990  Biso   1.000  H
  H46      1.0000 0.30010  0.99800  0.00010  Biso   1.000  H
  C51      1.0000 0.56960  0.12660  0.89220  Biso   1.000  C
  C52      1.0000 0.43040  0.87340  0.10780  Biso   1.000  C
  H47      1.0000 0.55060  0.07200  0.87800  Biso   1.000  H
  H48      1.0000 0.44940  0.92800  0.12200  Biso   1.000  H
  C53      1.0000 0.51760  0.22970  0.39380  Biso   1.000  C
  C54      1.0000 0.48240  0.77030  0.60620  Biso   1.000  C
  H49      1.0000 0.52530  0.19370  0.34270  Biso   1.000  H
  H50      1.0000 0.47470  0.80630  0.65730  Biso   1.000  H
  H51      1.0000 0.48200  0.31730  0.35220  Biso   1.000  H
  H52      1.0000 0.51800  0.68270  0.64780  Biso   1.000  H
  C55      1.0000 0.43590  0.17940  0.49810  Biso   1.000  C
  C56      1.0000 0.56410  0.82060  0.50190  Biso   1.000  C
  H53      1.0000 0.35660  0.19740  0.47450  Biso   1.000  H
  H54      1.0000 0.64340  0.80260  0.52550  Biso   1.000  H
  H55      1.0000 0.42770  0.21610  0.54790  Biso   1.000  H
  H56      1.0000 0.57230  0.78390  0.45210  Biso   1.000  H
  H57      1.0000 0.47110  0.09260  0.53860  Biso   1.000  H
  H58      1.0000 0.52890  0.90740  0.46140  Biso   1.000  H
  C57      1.0000 0.85420  0.21980  0.49410  Biso   1.000  C
  C58      1.0000 0.14580  0.78020  0.50590  Biso   1.000  C
  H59      1.0000 0.86890  0.29660  0.43880  Biso   1.000  H
  H60      1.0000 0.13110  0.70340  0.56120  Biso   1.000  H
  H61      1.0000 0.77480  0.23950  0.53340  Biso   1.000  H
  H62      1.0000 0.22520  0.76050  0.46660  Biso   1.000  H
  C59      1.0000 0.93510  0.16450  0.56950  Biso   1.000  C
  C60      1.0000 0.06490  0.83550  0.43050  Biso   1.000  C
  H63      1.0000 0.92780  0.21450  0.60610  Biso   1.000  H
  H64      1.0000 0.07220  0.78550  0.39390  Biso   1.000  H
  H65      1.0000 0.01550  0.14950  0.53210  Biso   1.000  H
  H66      1.0000 0.98450  0.85050  0.46790  Biso   1.000  H
  H67      1.0000 0.92240  0.08830  0.62640  Biso   1.000  H
  H68      1.0000 0.07760  0.91170  0.37360  Biso   1.000  H
  Cl1      1.0000 0.39180  0.47540  0.52210  Biso   1.000  Cl
  Cl2      1.0000 0.60820  0.52460  0.47790  Biso   1.000  Cl
  C61      1.0000 0.53600  0.44700  0.48100  Biso   1.000  C
  C62      1.0000 0.46400  0.55300  0.51900  Biso   1.000  C
