data_image0
_cell_length_a       7.18
_cell_length_b       13.2303
_cell_length_c       27.9383
_cell_angle_alpha    90
_cell_angle_beta     90.741
_cell_angle_gamma    90

_symmetry_space_group_name_H-M    "P 1"
_symmetry_int_tables_number       1

loop_
  _symmetry_equiv_pos_as_xyz
  'x, y, z'

loop_
  _atom_site_label
  _atom_site_occupancy
  _atom_site_fract_x
  _atom_site_fract_y
  _atom_site_fract_z
  _atom_site_thermal_displace_type
  _atom_site_B_iso_or_equiv
  _atom_site_type_symbol
  I1       1.0000 0.60988  0.99541  0.36787  Biso   1.000  I
  I2       1.0000 0.89012  0.49541  0.13213  Biso   1.000  I
  I3       1.0000 0.39012  0.00459  0.63213  Biso   1.000  I
  I4       1.0000 0.10988  0.50459  0.86787  Biso   1.000  I
  I5       1.0000 0.61501  0.94501  0.10018  Biso   1.000  I
  I6       1.0000 0.88499  0.44501  0.39982  Biso   1.000  I
  I7       1.0000 0.38499  0.05499  0.89982  Biso   1.000  I
  I8       1.0000 0.11501  0.55499  0.60018  Biso   1.000  I
  Cu1      1.0000 0.50363  0.82873  0.32943  Biso   1.000  Cu
  Cu2      1.0000 0.99637  0.32873  0.17057  Biso   1.000  Cu
  Cu3      1.0000 0.49637  0.17127  0.67057  Biso   1.000  Cu
  Cu4      1.0000 0.00363  0.67127  0.82943  Biso   1.000  Cu
  Cu5      1.0000 0.97229  0.92550  0.10723  Biso   1.000  Cu
  Cu6      1.0000 0.52771  0.42550  0.39277  Biso   1.000  Cu
  Cu7      1.0000 0.02771  0.07450  0.89277  Biso   1.000  Cu
  Cu8      1.0000 0.47229  0.57450  0.60723  Biso   1.000  Cu
  N1       1.0000 0.05260  0.93160  0.17670  Biso   1.000  N
  N2       1.0000 0.44740  0.43160  0.32330  Biso   1.000  N
  N3       1.0000 0.94740  0.06840  0.82330  Biso   1.000  N
  N4       1.0000 0.55260  0.56840  0.67670  Biso   1.000  N
  N5       1.0000 0.43120  0.84410  0.25760  Biso   1.000  N
  N6       1.0000 0.06880  0.34410  0.24240  Biso   1.000  N
  N7       1.0000 0.56880  0.15590  0.74240  Biso   1.000  N
  N8       1.0000 0.93120  0.65590  0.75760  Biso   1.000  N
  N9       1.0000 0.72280  0.75080  0.29890  Biso   1.000  N
  N10      1.0000 0.77720  0.25080  0.20110  Biso   1.000  N
  N11      1.0000 0.27720  0.24920  0.70110  Biso   1.000  N
  N12      1.0000 0.22280  0.74920  0.79890  Biso   1.000  N
  N13      1.0000 0.35140  0.76080  0.37850  Biso   1.000  N
  N14      1.0000 0.14860  0.26080  0.12150  Biso   1.000  N
  N15      1.0000 0.64860  0.23920  0.62150  Biso   1.000  N
  N16      1.0000 0.85140  0.73920  0.87850  Biso   1.000  N
  N17      1.0000 0.36430  0.51480  0.43840  Biso   1.000  N
  N18      1.0000 0.13570  0.01480  0.06160  Biso   1.000  N
  N19      1.0000 0.63570  0.48520  0.56160  Biso   1.000  N
  N20      1.0000 0.86430  0.98520  0.93840  Biso   1.000  N
  N21      1.0000 0.45220  0.31890  0.44230  Biso   1.000  N
  N22      1.0000 0.04780  0.81890  0.05770  Biso   1.000  N
  N23      1.0000 0.54780  0.68110  0.55770  Biso   1.000  N
  N24      1.0000 0.95220  0.18110  0.94230  Biso   1.000  N
  C1       1.0000 0.94110  0.97760  0.20910  Biso   1.000  C
  C2       1.0000 0.55890  0.47760  0.29090  Biso   1.000  C
  C3       1.0000 0.05890  0.02240  0.79090  Biso   1.000  C
  C4       1.0000 0.44110  0.52240  0.70910  Biso   1.000  C
  H1       1.0000 0.82620  0.00630  0.19870  Biso   1.000  H
  H2       1.0000 0.67380  0.50630  0.30130  Biso   1.000  H
  H3       1.0000 0.17380  0.99370  0.80130  Biso   1.000  H
  H4       1.0000 0.32620  0.49370  0.69870  Biso   1.000  H
  C5       1.0000 0.99130  0.98350  0.25670  Biso   1.000  C
  C6       1.0000 0.50870  0.48350  0.24330  Biso   1.000  C
  C7       1.0000 0.00870  0.01650  0.74330  Biso   1.000  C
  C8       1.0000 0.49130  0.51650  0.75670  Biso   1.000  C
  H5       1.0000 0.91470  0.01760  0.27900  Biso   1.000  H
  H6       1.0000 0.58530  0.51760  0.22100  Biso   1.000  H
  H7       1.0000 0.08530  0.98240  0.72100  Biso   1.000  H
  H8       1.0000 0.41470  0.48240  0.77900  Biso   1.000  H
  C9       1.0000 0.15670  0.93840  0.27130  Biso   1.000  C
  C10      1.0000 0.34330  0.43840  0.22870  Biso   1.000  C
  C11      1.0000 0.84330  0.06160  0.72870  Biso   1.000  C
  C12      1.0000 0.65670  0.56160  0.77130  Biso   1.000  C
  H9       1.0000 0.19480  0.94070  0.30400  Biso   1.000  H
  H10      1.0000 0.30520  0.44070  0.19600  Biso   1.000  H
  H11      1.0000 0.80520  0.05930  0.69600  Biso   1.000  H
  H12      1.0000 0.69480  0.55930  0.80400  Biso   1.000  H
  C13      1.0000 0.26400  0.89080  0.23850  Biso   1.000  C
  C14      1.0000 0.23600  0.39080  0.26150  Biso   1.000  C
  C15      1.0000 0.73600  0.10920  0.76150  Biso   1.000  C
  C16      1.0000 0.76400  0.60920  0.73850  Biso   1.000  C
  C17      1.0000 0.21090  0.88710  0.19250  Biso   1.000  C
  C18      1.0000 0.28910  0.38710  0.30750  Biso   1.000  C
  C19      1.0000 0.78910  0.11290  0.80750  Biso   1.000  C
  C20      1.0000 0.71090  0.61290  0.69250  Biso   1.000  C
  H13      1.0000 0.28670  0.85220  0.17030  Biso   1.000  H
  H14      1.0000 0.21330  0.35220  0.32970  Biso   1.000  H
  H15      1.0000 0.71330  0.14780  0.82970  Biso   1.000  H
  H16      1.0000 0.78670  0.64780  0.67030  Biso   1.000  H
  C21      1.0000 0.55890  0.80790  0.23040  Biso   1.000  C
  C22      1.0000 0.94110  0.30790  0.26960  Biso   1.000  C
  C23      1.0000 0.44110  0.19210  0.76960  Biso   1.000  C
  C24      1.0000 0.05890  0.69210  0.73040  Biso   1.000  C
  H17      1.0000 0.54640  0.81470  0.19660  Biso   1.000  H
  H18      1.0000 0.95360  0.31470  0.30340  Biso   1.000  H
  H19      1.0000 0.45360  0.18530  0.80340  Biso   1.000  H
  H20      1.0000 0.04640  0.68530  0.69660  Biso   1.000  H
  C25      1.0000 0.72020  0.75720  0.25020  Biso   1.000  C
  C26      1.0000 0.77980  0.25720  0.24980  Biso   1.000  C
  C27      1.0000 0.27980  0.24280  0.74980  Biso   1.000  C
  C28      1.0000 0.22020  0.74280  0.75020  Biso   1.000  C
  C29      1.0000 0.85530  0.71420  0.22300  Biso   1.000  C
  C30      1.0000 0.64470  0.21420  0.27700  Biso   1.000  C
  C31      1.0000 0.14470  0.28580  0.77700  Biso   1.000  C
  C32      1.0000 0.35530  0.78580  0.72300  Biso   1.000  C
  H21      1.0000 0.84780  0.71940  0.18910  Biso   1.000  H
  H22      1.0000 0.65220  0.21940  0.31090  Biso   1.000  H
  H23      1.0000 0.15220  0.28060  0.81090  Biso   1.000  H
  H24      1.0000 0.34780  0.78060  0.68910  Biso   1.000  H
  C33      1.0000 0.00170  0.66360  0.24400  Biso   1.000  C
  C34      1.0000 0.49830  0.16360  0.25600  Biso   1.000  C
  C35      1.0000 0.99830  0.33640  0.75600  Biso   1.000  C
  C36      1.0000 0.50170  0.83640  0.74400  Biso   1.000  C
  H25      1.0000 0.09550  0.63340  0.22500  Biso   1.000  H
  H26      1.0000 0.40450  0.13340  0.27500  Biso   1.000  H
  H27      1.0000 0.90450  0.36660  0.77500  Biso   1.000  H
  H28      1.0000 0.59550  0.86660  0.72500  Biso   1.000  H
  C37      1.0000 0.00960  0.65760  0.29300  Biso   1.000  C
  C38      1.0000 0.49040  0.15760  0.20700  Biso   1.000  C
  C39      1.0000 0.99040  0.34240  0.70700  Biso   1.000  C
  C40      1.0000 0.50960  0.84240  0.79300  Biso   1.000  C
  H29      1.0000 0.11010  0.62430  0.30880  Biso   1.000  H
  H30      1.0000 0.38990  0.12430  0.19120  Biso   1.000  H
  H31      1.0000 0.88990  0.37570  0.69120  Biso   1.000  H
  H32      1.0000 0.61010  0.87570  0.80880  Biso   1.000  H
  C41      1.0000 0.86750  0.70130  0.31860  Biso   1.000  C
  C42      1.0000 0.63250  0.20130  0.18140  Biso   1.000  C
  C43      1.0000 0.13250  0.29870  0.68140  Biso   1.000  C
  C44      1.0000 0.36750  0.79870  0.81860  Biso   1.000  C
  H33      1.0000 0.87250  0.69590  0.35250  Biso   1.000  H
  H34      1.0000 0.62750  0.19590  0.14750  Biso   1.000  H
  H35      1.0000 0.12750  0.30410  0.64750  Biso   1.000  H
  H36      1.0000 0.37250  0.80410  0.85250  Biso   1.000  H
  C45      1.0000 0.23620  0.81150  0.40620  Biso   1.000  C
  C46      1.0000 0.26380  0.31150  0.09380  Biso   1.000  C
  C47      1.0000 0.76380  0.18850  0.59380  Biso   1.000  C
  C48      1.0000 0.73620  0.68850  0.90620  Biso   1.000  C
  H37      1.0000 0.21220  0.88040  0.39880  Biso   1.000  H
  H38      1.0000 0.28780  0.38040  0.10120  Biso   1.000  H
  H39      1.0000 0.78780  0.11960  0.60120  Biso   1.000  H
  H40      1.0000 0.71220  0.61960  0.89880  Biso   1.000  H
  C49      1.0000 0.14670  0.76900  0.44620  Biso   1.000  C
  C50      1.0000 0.35330  0.26900  0.05380  Biso   1.000  C
  C51      1.0000 0.85330  0.23100  0.55380  Biso   1.000  C
  C52      1.0000 0.64670  0.73100  0.94620  Biso   1.000  C
  H41      1.0000 0.05880  0.80720  0.46380  Biso   1.000  H
  H42      1.0000 0.44120  0.30720  0.03620  Biso   1.000  H
  H43      1.0000 0.94120  0.19280  0.53620  Biso   1.000  H
  H44      1.0000 0.55880  0.69280  0.96380  Biso   1.000  H
  C53      1.0000 0.18840  0.67230  0.45930  Biso   1.000  C
  C54      1.0000 0.31160  0.17230  0.04070  Biso   1.000  C
  C55      1.0000 0.81160  0.32770  0.54070  Biso   1.000  C
  C56      1.0000 0.68840  0.82770  0.95930  Biso   1.000  C
  H45      1.0000 0.13560  0.64300  0.48700  Biso   1.000  H
  H46      1.0000 0.36440  0.14300  0.01300  Biso   1.000  H
  H47      1.0000 0.86440  0.35700  0.51300  Biso   1.000  H
  H48      1.0000 0.63560  0.85700  0.98700  Biso   1.000  H
  C57      1.0000 0.31010  0.61740  0.43100  Biso   1.000  C
  C58      1.0000 0.18990  0.11740  0.06900  Biso   1.000  C
  C59      1.0000 0.68990  0.38260  0.56900  Biso   1.000  C
  C60      1.0000 0.81010  0.88260  0.93100  Biso   1.000  C
  C61      1.0000 0.38790  0.66270  0.39140  Biso   1.000  C
  C62      1.0000 0.11210  0.16270  0.10860  Biso   1.000  C
  C63      1.0000 0.61210  0.33730  0.60860  Biso   1.000  C
  C64      1.0000 0.88790  0.83730  0.89140  Biso   1.000  C
  H49      1.0000 0.47040  0.62420  0.37240  Biso   1.000  H
  H50      1.0000 0.02960  0.12420  0.12760  Biso   1.000  H
  H51      1.0000 0.52960  0.37580  0.62760  Biso   1.000  H
  H52      1.0000 0.97040  0.87580  0.87240  Biso   1.000  H
  C65      1.0000 0.29900  0.46260  0.47250  Biso   1.000  C
  C66      1.0000 0.20100  0.96260  0.02750  Biso   1.000  C
  C67      1.0000 0.70100  0.53740  0.52750  Biso   1.000  C
  C68      1.0000 0.79900  0.03740  0.97250  Biso   1.000  C
  H53      1.0000 0.21500  0.49320  0.49410  Biso   1.000  H
  H54      1.0000 0.28500  0.99320  0.00590  Biso   1.000  H
  H55      1.0000 0.78500  0.50680  0.50590  Biso   1.000  H
  H56      1.0000 0.71500  0.00680  0.99410  Biso   1.000  H
  C69      1.0000 0.34920  0.35820  0.47910  Biso   1.000  C
  C70      1.0000 0.15080  0.85820  0.02090  Biso   1.000  C
  C71      1.0000 0.65080  0.64180  0.52090  Biso   1.000  C
  C72      1.0000 0.84920  0.14180  0.97910  Biso   1.000  C
  C73      1.0000 0.30450  0.30080  0.51860  Biso   1.000  C
  C74      1.0000 0.19550  0.80080  0.98140  Biso   1.000  C
  C75      1.0000 0.69550  0.69920  0.48140  Biso   1.000  C
  C76      1.0000 0.80450  0.19920  0.01860  Biso   1.000  C
  H57      1.0000 0.23410  0.33050  0.54350  Biso   1.000  H
  H58      1.0000 0.26590  0.83050  0.95650  Biso   1.000  H
  H59      1.0000 0.76590  0.66950  0.45650  Biso   1.000  H
  H60      1.0000 0.73410  0.16950  0.04350  Biso   1.000  H
  C77      1.0000 0.35950  0.20230  0.52280  Biso   1.000  C
  C78      1.0000 0.14050  0.70230  0.97720  Biso   1.000  C
  C79      1.0000 0.64050  0.79770  0.47720  Biso   1.000  C
  C80      1.0000 0.85950  0.29770  0.02280  Biso   1.000  C
  H61      1.0000 0.32600  0.16220  0.54960  Biso   1.000  H
  H62      1.0000 0.17400  0.66220  0.95040  Biso   1.000  H
  H63      1.0000 0.67400  0.83780  0.45040  Biso   1.000  H
  H64      1.0000 0.82600  0.33780  0.04960  Biso   1.000  H
  C81      1.0000 0.46850  0.16290  0.48540  Biso   1.000  C
  C82      1.0000 0.03150  0.66290  0.01460  Biso   1.000  C
  C83      1.0000 0.53150  0.83710  0.51460  Biso   1.000  C
  C84      1.0000 0.96850  0.33710  0.98540  Biso   1.000  C
  H65      1.0000 0.51340  0.09550  0.48720  Biso   1.000  H
  H66      1.0000 0.98660  0.59550  0.01280  Biso   1.000  H
  H67      1.0000 0.48660  0.90450  0.51280  Biso   1.000  H
  H68      1.0000 0.01340  0.40450  0.98720  Biso   1.000  H
  C85      1.0000 0.50980  0.22230  0.44620  Biso   1.000  C
  C86      1.0000 0.99020  0.72230  0.05380  Biso   1.000  C
  C87      1.0000 0.49020  0.77770  0.55380  Biso   1.000  C
  C88      1.0000 0.00980  0.27770  0.94620  Biso   1.000  C
  H69      1.0000 0.58140  0.19400  0.42120  Biso   1.000  H
  H70      1.0000 0.91860  0.69400  0.07880  Biso   1.000  H
  H71      1.0000 0.41860  0.80600  0.57880  Biso   1.000  H
  H72      1.0000 0.08140  0.30600  0.92120  Biso   1.000  H
