data_image0
_cell_length_a       11.839
_cell_length_b       9.108
_cell_length_c       21.319
_cell_angle_alpha    90
_cell_angle_beta     90
_cell_angle_gamma    90

_symmetry_space_group_name_H-M    "P 1"
_symmetry_int_tables_number       1

loop_
  _symmetry_equiv_pos_as_xyz
  'x, y, z'

loop_
  _atom_site_label
  _atom_site_occupancy
  _atom_site_fract_x
  _atom_site_fract_y
  _atom_site_fract_z
  _atom_site_thermal_displace_type
  _atom_site_B_iso_or_equiv
  _atom_site_type_symbol
  Mo1      1.0000 0.45340  0.96659  0.83315  Biso   1.000  Mo
  Mo2      1.0000 0.95340  0.46659  0.66685  Biso   1.000  Mo
  Mo3      1.0000 0.45340  0.03341  0.33315  Biso   1.000  Mo
  Mo4      1.0000 0.04660  0.46659  0.83315  Biso   1.000  Mo
  Mo5      1.0000 0.54660  0.03341  0.16685  Biso   1.000  Mo
  Mo6      1.0000 0.04660  0.53341  0.33315  Biso   1.000  Mo
  Mo7      1.0000 0.54660  0.96659  0.66685  Biso   1.000  Mo
  Mo8      1.0000 0.95340  0.53341  0.16685  Biso   1.000  Mo
  Cu1      1.0000 0.34433  0.36438  0.84565  Biso   1.000  Cu
  Cu2      1.0000 0.84433  0.86438  0.65435  Biso   1.000  Cu
  Cu3      1.0000 0.34433  0.63562  0.34565  Biso   1.000  Cu
  Cu4      1.0000 0.15567  0.86438  0.84565  Biso   1.000  Cu
  Cu5      1.0000 0.65567  0.63562  0.15435  Biso   1.000  Cu
  Cu6      1.0000 0.15567  0.13562  0.34565  Biso   1.000  Cu
  Cu7      1.0000 0.65567  0.36438  0.65435  Biso   1.000  Cu
  Cu8      1.0000 0.84433  0.13562  0.15435  Biso   1.000  Cu
  O1       1.0000 0.37730  0.12790  0.84115  Biso   1.000  O
  O2       1.0000 0.87730  0.62790  0.65885  Biso   1.000  O
  O3       1.0000 0.37730  0.87210  0.34115  Biso   1.000  O
  O4       1.0000 0.12270  0.62790  0.84115  Biso   1.000  O
  O5       1.0000 0.62270  0.87210  0.15885  Biso   1.000  O
  O6       1.0000 0.12270  0.37210  0.34115  Biso   1.000  O
  O7       1.0000 0.62270  0.12790  0.65885  Biso   1.000  O
  O8       1.0000 0.87730  0.37210  0.15885  Biso   1.000  O
  O9       1.0000 0.37120  0.81860  0.85402  Biso   1.000  O
  O10      1.0000 0.87120  0.31860  0.64598  Biso   1.000  O
  O11      1.0000 0.37120  0.18140  0.35402  Biso   1.000  O
  O12      1.0000 0.12880  0.31860  0.85402  Biso   1.000  O
  O13      1.0000 0.62880  0.18140  0.14598  Biso   1.000  O
  O14      1.0000 0.12880  0.68140  0.35402  Biso   1.000  O
  O15      1.0000 0.62880  0.81860  0.64598  Biso   1.000  O
  O16      1.0000 0.87120  0.68140  0.14598  Biso   1.000  O
  O17      1.0000 0.50000  0.94320  0.75000  Biso   1.000  O
  O18      1.0000 0.00000  0.44320  0.75000  Biso   1.000  O
  O19      1.0000 0.50000  0.05680  0.25000  Biso   1.000  O
  O20      1.0000 0.00000  0.55680  0.25000  Biso   1.000  O
  O21      1.0000 0.43060  0.97320  0.61930  Biso   1.000  O
  O22      1.0000 0.93060  0.47320  0.88070  Biso   1.000  O
  O23      1.0000 0.43060  0.02680  0.11930  Biso   1.000  O
  O24      1.0000 0.06940  0.47320  0.61930  Biso   1.000  O
  O25      1.0000 0.56940  0.02680  0.38070  Biso   1.000  O
  O26      1.0000 0.06940  0.52680  0.11930  Biso   1.000  O
  O27      1.0000 0.56940  0.97320  0.88070  Biso   1.000  O
  O28      1.0000 0.93060  0.52680  0.38070  Biso   1.000  O
  N1       1.0000 0.35750  0.58300  0.25812  Biso   1.000  N
  N2       1.0000 0.85750  0.08300  0.24188  Biso   1.000  N
  N3       1.0000 0.35750  0.41700  0.75812  Biso   1.000  N
  N4       1.0000 0.14250  0.08300  0.25812  Biso   1.000  N
  N5       1.0000 0.64250  0.41700  0.74188  Biso   1.000  N
  N6       1.0000 0.14250  0.91700  0.75812  Biso   1.000  N
  N7       1.0000 0.64250  0.58300  0.24188  Biso   1.000  N
  N8       1.0000 0.85750  0.91700  0.74188  Biso   1.000  N
  N9       1.0000 0.35470  0.40750  0.93425  Biso   1.000  N
  N10      1.0000 0.85470  0.90750  0.56575  Biso   1.000  N
  N11      1.0000 0.35470  0.59250  0.43425  Biso   1.000  N
  N12      1.0000 0.14530  0.90750  0.93425  Biso   1.000  N
  N13      1.0000 0.64530  0.59250  0.06575  Biso   1.000  N
  N14      1.0000 0.14530  0.09250  0.43425  Biso   1.000  N
  N15      1.0000 0.64530  0.40750  0.56575  Biso   1.000  N
  N16      1.0000 0.85470  0.09250  0.06575  Biso   1.000  N
  C1       1.0000 0.35890  0.44270  0.23870  Biso   1.000  C
  C2       1.0000 0.85890  0.94270  0.26130  Biso   1.000  C
  C3       1.0000 0.35890  0.55730  0.73870  Biso   1.000  C
  C4       1.0000 0.14110  0.94270  0.23870  Biso   1.000  C
  C5       1.0000 0.64110  0.55730  0.76130  Biso   1.000  C
  C6       1.0000 0.14110  0.05730  0.73870  Biso   1.000  C
  C7       1.0000 0.64110  0.44270  0.26130  Biso   1.000  C
  C8       1.0000 0.85890  0.05730  0.76130  Biso   1.000  C
  H1       1.0000 0.35800  0.37000  0.26750  Biso   1.000  H
  H2       1.0000 0.85800  0.87000  0.23250  Biso   1.000  H
  H3       1.0000 0.35800  0.63000  0.76750  Biso   1.000  H
  H4       1.0000 0.14200  0.87000  0.26750  Biso   1.000  H
  H5       1.0000 0.64200  0.63000  0.73250  Biso   1.000  H
  H6       1.0000 0.14200  0.13000  0.76750  Biso   1.000  H
  H7       1.0000 0.64200  0.37000  0.23250  Biso   1.000  H
  H8       1.0000 0.85800  0.13000  0.73250  Biso   1.000  H
  C9       1.0000 0.36350  0.40320  0.17640  Biso   1.000  C
  C10      1.0000 0.86350  0.90320  0.32360  Biso   1.000  C
  C11      1.0000 0.36350  0.59680  0.67640  Biso   1.000  C
  C12      1.0000 0.13650  0.90320  0.17640  Biso   1.000  C
  C13      1.0000 0.63650  0.59680  0.82360  Biso   1.000  C
  C14      1.0000 0.13650  0.09680  0.67640  Biso   1.000  C
  C15      1.0000 0.63650  0.40320  0.32360  Biso   1.000  C
  C16      1.0000 0.86350  0.09680  0.82360  Biso   1.000  C
  H9       1.0000 0.36000  0.29800  0.16670  Biso   1.000  H
  H10      1.0000 0.86000  0.79800  0.33330  Biso   1.000  H
  H11      1.0000 0.36000  0.70200  0.66670  Biso   1.000  H
  H12      1.0000 0.14000  0.79800  0.16670  Biso   1.000  H
  H13      1.0000 0.64000  0.70200  0.83330  Biso   1.000  H
  H14      1.0000 0.14000  0.20200  0.66670  Biso   1.000  H
  H15      1.0000 0.64000  0.29800  0.33330  Biso   1.000  H
  H16      1.0000 0.86000  0.20200  0.83330  Biso   1.000  H
  C17      1.0000 0.36410  0.51100  0.13010  Biso   1.000  C
  C18      1.0000 0.86410  0.01100  0.36990  Biso   1.000  C
  C19      1.0000 0.36410  0.48900  0.63010  Biso   1.000  C
  C20      1.0000 0.13590  0.01100  0.13010  Biso   1.000  C
  C21      1.0000 0.63590  0.48900  0.86990  Biso   1.000  C
  C22      1.0000 0.13590  0.98900  0.63010  Biso   1.000  C
  C23      1.0000 0.63590  0.51100  0.36990  Biso   1.000  C
  C24      1.0000 0.86410  0.98900  0.86990  Biso   1.000  C
  C25      1.0000 0.36440  0.65630  0.15000  Biso   1.000  C
  C26      1.0000 0.86440  0.15630  0.35000  Biso   1.000  C
  C27      1.0000 0.36440  0.34370  0.65000  Biso   1.000  C
  C28      1.0000 0.13560  0.15630  0.15000  Biso   1.000  C
  C29      1.0000 0.63560  0.34370  0.85000  Biso   1.000  C
  C30      1.0000 0.13560  0.84370  0.65000  Biso   1.000  C
  C31      1.0000 0.63560  0.65630  0.35000  Biso   1.000  C
  C32      1.0000 0.86440  0.84370  0.85000  Biso   1.000  C
  H17      1.0000 0.36800  0.73300  0.12030  Biso   1.000  H
  H18      1.0000 0.86800  0.23300  0.37970  Biso   1.000  H
  H19      1.0000 0.36800  0.26700  0.62030  Biso   1.000  H
  H20      1.0000 0.13200  0.23300  0.12030  Biso   1.000  H
  H21      1.0000 0.63200  0.26700  0.87970  Biso   1.000  H
  H22      1.0000 0.13200  0.76700  0.62030  Biso   1.000  H
  H23      1.0000 0.63200  0.73300  0.37970  Biso   1.000  H
  H24      1.0000 0.86800  0.76700  0.87970  Biso   1.000  H
  C33      1.0000 0.36240  0.68700  0.21350  Biso   1.000  C
  C34      1.0000 0.86240  0.18700  0.28650  Biso   1.000  C
  C35      1.0000 0.36240  0.31300  0.71350  Biso   1.000  C
  C36      1.0000 0.13760  0.18700  0.21350  Biso   1.000  C
  C37      1.0000 0.63760  0.31300  0.78650  Biso   1.000  C
  C38      1.0000 0.13760  0.81300  0.71350  Biso   1.000  C
  C39      1.0000 0.63760  0.68700  0.28650  Biso   1.000  C
  C40      1.0000 0.86240  0.81300  0.78650  Biso   1.000  C
  H25      1.0000 0.35900  0.78900  0.22820  Biso   1.000  H
  H26      1.0000 0.85900  0.28900  0.27180  Biso   1.000  H
  H27      1.0000 0.35900  0.21100  0.72820  Biso   1.000  H
  H28      1.0000 0.14100  0.28900  0.22820  Biso   1.000  H
  H29      1.0000 0.64100  0.21100  0.77180  Biso   1.000  H
  H30      1.0000 0.14100  0.71100  0.72820  Biso   1.000  H
  H31      1.0000 0.64100  0.78900  0.27180  Biso   1.000  H
  H32      1.0000 0.85900  0.71100  0.77180  Biso   1.000  H
  C41      1.0000 0.36160  0.47330  0.06210  Biso   1.000  C
  C42      1.0000 0.86160  0.97330  0.43790  Biso   1.000  C
  C43      1.0000 0.36160  0.52670  0.56210  Biso   1.000  C
  C44      1.0000 0.13840  0.97330  0.06210  Biso   1.000  C
  C45      1.0000 0.63840  0.52670  0.93790  Biso   1.000  C
  C46      1.0000 0.13840  0.02670  0.56210  Biso   1.000  C
  C47      1.0000 0.63840  0.47330  0.43790  Biso   1.000  C
  C48      1.0000 0.86160  0.02670  0.93790  Biso   1.000  C
  C49      1.0000 0.30440  0.56220  0.02010  Biso   1.000  C
  C50      1.0000 0.80440  0.06220  0.47990  Biso   1.000  C
  C51      1.0000 0.30440  0.43780  0.52010  Biso   1.000  C
  C52      1.0000 0.19560  0.06220  0.02010  Biso   1.000  C
  C53      1.0000 0.69560  0.43780  0.97990  Biso   1.000  C
  C54      1.0000 0.19560  0.93780  0.52010  Biso   1.000  C
  C55      1.0000 0.69560  0.56220  0.47990  Biso   1.000  C
  C56      1.0000 0.80440  0.93780  0.97990  Biso   1.000  C
  H33      1.0000 0.27200  0.64100  0.03400  Biso   1.000  H
  H34      1.0000 0.77200  0.14100  0.46600  Biso   1.000  H
  H35      1.0000 0.27200  0.35900  0.53400  Biso   1.000  H
  H36      1.0000 0.22800  0.14100  0.03400  Biso   1.000  H
  H37      1.0000 0.72800  0.35900  0.96600  Biso   1.000  H
  H38      1.0000 0.22800  0.85900  0.53400  Biso   1.000  H
  H39      1.0000 0.72800  0.64100  0.46600  Biso   1.000  H
  H40      1.0000 0.77200  0.85900  0.96600  Biso   1.000  H
  C57      1.0000 0.30380  0.52670  0.95700  Biso   1.000  C
  C58      1.0000 0.80380  0.02670  0.54300  Biso   1.000  C
  C59      1.0000 0.30380  0.47330  0.45700  Biso   1.000  C
  C60      1.0000 0.19620  0.02670  0.95700  Biso   1.000  C
  C61      1.0000 0.69620  0.47330  0.04300  Biso   1.000  C
  C62      1.0000 0.19620  0.97330  0.45700  Biso   1.000  C
  C63      1.0000 0.69620  0.52670  0.54300  Biso   1.000  C
  C64      1.0000 0.80380  0.97330  0.04300  Biso   1.000  C
  H41      1.0000 0.73700  0.41500  0.06700  Biso   1.000  H
  H42      1.0000 0.23700  0.91500  0.43300  Biso   1.000  H
  H43      1.0000 0.73700  0.58500  0.56700  Biso   1.000  H
  H44      1.0000 0.76300  0.91500  0.06700  Biso   1.000  H
  H45      1.0000 0.26300  0.58500  0.93300  Biso   1.000  H
  H46      1.0000 0.76300  0.08500  0.56700  Biso   1.000  H
  H47      1.0000 0.26300  0.41500  0.43300  Biso   1.000  H
  H48      1.0000 0.23700  0.08500  0.93300  Biso   1.000  H
  C65      1.0000 0.59050  0.67910  0.02520  Biso   1.000  C
  C66      1.0000 0.09050  0.17910  0.47480  Biso   1.000  C
  C67      1.0000 0.59050  0.32090  0.52520  Biso   1.000  C
  C68      1.0000 0.90950  0.17910  0.02520  Biso   1.000  C
  C69      1.0000 0.40950  0.32090  0.97480  Biso   1.000  C
  C70      1.0000 0.90950  0.82090  0.52520  Biso   1.000  C
  C71      1.0000 0.40950  0.67910  0.47480  Biso   1.000  C
  C72      1.0000 0.09050  0.82090  0.97480  Biso   1.000  C
  H49      1.0000 0.55400  0.76500  0.04110  Biso   1.000  H
  H50      1.0000 0.05400  0.26500  0.45890  Biso   1.000  H
  H51      1.0000 0.55400  0.23500  0.54110  Biso   1.000  H
  H52      1.0000 0.94600  0.26500  0.04110  Biso   1.000  H
  H53      1.0000 0.44600  0.23500  0.95890  Biso   1.000  H
  H54      1.0000 0.94600  0.73500  0.54110  Biso   1.000  H
  H55      1.0000 0.44600  0.76500  0.45890  Biso   1.000  H
  H56      1.0000 0.05400  0.73500  0.95890  Biso   1.000  H
  C73      1.0000 0.41530  0.35060  0.03860  Biso   1.000  C
  C74      1.0000 0.91530  0.85060  0.46140  Biso   1.000  C
  C75      1.0000 0.41530  0.64940  0.53860  Biso   1.000  C
  C76      1.0000 0.08470  0.85060  0.03860  Biso   1.000  C
  C77      1.0000 0.58470  0.64940  0.96140  Biso   1.000  C
  C78      1.0000 0.08470  0.14940  0.53860  Biso   1.000  C
  C79      1.0000 0.58470  0.35060  0.46140  Biso   1.000  C
  C80      1.0000 0.91530  0.14940  0.96140  Biso   1.000  C
  H57      1.0000 0.46000  0.29000  0.06500  Biso   1.000  H
  H58      1.0000 0.96000  0.79000  0.43500  Biso   1.000  H
  H59      1.0000 0.46000  0.71000  0.56500  Biso   1.000  H
  H60      1.0000 0.04000  0.79000  0.06500  Biso   1.000  H
  H61      1.0000 0.54000  0.71000  0.93500  Biso   1.000  H
  H62      1.0000 0.04000  0.21000  0.56500  Biso   1.000  H
  H63      1.0000 0.54000  0.29000  0.43500  Biso   1.000  H
  H64      1.0000 0.96000  0.21000  0.93500  Biso   1.000  H
