data_image0
_cell_length_a       11.8408
_cell_length_b       9.105
_cell_length_c       21.3108
_cell_angle_alpha    90
_cell_angle_beta     90
_cell_angle_gamma    90

_symmetry_space_group_name_H-M    "P 1"
_symmetry_int_tables_number       1

loop_
  _symmetry_equiv_pos_as_xyz
  'x, y, z'

loop_
  _atom_site_label
  _atom_site_occupancy
  _atom_site_fract_x
  _atom_site_fract_y
  _atom_site_fract_z
  _atom_site_thermal_displace_type
  _atom_site_B_iso_or_equiv
  _atom_site_type_symbol
  Mo1      1.0000 0.45340  0.46657  0.83314  Biso   1.000  Mo
  Mo2      1.0000 0.95340  0.96657  0.66686  Biso   1.000  Mo
  Mo3      1.0000 0.45340  0.53343  0.33314  Biso   1.000  Mo
  Mo4      1.0000 0.04660  0.96657  0.83314  Biso   1.000  Mo
  Mo5      1.0000 0.54660  0.53343  0.16686  Biso   1.000  Mo
  Mo6      1.0000 0.04660  0.03343  0.33314  Biso   1.000  Mo
  Mo7      1.0000 0.54660  0.46657  0.66686  Biso   1.000  Mo
  Mo8      1.0000 0.95340  0.03343  0.16686  Biso   1.000  Mo
  Cu1      1.0000 0.34426  0.86444  0.84562  Biso   1.000  Cu
  Cu2      1.0000 0.84426  0.36444  0.65438  Biso   1.000  Cu
  Cu3      1.0000 0.34426  0.13556  0.34562  Biso   1.000  Cu
  Cu4      1.0000 0.15574  0.36444  0.84562  Biso   1.000  Cu
  Cu5      1.0000 0.65574  0.13556  0.15438  Biso   1.000  Cu
  Cu6      1.0000 0.15574  0.63556  0.34562  Biso   1.000  Cu
  Cu7      1.0000 0.65574  0.86444  0.65438  Biso   1.000  Cu
  Cu8      1.0000 0.84426  0.63556  0.15438  Biso   1.000  Cu
  O1       1.0000 0.50000  0.44360  0.75000  Biso   1.000  O
  O2       1.0000 0.00000  0.94360  0.75000  Biso   1.000  O
  O3       1.0000 0.50000  0.55640  0.25000  Biso   1.000  O
  O4       1.0000 0.00000  0.05640  0.25000  Biso   1.000  O
  O5       1.0000 0.56810  0.47400  0.88100  Biso   1.000  O
  O6       1.0000 0.06810  0.97400  0.61900  Biso   1.000  O
  O7       1.0000 0.56810  0.52600  0.38100  Biso   1.000  O
  O8       1.0000 0.93190  0.97400  0.88100  Biso   1.000  O
  O9       1.0000 0.43190  0.52600  0.11900  Biso   1.000  O
  O10      1.0000 0.93190  0.02600  0.38100  Biso   1.000  O
  O11      1.0000 0.43190  0.47400  0.61900  Biso   1.000  O
  O12      1.0000 0.06810  0.02600  0.11900  Biso   1.000  O
  O13      1.0000 0.37120  0.31950  0.85413  Biso   1.000  O
  O14      1.0000 0.87120  0.81950  0.64587  Biso   1.000  O
  O15      1.0000 0.37120  0.68050  0.35413  Biso   1.000  O
  O16      1.0000 0.12880  0.81950  0.85413  Biso   1.000  O
  O17      1.0000 0.62880  0.68050  0.14587  Biso   1.000  O
  O18      1.0000 0.12880  0.18050  0.35413  Biso   1.000  O
  O19      1.0000 0.62880  0.31950  0.64587  Biso   1.000  O
  O20      1.0000 0.87120  0.18050  0.14587  Biso   1.000  O
  O21      1.0000 0.37820  0.62710  0.84116  Biso   1.000  O
  O22      1.0000 0.87820  0.12710  0.65884  Biso   1.000  O
  O23      1.0000 0.37820  0.37290  0.34116  Biso   1.000  O
  O24      1.0000 0.12180  0.12710  0.84116  Biso   1.000  O
  O25      1.0000 0.62180  0.37290  0.15884  Biso   1.000  O
  O26      1.0000 0.12180  0.87290  0.34116  Biso   1.000  O
  O27      1.0000 0.62180  0.62710  0.65884  Biso   1.000  O
  O28      1.0000 0.87820  0.87290  0.15884  Biso   1.000  O
  N1       1.0000 0.35640  0.91660  0.75795  Biso   1.000  N
  N2       1.0000 0.85640  0.41660  0.74205  Biso   1.000  N
  N3       1.0000 0.35640  0.08340  0.25795  Biso   1.000  N
  N4       1.0000 0.14360  0.41660  0.75795  Biso   1.000  N
  N5       1.0000 0.64360  0.08340  0.24205  Biso   1.000  N
  N6       1.0000 0.14360  0.58340  0.25795  Biso   1.000  N
  N7       1.0000 0.64360  0.91660  0.74205  Biso   1.000  N
  N8       1.0000 0.85640  0.58340  0.24205  Biso   1.000  N
  N9       1.0000 0.35450  0.09350  0.43392  Biso   1.000  N
  N10      1.0000 0.85450  0.59350  0.06608  Biso   1.000  N
  N11      1.0000 0.35450  0.90650  0.93392  Biso   1.000  N
  N12      1.0000 0.14550  0.59350  0.43392  Biso   1.000  N
  N13      1.0000 0.64550  0.90650  0.56608  Biso   1.000  N
  N14      1.0000 0.14550  0.40650  0.93392  Biso   1.000  N
  N15      1.0000 0.64550  0.09350  0.06608  Biso   1.000  N
  N16      1.0000 0.85450  0.40650  0.56608  Biso   1.000  N
  C1       1.0000 0.35900  0.05740  0.73890  Biso   1.000  C
  C2       1.0000 0.85900  0.55740  0.76110  Biso   1.000  C
  C3       1.0000 0.35900  0.94260  0.23890  Biso   1.000  C
  C4       1.0000 0.14100  0.55740  0.73890  Biso   1.000  C
  C5       1.0000 0.64100  0.94260  0.26110  Biso   1.000  C
  C6       1.0000 0.14100  0.44260  0.23890  Biso   1.000  C
  C7       1.0000 0.64100  0.05740  0.76110  Biso   1.000  C
  C8       1.0000 0.85900  0.44260  0.26110  Biso   1.000  C
  H1       1.0000 0.35740  0.13130  0.76900  Biso   1.000  H
  H2       1.0000 0.85740  0.63130  0.73100  Biso   1.000  H
  H3       1.0000 0.35740  0.86870  0.26900  Biso   1.000  H
  H4       1.0000 0.14260  0.63130  0.76900  Biso   1.000  H
  H5       1.0000 0.64260  0.86870  0.23100  Biso   1.000  H
  H6       1.0000 0.14260  0.36870  0.26900  Biso   1.000  H
  H7       1.0000 0.64260  0.13130  0.73100  Biso   1.000  H
  H8       1.0000 0.85740  0.36870  0.23100  Biso   1.000  H
  C9       1.0000 0.36410  0.09630  0.67630  Biso   1.000  C
  C10      1.0000 0.86410  0.59630  0.82370  Biso   1.000  C
  C11      1.0000 0.36410  0.90370  0.17630  Biso   1.000  C
  C12      1.0000 0.13590  0.59630  0.67630  Biso   1.000  C
  C13      1.0000 0.63590  0.90370  0.32370  Biso   1.000  C
  C14      1.0000 0.13590  0.40370  0.17630  Biso   1.000  C
  C15      1.0000 0.63590  0.09630  0.82370  Biso   1.000  C
  C16      1.0000 0.86410  0.40370  0.32370  Biso   1.000  C
  H9       1.0000 0.36690  0.19490  0.66510  Biso   1.000  H
  H10      1.0000 0.86690  0.69490  0.83490  Biso   1.000  H
  H11      1.0000 0.36690  0.80510  0.16510  Biso   1.000  H
  H12      1.0000 0.13310  0.69490  0.66510  Biso   1.000  H
  H13      1.0000 0.63310  0.80510  0.33490  Biso   1.000  H
  H14      1.0000 0.13310  0.30510  0.16510  Biso   1.000  H
  H15      1.0000 0.63310  0.19490  0.83490  Biso   1.000  H
  H16      1.0000 0.86690  0.30510  0.33490  Biso   1.000  H
  C17      1.0000 0.36490  0.98790  0.63000  Biso   1.000  C
  C18      1.0000 0.86490  0.48790  0.87000  Biso   1.000  C
  C19      1.0000 0.36490  0.01210  0.13000  Biso   1.000  C
  C20      1.0000 0.13510  0.48790  0.63000  Biso   1.000  C
  C21      1.0000 0.63510  0.01210  0.37000  Biso   1.000  C
  C22      1.0000 0.13510  0.51210  0.13000  Biso   1.000  C
  C23      1.0000 0.63510  0.98790  0.87000  Biso   1.000  C
  C24      1.0000 0.86490  0.51210  0.37000  Biso   1.000  C
  C25      1.0000 0.36630  0.84420  0.64990  Biso   1.000  C
  C26      1.0000 0.86630  0.34420  0.85010  Biso   1.000  C
  C27      1.0000 0.36630  0.15580  0.14990  Biso   1.000  C
  C28      1.0000 0.13370  0.34420  0.64990  Biso   1.000  C
  C29      1.0000 0.63370  0.15580  0.35010  Biso   1.000  C
  C30      1.0000 0.13370  0.65580  0.14990  Biso   1.000  C
  C31      1.0000 0.63370  0.84420  0.85010  Biso   1.000  C
  C32      1.0000 0.86630  0.65580  0.35010  Biso   1.000  C
  H17      1.0000 0.37000  0.76830  0.62080  Biso   1.000  H
  H18      1.0000 0.87000  0.26830  0.87920  Biso   1.000  H
  H19      1.0000 0.37000  0.23170  0.12080  Biso   1.000  H
  H20      1.0000 0.13000  0.26830  0.62080  Biso   1.000  H
  H21      1.0000 0.63000  0.23170  0.37920  Biso   1.000  H
  H22      1.0000 0.13000  0.73170  0.12080  Biso   1.000  H
  H23      1.0000 0.63000  0.76830  0.87920  Biso   1.000  H
  H24      1.0000 0.87000  0.73170  0.37920  Biso   1.000  H
  C33      1.0000 0.36230  0.81290  0.71340  Biso   1.000  C
  C34      1.0000 0.86230  0.31290  0.78660  Biso   1.000  C
  C35      1.0000 0.36230  0.18710  0.21340  Biso   1.000  C
  C36      1.0000 0.13770  0.31290  0.71340  Biso   1.000  C
  C37      1.0000 0.63770  0.18710  0.28660  Biso   1.000  C
  C38      1.0000 0.13770  0.68710  0.21340  Biso   1.000  C
  C39      1.0000 0.63770  0.81290  0.78660  Biso   1.000  C
  C40      1.0000 0.86230  0.68710  0.28660  Biso   1.000  C
  H25      1.0000 0.36380  0.71500  0.72580  Biso   1.000  H
  H26      1.0000 0.86380  0.21500  0.77420  Biso   1.000  H
  H27      1.0000 0.36380  0.28500  0.22580  Biso   1.000  H
  H28      1.0000 0.13620  0.21500  0.72580  Biso   1.000  H
  H29      1.0000 0.63620  0.28500  0.27420  Biso   1.000  H
  H30      1.0000 0.13620  0.78500  0.22580  Biso   1.000  H
  H31      1.0000 0.63620  0.71500  0.77420  Biso   1.000  H
  H32      1.0000 0.86380  0.78500  0.27420  Biso   1.000  H
  C41      1.0000 0.36230  0.02660  0.56270  Biso   1.000  C
  C42      1.0000 0.86230  0.52660  0.93730  Biso   1.000  C
  C43      1.0000 0.36230  0.97340  0.06270  Biso   1.000  C
  C44      1.0000 0.13770  0.52660  0.56270  Biso   1.000  C
  C45      1.0000 0.63770  0.97340  0.43730  Biso   1.000  C
  C46      1.0000 0.13770  0.47340  0.06270  Biso   1.000  C
  C47      1.0000 0.63770  0.02660  0.93730  Biso   1.000  C
  C48      1.0000 0.86230  0.47340  0.43730  Biso   1.000  C
  C49      1.0000 0.30430  0.93850  0.51980  Biso   1.000  C
  C50      1.0000 0.80430  0.43850  0.98020  Biso   1.000  C
  C51      1.0000 0.30430  0.06150  0.01980  Biso   1.000  C
  C52      1.0000 0.19570  0.43850  0.51980  Biso   1.000  C
  C53      1.0000 0.69570  0.06150  0.48020  Biso   1.000  C
  C54      1.0000 0.19570  0.56150  0.01980  Biso   1.000  C
  C55      1.0000 0.69570  0.93850  0.98020  Biso   1.000  C
  C56      1.0000 0.80430  0.56150  0.48020  Biso   1.000  C
  H33      1.0000 0.26600  0.85550  0.53380  Biso   1.000  H
  H34      1.0000 0.76600  0.35550  0.96620  Biso   1.000  H
  H35      1.0000 0.26600  0.14450  0.03380  Biso   1.000  H
  H36      1.0000 0.23400  0.35550  0.53380  Biso   1.000  H
  H37      1.0000 0.73400  0.14450  0.46620  Biso   1.000  H
  H38      1.0000 0.23400  0.64450  0.03380  Biso   1.000  H
  H39      1.0000 0.73400  0.85550  0.96620  Biso   1.000  H
  H40      1.0000 0.76600  0.64450  0.46620  Biso   1.000  H
  C57      1.0000 0.30360  0.97340  0.45740  Biso   1.000  C
  C58      1.0000 0.80360  0.47340  0.04260  Biso   1.000  C
  C59      1.0000 0.30360  0.02660  0.95740  Biso   1.000  C
  C60      1.0000 0.19640  0.47340  0.45740  Biso   1.000  C
  C61      1.0000 0.69640  0.02660  0.54260  Biso   1.000  C
  C62      1.0000 0.19640  0.52660  0.95740  Biso   1.000  C
  C63      1.0000 0.69640  0.97340  0.04260  Biso   1.000  C
  C64      1.0000 0.80360  0.52660  0.54260  Biso   1.000  C
  H41      1.0000 0.26610  0.91110  0.42990  Biso   1.000  H
  H42      1.0000 0.76610  0.41110  0.07010  Biso   1.000  H
  H43      1.0000 0.26610  0.08890  0.92990  Biso   1.000  H
  H44      1.0000 0.23390  0.41110  0.42990  Biso   1.000  H
  H45      1.0000 0.73390  0.08890  0.57010  Biso   1.000  H
  H46      1.0000 0.23390  0.58890  0.92990  Biso   1.000  H
  H47      1.0000 0.73390  0.91110  0.07010  Biso   1.000  H
  H48      1.0000 0.76610  0.58890  0.57010  Biso   1.000  H
  C65      1.0000 0.41510  0.14910  0.53850  Biso   1.000  C
  C66      1.0000 0.91510  0.64910  0.96150  Biso   1.000  C
  C67      1.0000 0.41510  0.85090  0.03850  Biso   1.000  C
  C68      1.0000 0.08490  0.64910  0.53850  Biso   1.000  C
  C69      1.0000 0.58490  0.85090  0.46150  Biso   1.000  C
  C70      1.0000 0.08490  0.35090  0.03850  Biso   1.000  C
  C71      1.0000 0.58490  0.14910  0.96150  Biso   1.000  C
  C72      1.0000 0.91510  0.35090  0.46150  Biso   1.000  C
  H49      1.0000 0.45440  0.21210  0.56510  Biso   1.000  H
  H50      1.0000 0.95440  0.71210  0.93490  Biso   1.000  H
  H51      1.0000 0.45440  0.78790  0.06510  Biso   1.000  H
  H52      1.0000 0.04560  0.71210  0.56510  Biso   1.000  H
  H53      1.0000 0.54560  0.78790  0.43490  Biso   1.000  H
  H54      1.0000 0.04560  0.28790  0.06510  Biso   1.000  H
  H55      1.0000 0.54560  0.21210  0.93490  Biso   1.000  H
  H56      1.0000 0.95440  0.28790  0.43490  Biso   1.000  H
  C73      1.0000 0.40990  0.17870  0.47490  Biso   1.000  C
  C74      1.0000 0.90990  0.67870  0.02510  Biso   1.000  C
  C75      1.0000 0.40990  0.82130  0.97490  Biso   1.000  C
  C76      1.0000 0.09010  0.67870  0.47490  Biso   1.000  C
  C77      1.0000 0.59010  0.82130  0.52510  Biso   1.000  C
  C78      1.0000 0.09010  0.32130  0.97490  Biso   1.000  C
  C79      1.0000 0.59010  0.17870  0.02510  Biso   1.000  C
  C80      1.0000 0.90990  0.32130  0.52510  Biso   1.000  C
  H57      1.0000 0.44670  0.26170  0.45980  Biso   1.000  H
  H58      1.0000 0.94670  0.76170  0.04020  Biso   1.000  H
  H59      1.0000 0.44670  0.73830  0.95980  Biso   1.000  H
  H60      1.0000 0.05330  0.76170  0.45980  Biso   1.000  H
  H61      1.0000 0.55330  0.73830  0.54020  Biso   1.000  H
  H62      1.0000 0.05330  0.23830  0.95980  Biso   1.000  H
  H63      1.0000 0.55330  0.26170  0.04020  Biso   1.000  H
  H64      1.0000 0.94670  0.23830  0.54020  Biso   1.000  H
