data_image0
_cell_length_a       10.589
_cell_length_b       11.988
_cell_length_c       17.077
_cell_angle_alpha    92.549
_cell_angle_beta     92.113
_cell_angle_gamma    99.377

_symmetry_space_group_name_H-M    "P 1"
_symmetry_int_tables_number       1

loop_
  _symmetry_equiv_pos_as_xyz
  'x, y, z'

loop_
  _atom_site_label
  _atom_site_occupancy
  _atom_site_fract_x
  _atom_site_fract_y
  _atom_site_fract_z
  _atom_site_thermal_displace_type
  _atom_site_B_iso_or_equiv
  _atom_site_type_symbol
  Cu1      1.0000 0.38903  0.13958  0.56020  Biso   1.000  Cu
  Cu2      1.0000 0.61097  0.86042  0.43980  Biso   1.000  Cu
  Cu3      1.0000 0.56763  0.94957  0.63352  Biso   1.000  Cu
  Cu4      1.0000 0.43237  0.05043  0.36648  Biso   1.000  Cu
  Cu5      1.0000 0.58485  0.45881  0.36782  Biso   1.000  Cu
  Cu6      1.0000 0.41515  0.54119  0.63218  Biso   1.000  Cu
  Cu7      1.0000 0.40276  0.65100  0.44043  Biso   1.000  Cu
  Cu8      1.0000 0.59724  0.34900  0.55957  Biso   1.000  Cu
  Cl1      1.0000 0.50000  0.00000  0.50000  Biso   1.000  Cl
  Cl2      1.0000 0.50000  0.50000  0.50000  Biso   1.000  Cl
  P1       1.0000 0.85530  0.60834  0.31284  Biso   1.000  P
  P2       1.0000 0.14470  0.39166  0.68716  Biso   1.000  P
  P3       1.0000 0.82380  0.07957  0.70616  Biso   1.000  P
  P4       1.0000 0.17620  0.92043  0.29384  Biso   1.000  P
  N1       1.0000 0.38920  0.10570  0.66720  Biso   1.000  N
  N2       1.0000 0.61080  0.89430  0.33280  Biso   1.000  N
  N3       1.0000 0.45470  0.02660  0.69710  Biso   1.000  N
  N4       1.0000 0.54530  0.97340  0.30290  Biso   1.000  N
  N5       1.0000 0.36620  0.10370  0.79360  Biso   1.000  N
  N6       1.0000 0.63380  0.89630  0.20640  Biso   1.000  N
  N7       1.0000 0.36130  0.18530  0.39490  Biso   1.000  N
  N8       1.0000 0.63870  0.81470  0.60510  Biso   1.000  N
  N9       1.0000 0.33570  0.21080  0.47080  Biso   1.000  N
  N10      1.0000 0.66430  0.78920  0.52920  Biso   1.000  N
  N11      1.0000 0.24120  0.31630  0.39630  Biso   1.000  N
  N12      1.0000 0.75880  0.68370  0.60370  Biso   1.000  N
  N13      1.0000 0.33990  0.67530  0.60530  Biso   1.000  N
  N14      1.0000 0.66010  0.32470  0.39470  Biso   1.000  N
  N15      1.0000 0.33300  0.71200  0.52940  Biso   1.000  N
  N16      1.0000 0.66700  0.28800  0.47060  Biso   1.000  N
  N17      1.0000 0.21090  0.79790  0.60190  Biso   1.000  N
  N18      1.0000 0.78910  0.20210  0.39810  Biso   1.000  N
  C1       1.0000 0.43850  0.02400  0.77130  Biso   1.000  C
  C2       1.0000 0.56150  0.97600  0.22870  Biso   1.000  C
  H1       1.0000 0.47100  0.97530  0.80470  Biso   1.000  H
  H2       1.0000 0.52900  0.02470  0.19530  Biso   1.000  H
  C3       1.0000 0.33510  0.14720  0.72590  Biso   1.000  C
  C4       1.0000 0.66490  0.85280  0.27410  Biso   1.000  C
  H3       1.0000 0.28120  0.20080  0.72170  Biso   1.000  H
  H4       1.0000 0.71880  0.79920  0.27830  Biso   1.000  H
  C5       1.0000 0.33210  0.13010  0.87160  Biso   1.000  C
  C6       1.0000 0.66790  0.86990  0.12840  Biso   1.000  C
  C7       1.0000 0.27700  0.18820  0.02340  Biso   1.000  C
  C8       1.0000 0.72300  0.81180  0.97660  Biso   1.000  C
  C9       1.0000 0.31340  0.08960  0.00500  Biso   1.000  C
  C10      1.0000 0.68660  0.91040  0.99500  Biso   1.000  C
  H5       1.0000 0.31810  0.03760  0.04350  Biso   1.000  H
  H6       1.0000 0.68190  0.96240  0.95650  Biso   1.000  H
  C11      1.0000 0.34410  0.06380  0.92890  Biso   1.000  C
  C12      1.0000 0.65590  0.93620  0.07110  Biso   1.000  C
  H7       1.0000 0.37440  0.99640  0.91830  Biso   1.000  H
  H8       1.0000 0.62560  0.00360  0.08170  Biso   1.000  H
  C13      1.0000 0.30440  0.24940  0.35150  Biso   1.000  C
  C14      1.0000 0.69560  0.75060  0.64850  Biso   1.000  C
  H9       1.0000 0.30670  0.24960  0.29710  Biso   1.000  H
  H10      1.0000 0.69330  0.75040  0.70290  Biso   1.000  H
  C15      1.0000 0.26580  0.29230  0.47100  Biso   1.000  C
  C16      1.0000 0.73420  0.70770  0.52900  Biso   1.000  C
  H11      1.0000 0.23800  0.32730  0.51530  Biso   1.000  H
  H12      1.0000 0.76200  0.67270  0.48470  Biso   1.000  H
  C17      1.0000 0.15890  0.39280  0.37230  Biso   1.000  C
  C18      1.0000 0.84110  0.60720  0.62770  Biso   1.000  C
  C19      1.0000 0.09840  0.37780  0.29910  Biso   1.000  C
  C20      1.0000 0.90160  0.62220  0.70090  Biso   1.000  C
  H13      1.0000 0.11550  0.32120  0.26390  Biso   1.000  H
  H14      1.0000 0.88450  0.67880  0.73610  Biso   1.000  H
  C21      1.0000 0.01310  0.44630  0.27840  Biso   1.000  C
  C22      1.0000 0.98690  0.55370  0.72160  Biso   1.000  C
  H15      1.0000 0.97450  0.43820  0.22820  Biso   1.000  H
  H16      1.0000 0.02550  0.56180  0.77180  Biso   1.000  H
  C23      1.0000 0.98310  0.52870  0.33180  Biso   1.000  C
  C24      1.0000 0.01690  0.47130  0.66820  Biso   1.000  C
  C25      1.0000 0.04810  0.54250  0.40380  Biso   1.000  C
  C26      1.0000 0.95190  0.45750  0.59620  Biso   1.000  C
  H17      1.0000 0.03190  0.59880  0.43960  Biso   1.000  H
  H18      1.0000 0.96810  0.40120  0.56040  Biso   1.000  H
  C27      1.0000 0.13600  0.47560  0.42420  Biso   1.000  C
  C28      1.0000 0.86400  0.52440  0.57580  Biso   1.000  C
  H19      1.0000 0.17950  0.48670  0.47300  Biso   1.000  H
  H20      1.0000 0.82050  0.51330  0.52700  Biso   1.000  H
  C29      1.0000 0.26780  0.72500  0.64730  Biso   1.000  C
  C30      1.0000 0.73220  0.27500  0.35270  Biso   1.000  C
  H21      1.0000 0.25500  0.71430  0.70020  Biso   1.000  H
  H22      1.0000 0.74500  0.28570  0.29980  Biso   1.000  H
  C31      1.0000 0.25740  0.78880  0.53160  Biso   1.000  C
  C32      1.0000 0.74260  0.21120  0.46840  Biso   1.000  C
  H23      1.0000 0.23920  0.83090  0.48940  Biso   1.000  H
  H24      1.0000 0.76080  0.16910  0.51060  Biso   1.000  H
  C33      1.0000 0.12090  0.86670  0.62730  Biso   1.000  C
  C34      1.0000 0.87910  0.13330  0.37270  Biso   1.000  C
  C35      1.0000 0.12190  0.90550  0.70240  Biso   1.000  C
  C36      1.0000 0.87810  0.09450  0.29760  Biso   1.000  C
  H25      1.0000 0.18270  0.88690  0.73800  Biso   1.000  H
  H26      1.0000 0.81730  0.11310  0.26200  Biso   1.000  H
  C37      1.0000 0.02840  0.88960  0.57240  Biso   1.000  C
  C38      1.0000 0.97160  0.11040  0.42760  Biso   1.000  C
  H27      1.0000 0.02610  0.86170  0.52060  Biso   1.000  H
  H28      1.0000 0.97390  0.13830  0.47940  Biso   1.000  H
  C39      1.0000 0.94150  0.95440  0.59760  Biso   1.000  C
  C40      1.0000 0.05850  0.04560  0.40240  Biso   1.000  C
  H29      1.0000 0.87930  0.97030  0.56180  Biso   1.000  H
  H30      1.0000 0.12070  0.02970  0.43820  Biso   1.000  H
  C41      1.0000 0.94230  0.99720  0.67410  Biso   1.000  C
  C42      1.0000 0.05770  0.00280  0.32590  Biso   1.000  C
  C43      1.0000 0.03440  0.97310  0.72880  Biso   1.000  C
  C44      1.0000 0.96560  0.02690  0.27120  Biso   1.000  C
  H31      1.0000 0.03750  0.00090  0.78060  Biso   1.000  H
  H32      1.0000 0.96250  0.99910  0.21940  Biso   1.000  H
  O1       1.0000 0.74890  0.01260  0.77010  Biso   1.000  O
  O2       1.0000 0.25110  0.98740  0.22990  Biso   1.000  O
  O3       1.0000 0.89600  0.18830  0.74780  Biso   1.000  O
  O4       1.0000 0.10400  0.81170  0.25220  Biso   1.000  O
  O5       1.0000 0.73790  0.09470  0.63810  Biso   1.000  O
  O6       1.0000 0.26210  0.90530  0.36190  Biso   1.000  O
  O7       1.0000 0.91120  0.73180  0.31710  Biso   1.000  O
  O8       1.0000 0.08880  0.26820  0.68290  Biso   1.000  O
  O9       1.0000 0.80400  0.57580  0.22780  Biso   1.000  O
  O10      1.0000 0.19600  0.42420  0.77220  Biso   1.000  O
  O11      1.0000 0.75810  0.58020  0.37200  Biso   1.000  O
  O12      1.0000 0.24190  0.41980  0.62800  Biso   1.000  O
  N19      1.0000 0.47120  0.53250  0.30280  Biso   1.000  N
  N20      1.0000 0.52880  0.46750  0.69720  Biso   1.000  N
  N21      1.0000 0.40870  0.61790  0.33150  Biso   1.000  N
  N22      1.0000 0.59130  0.38210  0.66850  Biso   1.000  N
  C45      1.0000 0.45190  0.52450  0.22720  Biso   1.000  C
  C46      1.0000 0.54810  0.47550  0.77280  Biso   1.000  C
  C47      1.0000 0.35870  0.66050  0.27100  Biso   1.000  C
  C48      1.0000 0.64130  0.33950  0.72900  Biso   1.000  C
  N23      1.0000 0.35700  0.60200  0.21110  Biso   1.000  N
  N24      1.0000 0.64300  0.39800  0.78890  Biso   1.000  N
  P5       1.0000 0.25730  0.70560  0.87210  Biso   1.000  P
  P6       1.0000 0.74270  0.29440  0.12790  Biso   1.000  P
  O13      1.0000 0.27800  0.60070  0.82210  Biso   1.000  O
  O14      1.0000 0.72200  0.39930  0.17790  Biso   1.000  O
  O15      1.0000 0.37630  0.80190  0.85940  Biso   1.000  O
  O16      1.0000 0.62370  0.19810  0.14060  Biso   1.000  O
  O17      1.0000 0.13070  0.75300  0.86520  Biso   1.000  O
  O18      1.0000 0.86930  0.24700  0.13480  Biso   1.000  O
  C49      1.0000 0.31600  0.62390  0.12600  Biso   1.000  C
  C50      1.0000 0.68400  0.37610  0.87400  Biso   1.000  C
  C51      1.0000 0.29300  0.54030  0.07550  Biso   1.000  C
  C52      1.0000 0.70700  0.45970  0.92450  Biso   1.000  C
  H33      1.0000 0.29290  0.46680  0.09070  Biso   1.000  H
  H34      1.0000 0.70710  0.53320  0.90930  Biso   1.000  H
  C53      1.0000 0.26800  0.56170  0.99570  Biso   1.000  C
  C54      1.0000 0.73200  0.43830  0.00430  Biso   1.000  C
  H35      1.0000 0.25000  0.50250  0.95770  Biso   1.000  H
  H36      1.0000 0.75000  0.49750  0.04230  Biso   1.000  H
  C55      1.0000 0.27120  0.67510  0.97560  Biso   1.000  C
  C56      1.0000 0.72880  0.32490  0.02440  Biso   1.000  C
  C57      1.0000 0.29660  0.74130  0.02500  Biso   1.000  C
  C58      1.0000 0.70340  0.25870  0.97500  Biso   1.000  C
  C59      1.0000 0.31660  0.72760  0.10720  Biso   1.000  C
  C60      1.0000 0.68340  0.27240  0.89280  Biso   1.000  C
  C61      1.0000 0.34260  0.24670  0.89130  Biso   1.000  C
  C62      1.0000 0.65740  0.75330  0.10870  Biso   1.000  C
  H37      1.0000 0.36250  0.29920  0.85330  Biso   1.000  H
  H38      1.0000 0.63750  0.70080  0.14670  Biso   1.000  H
  C63      1.0000 0.32200  0.28500  0.97090  Biso   1.000  C
  C64      1.0000 0.67800  0.71500  0.02910  Biso   1.000  C
  H39      1.0000 0.25890  0.33500  0.96950  Biso   1.000  H
  H40      1.0000 0.74110  0.66500  0.03050  Biso   1.000  H
  P7       1.0000 0.19100  0.20150  0.11340  Biso   1.000  P
  P8       1.0000 0.80900  0.79850  0.88660  Biso   1.000  P
  O19      1.0000 0.08380  0.27430  0.10470  Biso   1.000  O
  O20      1.0000 0.91620  0.72570  0.89530  Biso   1.000  O
  O21      1.0000 0.14010  0.08630  0.14600  Biso   1.000  O
  O22      1.0000 0.85990  0.91370  0.85400  Biso   1.000  O
  O23      1.0000 0.32500  0.24300  0.15360  Biso   1.000  O
  O24      1.0000 0.67500  0.75700  0.84640  Biso   1.000  O
  O25      1.0000 0.96600  0.62590  0.09570  Biso   1.000  O
  O26      1.0000 0.03400  0.37410  0.90430  Biso   1.000  O
  O27      1.0000 0.96200  0.13370  0.92770  Biso   1.000  O
  O28      1.0000 0.03800  0.86630  0.07230  Biso   1.000  O
  O29      1.0000 0.05590  0.86940  0.91250  Biso   1.000  O
  O30      1.0000 0.94410  0.13060  0.08750  Biso   1.000  O
  N25      1.0000 0.58450  0.38560  0.79770  Biso   1.000  N
  N26      1.0000 0.41550  0.61440  0.20230  Biso   1.000  N
  P9       1.0000 0.64300  0.28150  0.13760  Biso   1.000  P
  P10      1.0000 0.35700  0.71850  0.86240  Biso   1.000  P
  O31      1.0000 0.63020  0.38970  0.18890  Biso   1.000  O
  O32      1.0000 0.36980  0.61030  0.81110  Biso   1.000  O
  O33      1.0000 0.51930  0.19530  0.15180  Biso   1.000  O
  O34      1.0000 0.48070  0.80470  0.84820  Biso   1.000  O
  O35      1.0000 0.76440  0.22840  0.15680  Biso   1.000  O
  O36      1.0000 0.23560  0.77160  0.84320  Biso   1.000  O
  C65      1.0000 0.60400  0.36490  0.88200  Biso   1.000  C
  C66      1.0000 0.39600  0.63510  0.11800  Biso   1.000  C
  C67      1.0000 0.52100  0.39260  0.93210  Biso   1.000  C
  C68      1.0000 0.47900  0.60740  0.06790  Biso   1.000  C
  H41      1.0000 0.45070  0.42390  0.91580  Biso   1.000  H
  H42      1.0000 0.54930  0.57610  0.08420  Biso   1.000  H
  C69      1.0000 0.54400  0.37300  0.01080  Biso   1.000  C
  C70      1.0000 0.45600  0.62700  0.98920  Biso   1.000  C
  H43      1.0000 0.49560  0.40260  0.04830  Biso   1.000  H
  H44      1.0000 0.50440  0.59740  0.95170  Biso   1.000  H
  C71      1.0000 0.63400  0.31390  0.03400  Biso   1.000  C
  C72      1.0000 0.36600  0.68610  0.96600  Biso   1.000  C
  H45      1.0000 0.40160  0.32830  0.99340  Biso   1.000  H
  H46      1.0000 0.59840  0.67170  0.00660  Biso   1.000  H
  P11      1.0000 0.29550  0.25260  0.13210  Biso   1.000  P
  P12      1.0000 0.70450  0.74740  0.86790  Biso   1.000  P
  O37      1.0000 0.18900  0.16100  0.16150  Biso   1.000  O
  O38      1.0000 0.81100  0.83900  0.83850  Biso   1.000  O
  O39      1.0000 0.42170  0.25370  0.17370  Biso   1.000  O
  O40      1.0000 0.57830  0.74630  0.82630  Biso   1.000  O
  O41      1.0000 0.25740  0.36880  0.13090  Biso   1.000  O
  O42      1.0000 0.74260  0.63120  0.86910  Biso   1.000  O
  C73      1.0000 0.19500  0.22000  0.95170  Biso   1.000  C
  C74      1.0000 0.80500  0.78000  0.04830  Biso   1.000  C
  H47      1.0000 0.10890  0.17700  0.95360  Biso   1.000  H
  H48      1.0000 0.89110  0.82300  0.04640  Biso   1.000  H
  H49      1.0000 0.18810  0.29920  0.95830  Biso   1.000  H
  H50      1.0000 0.81190  0.70080  0.04170  Biso   1.000  H
  C75      1.0000 0.23800  0.20100  0.87940  Biso   1.000  C
  C76      1.0000 0.76200  0.79900  0.12060  Biso   1.000  C
  H51      1.0000 0.20730  0.23410  0.83600  Biso   1.000  H
  H52      1.0000 0.79270  0.76590  0.16400  Biso   1.000  H
  O43      1.0000 0.06200  0.42120  0.06710  Biso   1.000  O
  O44      1.0000 0.93800  0.57880  0.93290  Biso   1.000  O
