data_image0
_cell_length_a       7.7509
_cell_length_b       10.5927
_cell_length_c       4.2001
_cell_angle_alpha    91.81
_cell_angle_beta     101.993
_cell_angle_gamma    88.544

_symmetry_space_group_name_H-M    "P 1"
_symmetry_int_tables_number       1

loop_
  _symmetry_equiv_pos_as_xyz
  'x, y, z'

loop_
  _atom_site_label
  _atom_site_occupancy
  _atom_site_fract_x
  _atom_site_fract_y
  _atom_site_fract_z
  _atom_site_thermal_displace_type
  _atom_site_B_iso_or_equiv
  _atom_site_type_symbol
  I1       1.0000 0.78437  0.91925  0.72059  Biso   1.000  I
  I2       1.0000 0.21563  0.08075  0.27941  Biso   1.000  I
  Cu1      1.0000 0.87631  0.05871  0.28710  Biso   1.000  Cu
  Cu2      1.0000 0.12369  0.94129  0.71290  Biso   1.000  Cu
  N1       1.0000 0.26780  0.77830  0.79210  Biso   1.000  N
  N2       1.0000 0.73220  0.22170  0.20790  Biso   1.000  N
  C1       1.0000 0.22260  0.66620  0.64480  Biso   1.000  C
  C2       1.0000 0.77740  0.33380  0.35520  Biso   1.000  C
  C3       1.0000 0.06110  0.66100  0.37880  Biso   1.000  C
  C4       1.0000 0.93890  0.33900  0.62120  Biso   1.000  C
  H1       1.0000 0.97100  0.64900  0.47200  Biso   1.000  H
  H2       1.0000 0.02900  0.35100  0.52800  Biso   1.000  H
  H3       1.0000 0.05200  0.74200  0.25400  Biso   1.000  H
  H4       1.0000 0.94800  0.25800  0.74600  Biso   1.000  H
  H5       1.0000 0.05800  0.59600  0.22200  Biso   1.000  H
  H6       1.0000 0.94200  0.40400  0.77800  Biso   1.000  H
  N3       1.0000 0.30960  0.55750  0.71850  Biso   1.000  N
  N4       1.0000 0.69040  0.44250  0.28150  Biso   1.000  N
  C5       1.0000 0.45400  0.56100  0.95840  Biso   1.000  C
  C6       1.0000 0.54600  0.43900  0.04160  Biso   1.000  C
  C7       1.0000 0.48680  0.32800  0.88500  Biso   1.000  C
  C8       1.0000 0.51320  0.67200  0.11500  Biso   1.000  C
  H7       1.0000 0.39700  0.32800  0.73400  Biso   1.000  H
  H8       1.0000 0.60300  0.67200  0.26600  Biso   1.000  H
  C9       1.0000 0.58420  0.21980  0.97570  Biso   1.000  C
  C10      1.0000 0.41580  0.78020  0.02430  Biso   1.000  C
  H9       1.0000 0.54200  0.13800  0.86900  Biso   1.000  H
  H10      1.0000 0.45800  0.86200  0.13100  Biso   1.000  H
