data_image0
_cell_length_a       33.463
_cell_length_b       35.0765
_cell_length_c       4.0449
_cell_angle_alpha    90
_cell_angle_beta     90
_cell_angle_gamma    90

_symmetry_space_group_name_H-M    "P 1"
_symmetry_int_tables_number       1

loop_
  _symmetry_equiv_pos_as_xyz
  'x, y, z'

loop_
  _atom_site_label
  _atom_site_occupancy
  _atom_site_fract_x
  _atom_site_fract_y
  _atom_site_fract_z
  _atom_site_thermal_displace_type
  _atom_site_B_iso_or_equiv
  _atom_site_type_symbol
  I1       1.0000 0.96885  0.08939  0.83200  Biso   1.000  I
  I2       1.0000 0.03115  0.91061  0.83200  Biso   1.000  I
  I3       1.0000 0.28115  0.33939  0.08200  Biso   1.000  I
  I4       1.0000 0.21885  0.16061  0.08200  Biso   1.000  I
  I5       1.0000 0.96885  0.58939  0.33200  Biso   1.000  I
  I6       1.0000 0.03115  0.41061  0.33200  Biso   1.000  I
  I7       1.0000 0.28115  0.83939  0.58200  Biso   1.000  I
  I8       1.0000 0.21885  0.66061  0.58200  Biso   1.000  I
  I9       1.0000 0.46885  0.08939  0.33200  Biso   1.000  I
  I10      1.0000 0.53115  0.91061  0.33200  Biso   1.000  I
  I11      1.0000 0.78115  0.33939  0.58200  Biso   1.000  I
  I12      1.0000 0.71885  0.16061  0.58200  Biso   1.000  I
  I13      1.0000 0.46885  0.58939  0.83200  Biso   1.000  I
  I14      1.0000 0.53115  0.41061  0.83200  Biso   1.000  I
  I15      1.0000 0.78115  0.83939  0.08200  Biso   1.000  I
  I16      1.0000 0.71885  0.66061  0.08200  Biso   1.000  I
  Cu1      1.0000 0.01251  0.10643  0.32318  Biso   1.000  Cu
  Cu2      1.0000 0.98749  0.89357  0.32318  Biso   1.000  Cu
  Cu3      1.0000 0.23749  0.35643  0.57318  Biso   1.000  Cu
  Cu4      1.0000 0.26251  0.14357  0.57318  Biso   1.000  Cu
  Cu5      1.0000 0.01251  0.60643  0.82318  Biso   1.000  Cu
  Cu6      1.0000 0.98749  0.39357  0.82318  Biso   1.000  Cu
  Cu7      1.0000 0.23749  0.85643  0.07318  Biso   1.000  Cu
  Cu8      1.0000 0.26251  0.64357  0.07318  Biso   1.000  Cu
  Cu9      1.0000 0.51251  0.10643  0.82318  Biso   1.000  Cu
  Cu10     1.0000 0.48749  0.89357  0.82318  Biso   1.000  Cu
  Cu11     1.0000 0.73749  0.35643  0.07318  Biso   1.000  Cu
  Cu12     1.0000 0.76251  0.14357  0.07318  Biso   1.000  Cu
  Cu13     1.0000 0.51251  0.60643  0.32318  Biso   1.000  Cu
  Cu14     1.0000 0.48749  0.39357  0.32318  Biso   1.000  Cu
  Cu15     1.0000 0.73749  0.85643  0.57318  Biso   1.000  Cu
  Cu16     1.0000 0.76251  0.64357  0.57318  Biso   1.000  Cu
  N1       1.0000 0.11214  0.03687  0.65100  Biso   1.000  N
  N2       1.0000 0.88786  0.96313  0.65100  Biso   1.000  N
  N3       1.0000 0.13786  0.28687  0.90100  Biso   1.000  N
  N4       1.0000 0.36214  0.21313  0.90100  Biso   1.000  N
  N5       1.0000 0.11214  0.53687  0.15100  Biso   1.000  N
  N6       1.0000 0.88786  0.46313  0.15100  Biso   1.000  N
  N7       1.0000 0.13786  0.78687  0.40100  Biso   1.000  N
  N8       1.0000 0.36214  0.71313  0.40100  Biso   1.000  N
  N9       1.0000 0.61214  0.03687  0.15100  Biso   1.000  N
  N10      1.0000 0.38786  0.96313  0.15100  Biso   1.000  N
  N11      1.0000 0.63786  0.28687  0.40100  Biso   1.000  N
  N12      1.0000 0.86214  0.21313  0.40100  Biso   1.000  N
  N13      1.0000 0.61214  0.53687  0.65100  Biso   1.000  N
  N14      1.0000 0.38786  0.46313  0.65100  Biso   1.000  N
  N15      1.0000 0.63786  0.78687  0.90100  Biso   1.000  N
  N16      1.0000 0.86214  0.71313  0.90100  Biso   1.000  N
  C1       1.0000 0.07866  0.04812  0.49740  Biso   1.000  C
  C2       1.0000 0.92134  0.95188  0.49740  Biso   1.000  C
  C3       1.0000 0.17134  0.29812  0.74740  Biso   1.000  C
  C4       1.0000 0.32866  0.20188  0.74740  Biso   1.000  C
  C5       1.0000 0.07866  0.54812  0.99740  Biso   1.000  C
  C6       1.0000 0.92134  0.45188  0.99740  Biso   1.000  C
  C7       1.0000 0.17134  0.79812  0.24740  Biso   1.000  C
  C8       1.0000 0.32866  0.70188  0.24740  Biso   1.000  C
  C9       1.0000 0.57866  0.04812  0.99740  Biso   1.000  C
  C10      1.0000 0.42134  0.95188  0.99740  Biso   1.000  C
  C11      1.0000 0.67134  0.29812  0.24740  Biso   1.000  C
  C12      1.0000 0.82866  0.20188  0.24740  Biso   1.000  C
  C13      1.0000 0.57866  0.54812  0.49740  Biso   1.000  C
  C14      1.0000 0.42134  0.45188  0.49740  Biso   1.000  C
  C15      1.0000 0.67134  0.79812  0.74740  Biso   1.000  C
  C16      1.0000 0.82866  0.70188  0.74740  Biso   1.000  C
  N17      1.0000 0.06907  0.08454  0.43340  Biso   1.000  N
  N18      1.0000 0.93093  0.91546  0.43340  Biso   1.000  N
  N19      1.0000 0.18093  0.33454  0.68340  Biso   1.000  N
  N20      1.0000 0.31907  0.16546  0.68340  Biso   1.000  N
  N21      1.0000 0.06907  0.58454  0.93340  Biso   1.000  N
  N22      1.0000 0.93093  0.41546  0.93340  Biso   1.000  N
  N23      1.0000 0.18093  0.83454  0.18340  Biso   1.000  N
  N24      1.0000 0.31907  0.66546  0.18340  Biso   1.000  N
  N25      1.0000 0.56907  0.08454  0.93340  Biso   1.000  N
  N26      1.0000 0.43093  0.91546  0.93340  Biso   1.000  N
  N27      1.0000 0.68093  0.33454  0.18340  Biso   1.000  N
  N28      1.0000 0.81907  0.16546  0.18340  Biso   1.000  N
  N29      1.0000 0.56907  0.58454  0.43340  Biso   1.000  N
  N30      1.0000 0.43093  0.41546  0.43340  Biso   1.000  N
  N31      1.0000 0.68093  0.83454  0.68340  Biso   1.000  N
  N32      1.0000 0.81907  0.66546  0.68340  Biso   1.000  N
  C17      1.0000 0.09552  0.11173  0.52150  Biso   1.000  C
  C18      1.0000 0.90448  0.88827  0.52150  Biso   1.000  C
  C19      1.0000 0.15448  0.36173  0.77150  Biso   1.000  C
  C20      1.0000 0.34552  0.13827  0.77150  Biso   1.000  C
  C21      1.0000 0.09552  0.61173  0.02150  Biso   1.000  C
  C22      1.0000 0.90448  0.38827  0.02150  Biso   1.000  C
  C23      1.0000 0.15448  0.86173  0.27150  Biso   1.000  C
  C24      1.0000 0.34552  0.63827  0.27150  Biso   1.000  C
  C25      1.0000 0.59552  0.11173  0.02150  Biso   1.000  C
  C26      1.0000 0.40448  0.88827  0.02150  Biso   1.000  C
  C27      1.0000 0.65448  0.36173  0.27150  Biso   1.000  C
  C28      1.0000 0.84552  0.13827  0.27150  Biso   1.000  C
  C29      1.0000 0.59552  0.61173  0.52150  Biso   1.000  C
  C30      1.0000 0.40448  0.38827  0.52150  Biso   1.000  C
  C31      1.0000 0.65448  0.86173  0.77150  Biso   1.000  C
  C32      1.0000 0.84552  0.63827  0.77150  Biso   1.000  C
  C33      1.0000 0.13107  0.10233  0.67810  Biso   1.000  C
  C34      1.0000 0.86893  0.89767  0.67810  Biso   1.000  C
  C35      1.0000 0.11893  0.35233  0.92810  Biso   1.000  C
  C36      1.0000 0.38107  0.14767  0.92810  Biso   1.000  C
  C37      1.0000 0.13107  0.60233  0.17810  Biso   1.000  C
  C38      1.0000 0.86893  0.39767  0.17810  Biso   1.000  C
  C39      1.0000 0.11893  0.85233  0.42810  Biso   1.000  C
  C40      1.0000 0.38107  0.64767  0.42810  Biso   1.000  C
  C41      1.0000 0.63107  0.10233  0.17810  Biso   1.000  C
  C42      1.0000 0.36893  0.89767  0.17810  Biso   1.000  C
  C43      1.0000 0.61893  0.35233  0.42810  Biso   1.000  C
  C44      1.0000 0.88107  0.14767  0.42810  Biso   1.000  C
  C45      1.0000 0.63107  0.60233  0.67810  Biso   1.000  C
  C46      1.0000 0.36893  0.39767  0.67810  Biso   1.000  C
  C47      1.0000 0.61893  0.85233  0.92810  Biso   1.000  C
  C48      1.0000 0.88107  0.64767  0.92810  Biso   1.000  C
  H1       1.0000 0.14910  0.11950  0.72200  Biso   1.000  H
  H2       1.0000 0.85090  0.88050  0.72200  Biso   1.000  H
  H3       1.0000 0.10090  0.36950  0.97200  Biso   1.000  H
  H4       1.0000 0.39910  0.13050  0.97200  Biso   1.000  H
  H5       1.0000 0.14910  0.61950  0.22200  Biso   1.000  H
  H6       1.0000 0.85090  0.38050  0.22200  Biso   1.000  H
  H7       1.0000 0.10090  0.86950  0.47200  Biso   1.000  H
  H8       1.0000 0.39910  0.63050  0.47200  Biso   1.000  H
  H9       1.0000 0.64910  0.11950  0.22200  Biso   1.000  H
  H10      1.0000 0.35090  0.88050  0.22200  Biso   1.000  H
  H11      1.0000 0.60090  0.36950  0.47200  Biso   1.000  H
  H12      1.0000 0.89910  0.13050  0.47200  Biso   1.000  H
  H13      1.0000 0.64910  0.61950  0.72200  Biso   1.000  H
  H14      1.0000 0.35090  0.38050  0.72200  Biso   1.000  H
  H15      1.0000 0.60090  0.86950  0.97200  Biso   1.000  H
  H16      1.0000 0.89910  0.63050  0.97200  Biso   1.000  H
  C49      1.0000 0.13771  0.06427  0.74000  Biso   1.000  C
  C50      1.0000 0.86229  0.93573  0.74000  Biso   1.000  C
  C51      1.0000 0.11229  0.31427  0.99000  Biso   1.000  C
  C52      1.0000 0.38771  0.18573  0.99000  Biso   1.000  C
  C53      1.0000 0.13771  0.56427  0.24000  Biso   1.000  C
  C54      1.0000 0.86229  0.43573  0.24000  Biso   1.000  C
  C55      1.0000 0.11229  0.81427  0.49000  Biso   1.000  C
  C56      1.0000 0.38771  0.68573  0.49000  Biso   1.000  C
  C57      1.0000 0.63771  0.06427  0.24000  Biso   1.000  C
  C58      1.0000 0.36229  0.93573  0.24000  Biso   1.000  C
  C59      1.0000 0.61229  0.31427  0.49000  Biso   1.000  C
  C60      1.0000 0.88771  0.18573  0.49000  Biso   1.000  C
  C61      1.0000 0.63771  0.56427  0.74000  Biso   1.000  C
  C62      1.0000 0.36229  0.43573  0.74000  Biso   1.000  C
  C63      1.0000 0.61229  0.81427  0.99000  Biso   1.000  C
  C64      1.0000 0.88771  0.68573  0.99000  Biso   1.000  C
  H17      1.0000 0.16080  0.05600  0.85400  Biso   1.000  H
  H18      1.0000 0.83920  0.94400  0.85400  Biso   1.000  H
  H19      1.0000 0.08920  0.30600  0.10400  Biso   1.000  H
  H20      1.0000 0.41080  0.19400  0.10400  Biso   1.000  H
  H21      1.0000 0.16080  0.55600  0.35400  Biso   1.000  H
  H22      1.0000 0.83920  0.44400  0.35400  Biso   1.000  H
  H23      1.0000 0.08920  0.80600  0.60400  Biso   1.000  H
  H24      1.0000 0.41080  0.69400  0.60400  Biso   1.000  H
  H25      1.0000 0.66080  0.05600  0.35400  Biso   1.000  H
  H26      1.0000 0.33920  0.94400  0.35400  Biso   1.000  H
  H27      1.0000 0.58920  0.30600  0.60400  Biso   1.000  H
  H28      1.0000 0.91080  0.19400  0.60400  Biso   1.000  H
  H29      1.0000 0.66080  0.55600  0.85400  Biso   1.000  H
  H30      1.0000 0.33920  0.44400  0.85400  Biso   1.000  H
  H31      1.0000 0.58920  0.80600  0.10400  Biso   1.000  H
  H32      1.0000 0.91080  0.69400  0.10400  Biso   1.000  H
  C65      1.0000 0.05000  0.01782  0.38950  Biso   1.000  C
  C66      1.0000 0.95000  0.98218  0.38950  Biso   1.000  C
  C67      1.0000 0.20000  0.26782  0.63950  Biso   1.000  C
  C68      1.0000 0.30000  0.23218  0.63950  Biso   1.000  C
  C69      1.0000 0.05000  0.51782  0.88950  Biso   1.000  C
  C70      1.0000 0.95000  0.48218  0.88950  Biso   1.000  C
  C71      1.0000 0.20000  0.76782  0.13950  Biso   1.000  C
  C72      1.0000 0.30000  0.73218  0.13950  Biso   1.000  C
  C73      1.0000 0.55000  0.01782  0.88950  Biso   1.000  C
  C74      1.0000 0.45000  0.98218  0.88950  Biso   1.000  C
  C75      1.0000 0.70000  0.26782  0.13950  Biso   1.000  C
  C76      1.0000 0.80000  0.23218  0.13950  Biso   1.000  C
  C77      1.0000 0.55000  0.51782  0.38950  Biso   1.000  C
  C78      1.0000 0.45000  0.48218  0.38950  Biso   1.000  C
  C79      1.0000 0.70000  0.76782  0.63950  Biso   1.000  C
  C80      1.0000 0.80000  0.73218  0.63950  Biso   1.000  C
  H33      1.0000 0.06210  0.00270  0.21890  Biso   1.000  H
  H34      1.0000 0.93790  0.99730  0.21890  Biso   1.000  H
  H35      1.0000 0.18790  0.25270  0.46890  Biso   1.000  H
  H36      1.0000 0.31210  0.24730  0.46890  Biso   1.000  H
  H37      1.0000 0.06210  0.50270  0.71890  Biso   1.000  H
  H38      1.0000 0.93790  0.49730  0.71890  Biso   1.000  H
  H39      1.0000 0.18790  0.75270  0.96890  Biso   1.000  H
  H40      1.0000 0.31210  0.74730  0.96890  Biso   1.000  H
  H41      1.0000 0.56210  0.00270  0.71890  Biso   1.000  H
  H42      1.0000 0.43790  0.99730  0.71890  Biso   1.000  H
  H43      1.0000 0.68790  0.25270  0.96890  Biso   1.000  H
  H44      1.0000 0.81210  0.24730  0.96890  Biso   1.000  H
  H45      1.0000 0.56210  0.50270  0.21890  Biso   1.000  H
  H46      1.0000 0.43790  0.49730  0.21890  Biso   1.000  H
  H47      1.0000 0.68790  0.75270  0.46890  Biso   1.000  H
  H48      1.0000 0.81210  0.74730  0.46890  Biso   1.000  H
  H49      1.0000 0.02610  0.02950  0.30580  Biso   1.000  H
  H50      1.0000 0.97390  0.97050  0.30580  Biso   1.000  H
  H51      1.0000 0.22390  0.27950  0.55580  Biso   1.000  H
  H52      1.0000 0.27610  0.22050  0.55580  Biso   1.000  H
  H53      1.0000 0.02610  0.52950  0.80580  Biso   1.000  H
  H54      1.0000 0.97390  0.47050  0.80580  Biso   1.000  H
  H55      1.0000 0.22390  0.77950  0.05580  Biso   1.000  H
  H56      1.0000 0.27610  0.72050  0.05580  Biso   1.000  H
  H57      1.0000 0.52610  0.02950  0.80580  Biso   1.000  H
  H58      1.0000 0.47390  0.97050  0.80580  Biso   1.000  H
  H59      1.0000 0.72390  0.27950  0.05580  Biso   1.000  H
  H60      1.0000 0.77610  0.22050  0.05580  Biso   1.000  H
  H61      1.0000 0.52610  0.52950  0.30580  Biso   1.000  H
  H62      1.0000 0.47390  0.47050  0.30580  Biso   1.000  H
  H63      1.0000 0.72390  0.77950  0.55580  Biso   1.000  H
  H64      1.0000 0.77610  0.72050  0.55580  Biso   1.000  H
  H65      1.0000 0.04340  0.00190  0.57450  Biso   1.000  H
  H66      1.0000 0.95660  0.99810  0.57450  Biso   1.000  H
  H67      1.0000 0.20660  0.25190  0.82450  Biso   1.000  H
  H68      1.0000 0.29340  0.24810  0.82450  Biso   1.000  H
  H69      1.0000 0.04340  0.50190  0.07450  Biso   1.000  H
  H70      1.0000 0.95660  0.49810  0.07450  Biso   1.000  H
  H71      1.0000 0.20660  0.75190  0.32450  Biso   1.000  H
  H72      1.0000 0.29340  0.74810  0.32450  Biso   1.000  H
  H73      1.0000 0.54340  0.00190  0.07450  Biso   1.000  H
  H74      1.0000 0.45660  0.99810  0.07450  Biso   1.000  H
  H75      1.0000 0.70660  0.25190  0.32450  Biso   1.000  H
  H76      1.0000 0.79340  0.24810  0.32450  Biso   1.000  H
  H77      1.0000 0.54340  0.50190  0.57450  Biso   1.000  H
  H78      1.0000 0.45660  0.49810  0.57450  Biso   1.000  H
  H79      1.0000 0.70660  0.75190  0.82450  Biso   1.000  H
  H80      1.0000 0.79340  0.74810  0.82450  Biso   1.000  H
  N33      1.0000 0.05842  0.22265  0.26200  Biso   1.000  N
  N34      1.0000 0.94158  0.77735  0.26200  Biso   1.000  N
  N35      1.0000 0.19158  0.47265  0.51200  Biso   1.000  N
  N36      1.0000 0.30842  0.02735  0.51200  Biso   1.000  N
  N37      1.0000 0.05842  0.72265  0.76200  Biso   1.000  N
  N38      1.0000 0.94158  0.27735  0.76200  Biso   1.000  N
  N39      1.0000 0.19158  0.97265  0.01200  Biso   1.000  N
  N40      1.0000 0.30842  0.52735  0.01200  Biso   1.000  N
  N41      1.0000 0.55842  0.22265  0.76200  Biso   1.000  N
  N42      1.0000 0.44158  0.77735  0.76200  Biso   1.000  N
  N43      1.0000 0.69158  0.47265  0.01200  Biso   1.000  N
  N44      1.0000 0.80842  0.02735  0.01200  Biso   1.000  N
  N45      1.0000 0.55842  0.72265  0.26200  Biso   1.000  N
  N46      1.0000 0.44158  0.27735  0.26200  Biso   1.000  N
  N47      1.0000 0.69158  0.97265  0.51200  Biso   1.000  N
  N48      1.0000 0.80842  0.52735  0.51200  Biso   1.000  N
  C81      1.0000 0.03454  0.19218  0.25620  Biso   1.000  C
  C82      1.0000 0.96546  0.80782  0.25620  Biso   1.000  C
  C83      1.0000 0.21546  0.44218  0.50620  Biso   1.000  C
  C84      1.0000 0.28454  0.05782  0.50620  Biso   1.000  C
  C85      1.0000 0.03454  0.69218  0.75620  Biso   1.000  C
  C86      1.0000 0.96546  0.30782  0.75620  Biso   1.000  C
  C87      1.0000 0.21546  0.94218  0.00620  Biso   1.000  C
  C88      1.0000 0.28454  0.55782  0.00620  Biso   1.000  C
  C89      1.0000 0.53454  0.19218  0.75620  Biso   1.000  C
  C90      1.0000 0.46546  0.80782  0.75620  Biso   1.000  C
  C91      1.0000 0.71546  0.44218  0.00620  Biso   1.000  C
  C92      1.0000 0.78454  0.05782  0.00620  Biso   1.000  C
  C93      1.0000 0.53454  0.69218  0.25620  Biso   1.000  C
  C94      1.0000 0.46546  0.30782  0.25620  Biso   1.000  C
  C95      1.0000 0.71546  0.94218  0.50620  Biso   1.000  C
  C96      1.0000 0.78454  0.55782  0.50620  Biso   1.000  C
  N49      1.0000 0.04589  0.15640  0.33820  Biso   1.000  N
  N50      1.0000 0.95411  0.84360  0.33820  Biso   1.000  N
  N51      1.0000 0.20411  0.40640  0.58820  Biso   1.000  N
  N52      1.0000 0.29589  0.09360  0.58820  Biso   1.000  N
  N53      1.0000 0.04589  0.65640  0.83820  Biso   1.000  N
  N54      1.0000 0.95411  0.34360  0.83820  Biso   1.000  N
  N55      1.0000 0.20411  0.90640  0.08820  Biso   1.000  N
  N56      1.0000 0.29589  0.59360  0.08820  Biso   1.000  N
  N57      1.0000 0.54589  0.15640  0.83820  Biso   1.000  N
  N58      1.0000 0.45411  0.84360  0.83820  Biso   1.000  N
  N59      1.0000 0.70411  0.40640  0.08820  Biso   1.000  N
  N60      1.0000 0.79589  0.09360  0.08820  Biso   1.000  N
  N61      1.0000 0.54589  0.65640  0.33820  Biso   1.000  N
  N62      1.0000 0.45411  0.34360  0.33820  Biso   1.000  N
  N63      1.0000 0.70411  0.90640  0.58820  Biso   1.000  N
  N64      1.0000 0.79589  0.59360  0.58820  Biso   1.000  N
  C97      1.0000 0.08376  0.15153  0.43810  Biso   1.000  C
  C98      1.0000 0.91624  0.84847  0.43810  Biso   1.000  C
  C99      1.0000 0.16624  0.40153  0.68810  Biso   1.000  C
  C100     1.0000 0.33376  0.09847  0.68810  Biso   1.000  C
  C101     1.0000 0.08376  0.65153  0.93810  Biso   1.000  C
  C102     1.0000 0.91624  0.34847  0.93810  Biso   1.000  C
  C103     1.0000 0.16624  0.90153  0.18810  Biso   1.000  C
  C104     1.0000 0.33376  0.59847  0.18810  Biso   1.000  C
  C105     1.0000 0.58376  0.15153  0.93810  Biso   1.000  C
  C106     1.0000 0.41624  0.84847  0.93810  Biso   1.000  C
  C107     1.0000 0.66624  0.40153  0.18810  Biso   1.000  C
  C108     1.0000 0.83376  0.09847  0.18810  Biso   1.000  C
  C109     1.0000 0.58376  0.65153  0.43810  Biso   1.000  C
  C110     1.0000 0.41624  0.34847  0.43810  Biso   1.000  C
  C111     1.0000 0.66624  0.90153  0.68810  Biso   1.000  C
  C112     1.0000 0.83376  0.59847  0.68810  Biso   1.000  C
  C113     1.0000 0.11035  0.18173  0.46010  Biso   1.000  C
  C114     1.0000 0.88965  0.81827  0.46010  Biso   1.000  C
  C115     1.0000 0.13965  0.43173  0.71010  Biso   1.000  C
  C116     1.0000 0.36035  0.06827  0.71010  Biso   1.000  C
  C117     1.0000 0.11035  0.68173  0.96010  Biso   1.000  C
  C118     1.0000 0.88965  0.31827  0.96010  Biso   1.000  C
  C119     1.0000 0.13965  0.93173  0.21010  Biso   1.000  C
  C120     1.0000 0.36035  0.56827  0.21010  Biso   1.000  C
  C121     1.0000 0.61035  0.18173  0.96010  Biso   1.000  C
  C122     1.0000 0.38965  0.81827  0.96010  Biso   1.000  C
  C123     1.0000 0.63965  0.43173  0.21010  Biso   1.000  C
  C124     1.0000 0.86035  0.06827  0.21010  Biso   1.000  C
  C125     1.0000 0.61035  0.68173  0.46010  Biso   1.000  C
  C126     1.0000 0.38965  0.31827  0.46010  Biso   1.000  C
  C127     1.0000 0.63965  0.93173  0.71010  Biso   1.000  C
  C128     1.0000 0.86035  0.56827  0.71010  Biso   1.000  C
  H81      1.0000 0.13580  0.18040  0.54700  Biso   1.000  H
  H82      1.0000 0.86420  0.81960  0.54700  Biso   1.000  H
  H83      1.0000 0.11420  0.43040  0.79700  Biso   1.000  H
  H84      1.0000 0.38580  0.06960  0.79700  Biso   1.000  H
  H85      1.0000 0.13580  0.68040  0.04700  Biso   1.000  H
  H86      1.0000 0.86420  0.31960  0.04700  Biso   1.000  H
  H87      1.0000 0.11420  0.93040  0.29700  Biso   1.000  H
  H88      1.0000 0.38580  0.56960  0.29700  Biso   1.000  H
  H89      1.0000 0.63580  0.18040  0.04700  Biso   1.000  H
  H90      1.0000 0.36420  0.81960  0.04700  Biso   1.000  H
  H91      1.0000 0.61420  0.43040  0.29700  Biso   1.000  H
  H92      1.0000 0.88580  0.06960  0.29700  Biso   1.000  H
  H93      1.0000 0.63580  0.68040  0.54700  Biso   1.000  H
  H94      1.0000 0.36420  0.31960  0.54700  Biso   1.000  H
  H95      1.0000 0.61420  0.93040  0.79700  Biso   1.000  H
  H96      1.0000 0.88580  0.56960  0.79700  Biso   1.000  H
  C129     1.0000 0.09594  0.21700  0.36760  Biso   1.000  C
  C130     1.0000 0.90406  0.78300  0.36760  Biso   1.000  C
  C131     1.0000 0.15406  0.46700  0.61760  Biso   1.000  C
  C132     1.0000 0.34594  0.03300  0.61760  Biso   1.000  C
  C133     1.0000 0.09594  0.71700  0.86760  Biso   1.000  C
  C134     1.0000 0.90406  0.28300  0.86760  Biso   1.000  C
  C135     1.0000 0.15406  0.96700  0.11760  Biso   1.000  C
  C136     1.0000 0.34594  0.53300  0.11760  Biso   1.000  C
  C137     1.0000 0.59594  0.21700  0.86760  Biso   1.000  C
  C138     1.0000 0.40406  0.78300  0.86760  Biso   1.000  C
  C139     1.0000 0.65406  0.46700  0.11760  Biso   1.000  C
  C140     1.0000 0.84594  0.03300  0.11760  Biso   1.000  C
  C141     1.0000 0.59594  0.71700  0.36760  Biso   1.000  C
  C142     1.0000 0.40406  0.28300  0.36760  Biso   1.000  C
  C143     1.0000 0.65406  0.96700  0.61760  Biso   1.000  C
  C144     1.0000 0.84594  0.53300  0.61760  Biso   1.000  C
  H97      1.0000 0.11050  0.23950  0.38200  Biso   1.000  H
  H98      1.0000 0.88950  0.76050  0.38200  Biso   1.000  H
  H99      1.0000 0.13950  0.48950  0.63200  Biso   1.000  H
  H100     1.0000 0.36050  0.01050  0.63200  Biso   1.000  H
  H101     1.0000 0.11050  0.73950  0.88200  Biso   1.000  H
  H102     1.0000 0.88950  0.26050  0.88200  Biso   1.000  H
  H103     1.0000 0.13950  0.98950  0.13200  Biso   1.000  H
  H104     1.0000 0.36050  0.51050  0.13200  Biso   1.000  H
  H105     1.0000 0.61050  0.23950  0.88200  Biso   1.000  H
  H106     1.0000 0.38950  0.76050  0.88200  Biso   1.000  H
  H107     1.0000 0.63950  0.48950  0.13200  Biso   1.000  H
  H108     1.0000 0.86050  0.01050  0.13200  Biso   1.000  H
  H109     1.0000 0.61050  0.73950  0.38200  Biso   1.000  H
  H110     1.0000 0.38950  0.26050  0.38200  Biso   1.000  H
  H111     1.0000 0.63950  0.98950  0.63200  Biso   1.000  H
  H112     1.0000 0.86050  0.51050  0.63200  Biso   1.000  H
  C145     1.0000 0.99230  0.19809  0.14750  Biso   1.000  C
  C146     1.0000 0.00770  0.80191  0.14750  Biso   1.000  C
  C147     1.0000 0.25770  0.44809  0.39750  Biso   1.000  C
  C148     1.0000 0.24230  0.05191  0.39750  Biso   1.000  C
  C149     1.0000 0.99230  0.69809  0.64750  Biso   1.000  C
  C150     1.0000 0.00770  0.30191  0.64750  Biso   1.000  C
  C151     1.0000 0.25770  0.94809  0.89750  Biso   1.000  C
  C152     1.0000 0.24230  0.55191  0.89750  Biso   1.000  C
  C153     1.0000 0.49230  0.19809  0.64750  Biso   1.000  C
  C154     1.0000 0.50770  0.80191  0.64750  Biso   1.000  C
  C155     1.0000 0.75770  0.44809  0.89750  Biso   1.000  C
  C156     1.0000 0.74230  0.05191  0.89750  Biso   1.000  C
  C157     1.0000 0.49230  0.69809  0.14750  Biso   1.000  C
  C158     1.0000 0.50770  0.30191  0.14750  Biso   1.000  C
  C159     1.0000 0.75770  0.94809  0.39750  Biso   1.000  C
  C160     1.0000 0.74230  0.55191  0.39750  Biso   1.000  C
  H113     1.0000 0.98290  0.22230  0.22690  Biso   1.000  H
  H114     1.0000 0.01710  0.77770  0.22690  Biso   1.000  H
  H115     1.0000 0.26710  0.47230  0.47690  Biso   1.000  H
  H116     1.0000 0.23290  0.02770  0.47690  Biso   1.000  H
  H117     1.0000 0.98290  0.72230  0.72690  Biso   1.000  H
  H118     1.0000 0.01710  0.27770  0.72690  Biso   1.000  H
  H119     1.0000 0.26710  0.97230  0.97690  Biso   1.000  H
  H120     1.0000 0.23290  0.52770  0.97690  Biso   1.000  H
  H121     1.0000 0.48290  0.22230  0.72690  Biso   1.000  H
  H122     1.0000 0.51710  0.77770  0.72690  Biso   1.000  H
  H123     1.0000 0.76710  0.47230  0.97690  Biso   1.000  H
  H124     1.0000 0.73290  0.02770  0.97690  Biso   1.000  H
  H125     1.0000 0.48290  0.72230  0.22690  Biso   1.000  H
  H126     1.0000 0.51710  0.27770  0.22690  Biso   1.000  H
  H127     1.0000 0.76710  0.97230  0.47690  Biso   1.000  H
  H128     1.0000 0.73290  0.52770  0.47690  Biso   1.000  H
  H129     1.0000 0.97580  0.17810  0.23540  Biso   1.000  H
  H130     1.0000 0.02420  0.82190  0.23540  Biso   1.000  H
  H131     1.0000 0.27420  0.42810  0.48540  Biso   1.000  H
  H132     1.0000 0.22580  0.07190  0.48540  Biso   1.000  H
  H133     1.0000 0.97580  0.67810  0.73540  Biso   1.000  H
  H134     1.0000 0.02420  0.32190  0.73540  Biso   1.000  H
  H135     1.0000 0.27420  0.92810  0.98540  Biso   1.000  H
  H136     1.0000 0.22580  0.57190  0.98540  Biso   1.000  H
  H137     1.0000 0.47580  0.17810  0.73540  Biso   1.000  H
  H138     1.0000 0.52420  0.82190  0.73540  Biso   1.000  H
  H139     1.0000 0.77420  0.42810  0.98540  Biso   1.000  H
  H140     1.0000 0.72580  0.07190  0.98540  Biso   1.000  H
  H141     1.0000 0.47580  0.67810  0.23540  Biso   1.000  H
  H142     1.0000 0.52420  0.32190  0.23540  Biso   1.000  H
  H143     1.0000 0.77420  0.92810  0.48540  Biso   1.000  H
  H144     1.0000 0.72580  0.57190  0.48540  Biso   1.000  H
  H145     1.0000 0.99100  0.19770  0.91050  Biso   1.000  H
  H146     1.0000 0.00900  0.80230  0.91050  Biso   1.000  H
  H147     1.0000 0.25900  0.44770  0.16050  Biso   1.000  H
  H148     1.0000 0.24100  0.05230  0.16050  Biso   1.000  H
  H149     1.0000 0.99100  0.69770  0.41050  Biso   1.000  H
  H150     1.0000 0.00900  0.30230  0.41050  Biso   1.000  H
  H151     1.0000 0.25900  0.94770  0.66050  Biso   1.000  H
  H152     1.0000 0.24100  0.55230  0.66050  Biso   1.000  H
  H153     1.0000 0.49100  0.19770  0.41050  Biso   1.000  H
  H154     1.0000 0.50900  0.80230  0.41050  Biso   1.000  H
  H155     1.0000 0.75900  0.44770  0.66050  Biso   1.000  H
  H156     1.0000 0.74100  0.05230  0.66050  Biso   1.000  H
  H157     1.0000 0.49100  0.69770  0.91050  Biso   1.000  H
  H158     1.0000 0.50900  0.30230  0.91050  Biso   1.000  H
  H159     1.0000 0.75900  0.94770  0.16050  Biso   1.000  H
  H160     1.0000 0.74100  0.55230  0.16050  Biso   1.000  H
