data_image0
_cell_length_a       14.381
_cell_length_b       9.888
_cell_length_c       4.117
_cell_angle_alpha    83.96
_cell_angle_beta     81.57
_cell_angle_gamma    86.03

_symmetry_space_group_name_H-M    "P 1"
_symmetry_int_tables_number       1

loop_
  _symmetry_equiv_pos_as_xyz
  'x, y, z'

loop_
  _atom_site_label
  _atom_site_occupancy
  _atom_site_fract_x
  _atom_site_fract_y
  _atom_site_fract_z
  _atom_site_thermal_displace_type
  _atom_site_B_iso_or_equiv
  _atom_site_type_symbol
  Cu1      1.0000 0.24639  0.41026  0.71645  Biso   1.000  Cu
  Cu2      1.0000 0.75361  0.58974  0.28355  Biso   1.000  Cu
  I1       1.0000 0.24983  0.25714  0.26052  Biso   1.000  I
  I2       1.0000 0.75017  0.74286  0.73948  Biso   1.000  I
  N1       1.0000 0.24690  0.61100  0.72660  Biso   1.000  N
  N2       1.0000 0.75310  0.38900  0.27340  Biso   1.000  N
  C1       1.0000 0.32210  0.68040  0.57260  Biso   1.000  C
  C2       1.0000 0.67790  0.31960  0.42740  Biso   1.000  C
  C3       1.0000 0.39610  0.60810  0.38240  Biso   1.000  C
  C4       1.0000 0.60390  0.39190  0.61760  Biso   1.000  C
  C5       1.0000 0.47200  0.67800  0.22890  Biso   1.000  C
  C6       1.0000 0.52800  0.32200  0.77110  Biso   1.000  C
  C7       1.0000 0.47930  0.81850  0.25150  Biso   1.000  C
  C8       1.0000 0.52070  0.18150  0.74850  Biso   1.000  C
  C9       1.0000 0.40940  0.88890  0.42720  Biso   1.000  C
  C10      1.0000 0.59060  0.11110  0.57280  Biso   1.000  C
  C11      1.0000 0.32940  0.82130  0.59380  Biso   1.000  C
  C12      1.0000 0.67060  0.17870  0.40620  Biso   1.000  C
  C13      1.0000 0.25660  0.89360  0.78290  Biso   1.000  C
  C14      1.0000 0.74340  0.10640  0.21710  Biso   1.000  C
  C15      1.0000 0.17580  0.68070  0.90550  Biso   1.000  C
  C16      1.0000 0.82420  0.31930  0.09450  Biso   1.000  C
  C17      1.0000 0.09650  0.60840  0.06530  Biso   1.000  C
  C18      1.0000 0.90350  0.39160  0.93470  Biso   1.000  C
  C19      1.0000 0.02310  0.67870  0.24320  Biso   1.000  C
  C20      1.0000 0.97690  0.32130  0.75680  Biso   1.000  C
  C21      1.0000 0.02690  0.81730  0.27220  Biso   1.000  C
  C22      1.0000 0.97310  0.18270  0.72780  Biso   1.000  C
  C23      1.0000 0.10160  0.88940  0.12640  Biso   1.000  C
  C24      1.0000 0.89840  0.11060  0.87360  Biso   1.000  C
  C25      1.0000 0.17870  0.82270  0.94050  Biso   1.000  C
  C26      1.0000 0.82130  0.17730  0.05950  Biso   1.000  C
  H1       1.0000 0.39200  0.51400  0.35900  Biso   1.000  H
  H2       1.0000 0.60800  0.48600  0.64100  Biso   1.000  H
  H3       1.0000 0.52300  0.62700  0.09700  Biso   1.000  H
  H4       1.0000 0.47700  0.37300  0.90300  Biso   1.000  H
  H5       1.0000 0.53400  0.86500  0.14000  Biso   1.000  H
  H6       1.0000 0.46600  0.13500  0.86000  Biso   1.000  H
  H7       1.0000 0.41400  0.98400  0.44200  Biso   1.000  H
  H8       1.0000 0.58600  0.01600  0.55800  Biso   1.000  H
  H9       1.0000 0.26100  0.98800  0.80400  Biso   1.000  H
  H10      1.0000 0.73900  0.01200  0.19600  Biso   1.000  H
  H11      1.0000 0.09300  0.51400  0.04900  Biso   1.000  H
  H12      1.0000 0.90700  0.48600  0.95100  Biso   1.000  H
  H13      1.0000 0.97000  0.63100  0.35100  Biso   1.000  H
  H14      1.0000 0.03000  0.36900  0.64900  Biso   1.000  H
  H15      1.0000 0.97500  0.86500  0.40400  Biso   1.000  H
  H16      1.0000 0.02500  0.13500  0.59600  Biso   1.000  H
  H17      1.0000 0.10300  0.98500  0.15300  Biso   1.000  H
  H18      1.0000 0.89700  0.01500  0.84700  Biso   1.000  H
