data_image0
_cell_length_a       5.7282
_cell_length_b       7.049
_cell_length_c       9.861
_cell_angle_alpha    100.802
_cell_angle_beta     103.338
_cell_angle_gamma    101.623

_symmetry_space_group_name_H-M    "P 1"
_symmetry_int_tables_number       1

loop_
  _symmetry_equiv_pos_as_xyz
  'x, y, z'

loop_
  _atom_site_label
  _atom_site_occupancy
  _atom_site_fract_x
  _atom_site_fract_y
  _atom_site_fract_z
  _atom_site_thermal_displace_type
  _atom_site_B_iso_or_equiv
  _atom_site_type_symbol
  Cu1      1.0000 0.15316  0.99924  0.13646  Biso   1.000  Cu
  Cu2      1.0000 0.84684  0.00076  0.86354  Biso   1.000  Cu
  N1       1.0000 0.98890  0.83490  0.24935  Biso   1.000  N
  N2       1.0000 0.01110  0.16510  0.75065  Biso   1.000  N
  C1       1.0000 0.10520  0.83060  0.38100  Biso   1.000  C
  C2       1.0000 0.89480  0.16940  0.61900  Biso   1.000  C
  H1       1.0000 0.27630  0.89220  0.41480  Biso   1.000  H
  H2       1.0000 0.72370  0.10780  0.58520  Biso   1.000  H
  C3       1.0000 0.99640  0.74380  0.47190  Biso   1.000  C
  C4       1.0000 0.00360  0.25620  0.52810  Biso   1.000  C
  H3       1.0000 0.09130  0.74780  0.56440  Biso   1.000  H
  H4       1.0000 0.90870  0.25220  0.43560  Biso   1.000  H
  C5       1.0000 0.74370  0.64950  0.42574  Biso   1.000  C
  C6       1.0000 0.25630  0.35050  0.57426  Biso   1.000  C
  C7       1.0000 0.61830  0.64850  0.28570  Biso   1.000  C
  C8       1.0000 0.38170  0.35150  0.71430  Biso   1.000  C
  H5       1.0000 0.44800  0.58540  0.24790  Biso   1.000  H
  H6       1.0000 0.55200  0.41460  0.75210  Biso   1.000  H
  C9       1.0000 0.74670  0.74060  0.20430  Biso   1.000  C
  C10      1.0000 0.25330  0.25940  0.79570  Biso   1.000  C
  H7       1.0000 0.65870  0.73740  0.11040  Biso   1.000  H
  H8       1.0000 0.34130  0.26260  0.88960  Biso   1.000  H
  C11      1.0000 0.61700  0.55630  0.51824  Biso   1.000  C
  C12      1.0000 0.38300  0.44370  0.48176  Biso   1.000  C
  H9       1.0000 0.70990  0.57760  0.61420  Biso   1.000  H
  H10      1.0000 0.29010  0.42240  0.38580  Biso   1.000  H
  N3       1.0000 0.97570  0.83760  0.24590  Biso   1.000  N
  N4       1.0000 0.02430  0.16240  0.75410  Biso   1.000  N
  C13      1.0000 0.07470  0.82190  0.38480  Biso   1.000  C
  C14      1.0000 0.92530  0.17810  0.61520  Biso   1.000  C
  H11      1.0000 0.24260  0.88360  0.43310  Biso   1.000  H
  H12      1.0000 0.75740  0.11640  0.56690  Biso   1.000  H
  C15      1.0000 0.92540  0.71500  0.45220  Biso   1.000  C
  C16      1.0000 0.07460  0.28500  0.54780  Biso   1.000  C
  H13      1.0000 0.99230  0.70440  0.54610  Biso   1.000  H
  H14      1.0000 0.00770  0.29560  0.45390  Biso   1.000  H
  C17      1.0000 0.67710  0.62380  0.38080  Biso   1.000  C
  C18      1.0000 0.32290  0.37620  0.61920  Biso   1.000  C
  C19      1.0000 0.57810  0.63950  0.24190  Biso   1.000  C
  C20      1.0000 0.42190  0.36050  0.75810  Biso   1.000  C
  H15      1.0000 0.41020  0.57780  0.19360  Biso   1.000  H
  H16      1.0000 0.58980  0.42220  0.80640  Biso   1.000  H
  C21      1.0000 0.72740  0.74640  0.17450  Biso   1.000  C
  C22      1.0000 0.27260  0.25360  0.82550  Biso   1.000  C
  H17      1.0000 0.66050  0.75700  0.08060  Biso   1.000  H
  H18      1.0000 0.33950  0.24300  0.91940  Biso   1.000  H
  C23      1.0000 0.46800  0.49760  0.43250  Biso   1.000  C
  C24      1.0000 0.53200  0.50240  0.56750  Biso   1.000  C
  H19      1.0000 0.31180  0.42560  0.37030  Biso   1.000  H
  H20      1.0000 0.68820  0.57440  0.62970  Biso   1.000  H
  S1       1.0000 0.05536  0.74129  0.90326  Biso   1.000  S
  S2       1.0000 0.94464  0.25871  0.09674  Biso   1.000  S
  N5       1.0000 0.50010  0.87342  0.83347  Biso   1.000  N
  N6       1.0000 0.49990  0.12658  0.16653  Biso   1.000  N
  C25      1.0000 0.31640  0.81890  0.86057  Biso   1.000  C
  C26      1.0000 0.68360  0.18110  0.13943  Biso   1.000  C
