data_image0
_cell_length_a       8.257
_cell_length_b       21.694
_cell_length_c       3.7543
_cell_angle_alpha    90
_cell_angle_beta     90
_cell_angle_gamma    90

_symmetry_space_group_name_H-M    "P 1"
_symmetry_int_tables_number       1

loop_
  _symmetry_equiv_pos_as_xyz
  'x, y, z'

loop_
  _atom_site_label
  _atom_site_occupancy
  _atom_site_fract_x
  _atom_site_fract_y
  _atom_site_fract_z
  _atom_site_thermal_displace_type
  _atom_site_B_iso_or_equiv
  _atom_site_type_symbol
  Cu1      1.0000 0.49380  0.17688  0.00000  Biso   1.000  Cu
  Cu2      1.0000 0.99380  0.32312  0.50000  Biso   1.000  Cu
  Cu3      1.0000 0.00620  0.67688  0.50000  Biso   1.000  Cu
  Cu4      1.0000 0.50620  0.82312  0.00000  Biso   1.000  Cu
  N1       1.0000 0.31100  0.11300  0.04800  Biso   1.000  N
  N2       1.0000 0.31100  0.11300  0.95200  Biso   1.000  N
  N3       1.0000 0.81100  0.38700  0.54800  Biso   1.000  N
  N4       1.0000 0.18900  0.61300  0.54800  Biso   1.000  N
  N5       1.0000 0.68900  0.88700  0.95200  Biso   1.000  N
  N6       1.0000 0.68900  0.88700  0.04800  Biso   1.000  N
  N7       1.0000 0.18900  0.61300  0.45200  Biso   1.000  N
  N8       1.0000 0.81100  0.38700  0.45200  Biso   1.000  N
  C1       1.0000 0.33990  0.05490  0.14000  Biso   1.000  C
  C2       1.0000 0.33990  0.05490  0.86000  Biso   1.000  C
  C3       1.0000 0.83990  0.44510  0.64000  Biso   1.000  C
  C4       1.0000 0.16010  0.55490  0.64000  Biso   1.000  C
  C5       1.0000 0.66010  0.94510  0.86000  Biso   1.000  C
  C6       1.0000 0.66010  0.94510  0.14000  Biso   1.000  C
  C7       1.0000 0.16010  0.55490  0.36000  Biso   1.000  C
  C8       1.0000 0.83990  0.44510  0.36000  Biso   1.000  C
  H1       1.0000 0.44580  0.04420  0.20800  Biso   1.000  H
  H2       1.0000 0.44580  0.04420  0.79200  Biso   1.000  H
  H3       1.0000 0.94580  0.45580  0.70800  Biso   1.000  H
  H4       1.0000 0.05420  0.54420  0.70800  Biso   1.000  H
  H5       1.0000 0.55420  0.95580  0.79200  Biso   1.000  H
  H6       1.0000 0.55420  0.95580  0.20800  Biso   1.000  H
  H7       1.0000 0.05420  0.54420  0.29200  Biso   1.000  H
  H8       1.0000 0.94580  0.45580  0.29200  Biso   1.000  H
  C9       1.0000 0.22240  0.00890  0.14000  Biso   1.000  C
  C10      1.0000 0.22240  0.00890  0.86000  Biso   1.000  C
  C11      1.0000 0.72240  0.49110  0.64000  Biso   1.000  C
  C12      1.0000 0.27760  0.50890  0.64000  Biso   1.000  C
  C13      1.0000 0.77760  0.99110  0.86000  Biso   1.000  C
  C14      1.0000 0.77760  0.99110  0.14000  Biso   1.000  C
  C15      1.0000 0.27760  0.50890  0.36000  Biso   1.000  C
  C16      1.0000 0.72240  0.49110  0.36000  Biso   1.000  C
  H9       1.0000 0.24910  0.96830  0.20510  Biso   1.000  H
  H10      1.0000 0.24910  0.96830  0.79490  Biso   1.000  H
  H11      1.0000 0.74910  0.53170  0.70510  Biso   1.000  H
  H12      1.0000 0.25090  0.46830  0.70510  Biso   1.000  H
  H13      1.0000 0.75090  0.03170  0.79490  Biso   1.000  H
  H14      1.0000 0.75090  0.03170  0.20510  Biso   1.000  H
  H15      1.0000 0.25090  0.46830  0.29490  Biso   1.000  H
  H16      1.0000 0.74910  0.53170  0.29490  Biso   1.000  H
  C17      1.0000 0.06440  0.02390  0.04200  Biso   1.000  C
  C18      1.0000 0.06440  0.02390  0.95800  Biso   1.000  C
  C19      1.0000 0.56440  0.47610  0.54200  Biso   1.000  C
  C20      1.0000 0.43560  0.52390  0.54200  Biso   1.000  C
  C21      1.0000 0.93560  0.97610  0.95800  Biso   1.000  C
  C22      1.0000 0.93560  0.97610  0.04200  Biso   1.000  C
  C23      1.0000 0.43560  0.52390  0.45800  Biso   1.000  C
  C24      1.0000 0.56440  0.47610  0.45800  Biso   1.000  C
  C25      1.0000 0.03500  0.08440  0.95100  Biso   1.000  C
  C26      1.0000 0.03500  0.08440  0.04900  Biso   1.000  C
  C27      1.0000 0.53500  0.41560  0.45100  Biso   1.000  C
  C28      1.0000 0.46500  0.58440  0.45100  Biso   1.000  C
  C29      1.0000 0.96500  0.91560  0.04900  Biso   1.000  C
  C30      1.0000 0.96500  0.91560  0.95100  Biso   1.000  C
  C31      1.0000 0.46500  0.58440  0.54900  Biso   1.000  C
  C32      1.0000 0.53500  0.41560  0.54900  Biso   1.000  C
  H17      1.0000 0.92930  0.09680  0.89170  Biso   1.000  H
  H18      1.0000 0.92930  0.09680  0.10830  Biso   1.000  H
  H19      1.0000 0.42930  0.40320  0.39170  Biso   1.000  H
  H20      1.0000 0.57070  0.59680  0.39170  Biso   1.000  H
  H21      1.0000 0.07070  0.90320  0.10830  Biso   1.000  H
  H22      1.0000 0.07070  0.90320  0.89170  Biso   1.000  H
  H23      1.0000 0.57070  0.59680  0.60830  Biso   1.000  H
  H24      1.0000 0.42930  0.40320  0.60830  Biso   1.000  H
  C33      1.0000 0.15930  0.12720  0.94700  Biso   1.000  C
  C34      1.0000 0.15930  0.12720  0.05300  Biso   1.000  C
  C35      1.0000 0.65930  0.37280  0.44700  Biso   1.000  C
  C36      1.0000 0.34070  0.62720  0.44700  Biso   1.000  C
  C37      1.0000 0.84070  0.87280  0.05300  Biso   1.000  C
  C38      1.0000 0.84070  0.87280  0.94700  Biso   1.000  C
  C39      1.0000 0.34070  0.62720  0.55300  Biso   1.000  C
  C40      1.0000 0.65930  0.37280  0.55300  Biso   1.000  C
  H25      1.0000 0.13690  0.16750  0.86950  Biso   1.000  H
  H26      1.0000 0.13690  0.16750  0.13050  Biso   1.000  H
  H27      1.0000 0.63690  0.33250  0.36950  Biso   1.000  H
  H28      1.0000 0.36310  0.66750  0.36950  Biso   1.000  H
  H29      1.0000 0.86310  0.83250  0.13050  Biso   1.000  H
  H30      1.0000 0.86310  0.83250  0.86950  Biso   1.000  H
  H31      1.0000 0.36310  0.66750  0.63050  Biso   1.000  H
  H32      1.0000 0.63690  0.33250  0.63050  Biso   1.000  H
  S1       1.0000 0.65146  0.15051  0.50000  Biso   1.000  S
  S2       1.0000 0.15146  0.34949  0.00000  Biso   1.000  S
  S3       1.0000 0.84854  0.65051  0.00000  Biso   1.000  S
  S4       1.0000 0.34854  0.84949  0.50000  Biso   1.000  S
  C41      1.0000 0.79490  0.20480  0.50000  Biso   1.000  C
  C42      1.0000 0.29490  0.29520  0.00000  Biso   1.000  C
  C43      1.0000 0.70510  0.70480  0.00000  Biso   1.000  C
  C44      1.0000 0.20510  0.79520  0.50000  Biso   1.000  C
  N9       1.0000 0.39390  0.25800  0.00000  Biso   1.000  N
  N10      1.0000 0.89390  0.24200  0.50000  Biso   1.000  N
  N11      1.0000 0.10610  0.75800  0.50000  Biso   1.000  N
  N12      1.0000 0.60610  0.74200  0.00000  Biso   1.000  N
