data_image0
_cell_length_a       12.8167
_cell_length_b       14.2096
_cell_length_c       23.0463
_cell_angle_alpha    90
_cell_angle_beta     99.549
_cell_angle_gamma    90

_symmetry_space_group_name_H-M    "P 1"
_symmetry_int_tables_number       1

loop_
  _symmetry_equiv_pos_as_xyz
  'x, y, z'

loop_
  _atom_site_label
  _atom_site_occupancy
  _atom_site_fract_x
  _atom_site_fract_y
  _atom_site_fract_z
  _atom_site_thermal_displace_type
  _atom_site_B_iso_or_equiv
  _atom_site_type_symbol
  N1       1.0000 0.14410  0.29330  0.48880  Biso   1.000  N
  N2       1.0000 0.35590  0.79330  0.01120  Biso   1.000  N
  N3       1.0000 0.85590  0.70670  0.51120  Biso   1.000  N
  N4       1.0000 0.64410  0.20670  0.98880  Biso   1.000  N
  N5       1.0000 0.24550  0.87830  0.15350  Biso   1.000  N
  N6       1.0000 0.25450  0.37830  0.34650  Biso   1.000  N
  N7       1.0000 0.75450  0.12170  0.84650  Biso   1.000  N
  N8       1.0000 0.74550  0.62170  0.65350  Biso   1.000  N
  N9       1.0000 0.38410  0.75420  0.19940  Biso   1.000  N
  N10      1.0000 0.11590  0.25420  0.30060  Biso   1.000  N
  N11      1.0000 0.61590  0.24580  0.80060  Biso   1.000  N
  N12      1.0000 0.88410  0.74580  0.69940  Biso   1.000  N
  N13      1.0000 0.66230  0.92340  0.31300  Biso   1.000  N
  N14      1.0000 0.83770  0.42340  0.18700  Biso   1.000  N
  N15      1.0000 0.33770  0.07660  0.68700  Biso   1.000  N
  N16      1.0000 0.16230  0.57660  0.81300  Biso   1.000  N
  N17      1.0000 0.22600  0.47080  0.52160  Biso   1.000  N
  N18      1.0000 0.27400  0.97080  0.97840  Biso   1.000  N
  N19      1.0000 0.77400  0.52920  0.47840  Biso   1.000  N
  N20      1.0000 0.72600  0.02920  0.02160  Biso   1.000  N
  N21      1.0000 0.49790  0.90610  0.26450  Biso   1.000  N
  N22      1.0000 0.00210  0.40610  0.23550  Biso   1.000  N
  N23      1.0000 0.50210  0.09390  0.73550  Biso   1.000  N
  N24      1.0000 0.99790  0.59390  0.76450  Biso   1.000  N
  N25      1.0000 0.05470  0.69810  0.41390  Biso   1.000  N
  N26      1.0000 0.44530  0.19810  0.08610  Biso   1.000  N
  N27      1.0000 0.94530  0.30190  0.58610  Biso   1.000  N
  N28      1.0000 0.55470  0.80190  0.91390  Biso   1.000  N
  N29      1.0000 0.99820  0.36950  0.41520  Biso   1.000  N
  N30      1.0000 0.50180  0.86950  0.08480  Biso   1.000  N
  N31      1.0000 0.00180  0.63050  0.58480  Biso   1.000  N
  N32      1.0000 0.49820  0.13050  0.91520  Biso   1.000  N
  N33      1.0000 0.41200  0.60420  0.18300  Biso   1.000  N
  N34      1.0000 0.08800  0.10420  0.31700  Biso   1.000  N
  N35      1.0000 0.58800  0.39580  0.81700  Biso   1.000  N
  N36      1.0000 0.91200  0.89580  0.68300  Biso   1.000  N
  N37      1.0000 0.34830  0.01810  0.22710  Biso   1.000  N
  N38      1.0000 0.15170  0.51810  0.27290  Biso   1.000  N
  N39      1.0000 0.65170  0.98190  0.77290  Biso   1.000  N
  N40      1.0000 0.84830  0.48190  0.72710  Biso   1.000  N
  N41      1.0000 0.85400  0.31620  0.35680  Biso   1.000  N
  N42      1.0000 0.64600  0.81620  0.14320  Biso   1.000  N
  N43      1.0000 0.14600  0.68380  0.64320  Biso   1.000  N
  N44      1.0000 0.35400  0.18380  0.85680  Biso   1.000  N
  N45      1.0000 0.08910  0.54960  0.44670  Biso   1.000  N
  N46      1.0000 0.41090  0.04960  0.05330  Biso   1.000  N
  N47      1.0000 0.91090  0.45040  0.55330  Biso   1.000  N
  N48      1.0000 0.58910  0.95040  0.94670  Biso   1.000  N
  Cu1      1.0000 0.70910  0.31843  0.31214  Biso   1.000  Cu
  Cu2      1.0000 0.79090  0.81843  0.18786  Biso   1.000  Cu
  Cu3      1.0000 0.29090  0.68157  0.68786  Biso   1.000  Cu
  Cu4      1.0000 0.20910  0.18157  0.81214  Biso   1.000  Cu
  Cu5      1.0000 0.52150  0.33322  0.26319  Biso   1.000  Cu
  Cu6      1.0000 0.97850  0.83322  0.23681  Biso   1.000  Cu
  Cu7      1.0000 0.47850  0.66678  0.73681  Biso   1.000  Cu
  Cu8      1.0000 0.02150  0.16678  0.76319  Biso   1.000  Cu
  Cu9      1.0000 0.68180  0.39778  0.17577  Biso   1.000  Cu
  Cu10     1.0000 0.81820  0.89778  0.32423  Biso   1.000  Cu
  Cu11     1.0000 0.31820  0.60222  0.82423  Biso   1.000  Cu
  Cu12     1.0000 0.18180  0.10222  0.67577  Biso   1.000  Cu
  Cu13     1.0000 0.50250  0.30312  0.13986  Biso   1.000  Cu
  Cu14     1.0000 0.99750  0.80312  0.36014  Biso   1.000  Cu
  Cu15     1.0000 0.49750  0.69688  0.86014  Biso   1.000  Cu
  Cu16     1.0000 0.00250  0.19688  0.63986  Biso   1.000  Cu
  Cu17     1.0000 0.48380  0.47867  0.18651  Biso   1.000  Cu
  Cu18     1.0000 0.01620  0.97867  0.31349  Biso   1.000  Cu
  Cu19     1.0000 0.51620  0.52133  0.81349  Biso   1.000  Cu
  Cu20     1.0000 0.98380  0.02133  0.68651  Biso   1.000  Cu
  Ni1      1.0000 0.11290  0.42220  0.46683  Biso   1.000  Ni
  Ni2      1.0000 0.38710  0.92220  0.03317  Biso   1.000  Ni
  Ni3      1.0000 0.88710  0.57780  0.53317  Biso   1.000  Ni
  Ni4      1.0000 0.61290  0.07780  0.96683  Biso   1.000  Ni
  Ni5      1.0000 0.36820  0.88709  0.21283  Biso   1.000  Ni
  Ni6      1.0000 0.13180  0.38709  0.28717  Biso   1.000  Ni
  Ni7      1.0000 0.63180  0.11291  0.78717  Biso   1.000  Ni
  Ni8      1.0000 0.86820  0.61291  0.71283  Biso   1.000  Ni
  I1       1.0000 0.33860  0.34336  0.19946  Biso   1.000  I
  I2       1.0000 0.16140  0.84336  0.30054  Biso   1.000  I
  I3       1.0000 0.66140  0.65664  0.80054  Biso   1.000  I
  I4       1.0000 0.83860  0.15664  0.69946  Biso   1.000  I
  I5       1.0000 0.66445  0.21673  0.21071  Biso   1.000  I
  I6       1.0000 0.83555  0.71673  0.28929  Biso   1.000  I
  I7       1.0000 0.33555  0.78327  0.78929  Biso   1.000  I
  I8       1.0000 0.16445  0.28327  0.71071  Biso   1.000  I
  I9       1.0000 0.64019  0.49657  0.27851  Biso   1.000  I
  I10      1.0000 0.85981  0.99657  0.22149  Biso   1.000  I
  I11      1.0000 0.35981  0.50343  0.72149  Biso   1.000  I
  I12      1.0000 0.14019  0.00343  0.77851  Biso   1.000  I
  I13      1.0000 0.55377  0.45620  0.08344  Biso   1.000  I
  I14      1.0000 0.94623  0.95620  0.41656  Biso   1.000  I
  I15      1.0000 0.44623  0.54380  0.91656  Biso   1.000  I
  I16      1.0000 0.05377  0.04380  0.58344  Biso   1.000  I
  I17      1.0000 0.55853  0.26254  0.37161  Biso   1.000  I
  I18      1.0000 0.94147  0.76254  0.12839  Biso   1.000  I
  I19      1.0000 0.44147  0.73746  0.62839  Biso   1.000  I
  I20      1.0000 0.05853  0.23746  0.87161  Biso   1.000  I
  C1       1.0000 0.16660  0.95130  0.13250  Biso   1.000  C
  C2       1.0000 0.33340  0.45130  0.36750  Biso   1.000  C
  C3       1.0000 0.83340  0.04870  0.86750  Biso   1.000  C
  C4       1.0000 0.66660  0.54870  0.63250  Biso   1.000  C
  H1       1.0000 0.15410  0.95220  0.08980  Biso   1.000  H
  H2       1.0000 0.34590  0.45220  0.41020  Biso   1.000  H
  H3       1.0000 0.84590  0.04780  0.91020  Biso   1.000  H
  H4       1.0000 0.65410  0.54780  0.58980  Biso   1.000  H
  H5       1.0000 0.10030  0.93610  0.14540  Biso   1.000  H
  H6       1.0000 0.39970  0.43610  0.35460  Biso   1.000  H
  H7       1.0000 0.89970  0.06390  0.85460  Biso   1.000  H
  H8       1.0000 0.60030  0.56390  0.64540  Biso   1.000  H
  C5       1.0000 0.30300  0.72240  0.15580  Biso   1.000  C
  C6       1.0000 0.19700  0.22240  0.34420  Biso   1.000  C
  C7       1.0000 0.69700  0.27760  0.84420  Biso   1.000  C
  C8       1.0000 0.80300  0.77760  0.65580  Biso   1.000  C
  C9       1.0000 0.91140  0.39110  0.37650  Biso   1.000  C
  C10      1.0000 0.58860  0.89110  0.12350  Biso   1.000  C
  C11      1.0000 0.08860  0.60890  0.62350  Biso   1.000  C
  C12      1.0000 0.41140  0.10890  0.87650  Biso   1.000  C
  H9       1.0000 0.89320  0.45230  0.36470  Biso   1.000  H
  H10      1.0000 0.60680  0.95230  0.13530  Biso   1.000  H
  H11      1.0000 0.10680  0.54770  0.63530  Biso   1.000  H
  H12      1.0000 0.39320  0.04770  0.86470  Biso   1.000  H
  C13      1.0000 0.13950  0.69920  0.46180  Biso   1.000  C
  C14      1.0000 0.36050  0.19920  0.03820  Biso   1.000  C
  C15      1.0000 0.86050  0.30080  0.53820  Biso   1.000  C
  C16      1.0000 0.63950  0.80080  0.96180  Biso   1.000  C
  H13      1.0000 0.17550  0.75220  0.47810  Biso   1.000  H
  H14      1.0000 0.32450  0.25220  0.02190  Biso   1.000  H
  H15      1.0000 0.82450  0.24780  0.52190  Biso   1.000  H
  H16      1.0000 0.67550  0.74780  0.97810  Biso   1.000  H
  C17      1.0000 0.03150  0.60820  0.40850  Biso   1.000  C
  C18      1.0000 0.46850  0.10820  0.09150  Biso   1.000  C
  C19      1.0000 0.96850  0.39180  0.59150  Biso   1.000  C
  C20      1.0000 0.53150  0.89180  0.90850  Biso   1.000  C
  H17      1.0000 0.97770  0.58620  0.37960  Biso   1.000  H
  H18      1.0000 0.52230  0.08620  0.12040  Biso   1.000  H
  H19      1.0000 0.02230  0.41380  0.62040  Biso   1.000  H
  H20      1.0000 0.47770  0.91380  0.87960  Biso   1.000  H
  C21      1.0000 0.15840  0.61080  0.47950  Biso   1.000  C
  C22      1.0000 0.34160  0.11080  0.02050  Biso   1.000  C
  C23      1.0000 0.84160  0.38920  0.52050  Biso   1.000  C
  C24      1.0000 0.65840  0.88920  0.97950  Biso   1.000  C
  C25      1.0000 0.59110  0.86190  0.28370  Biso   1.000  C
  C26      1.0000 0.90890  0.36190  0.21630  Biso   1.000  C
  C27      1.0000 0.40890  0.13810  0.71630  Biso   1.000  C
  C28      1.0000 0.09110  0.63810  0.78370  Biso   1.000  C
  H21      1.0000 0.60440  0.79860  0.27770  Biso   1.000  H
  H22      1.0000 0.89560  0.29860  0.22230  Biso   1.000  H
  H23      1.0000 0.39560  0.20140  0.72230  Biso   1.000  H
  H24      1.0000 0.10440  0.70140  0.77770  Biso   1.000  H
  C29      1.0000 0.23100  0.25810  0.53220  Biso   1.000  C
  C30      1.0000 0.26900  0.75810  0.96780  Biso   1.000  C
  C31      1.0000 0.76900  0.74190  0.46780  Biso   1.000  C
  C32      1.0000 0.73100  0.24190  0.03220  Biso   1.000  C
  H25      1.0000 0.20300  0.23840  0.56690  Biso   1.000  H
  H26      1.0000 0.29700  0.73840  0.93310  Biso   1.000  H
  H27      1.0000 0.79700  0.76160  0.43310  Biso   1.000  H
  H28      1.0000 0.70300  0.26160  0.06690  Biso   1.000  H
  H29      1.0000 0.26090  0.20300  0.51630  Biso   1.000  H
  H30      1.0000 0.23910  0.70300  0.98370  Biso   1.000  H
  H31      1.0000 0.73910  0.79700  0.48370  Biso   1.000  H
  H32      1.0000 0.76090  0.29700  0.01630  Biso   1.000  H
  C33      1.0000 0.22910  0.79340  0.13140  Biso   1.000  C
  C34      1.0000 0.27090  0.29340  0.36860  Biso   1.000  C
  C35      1.0000 0.77090  0.20660  0.86860  Biso   1.000  C
  C36      1.0000 0.72910  0.70660  0.63140  Biso   1.000  C
  H33      1.0000 0.17270  0.78010  0.10170  Biso   1.000  H
  H34      1.0000 0.32730  0.28010  0.39830  Biso   1.000  H
  H35      1.0000 0.82730  0.21990  0.89830  Biso   1.000  H
  H36      1.0000 0.67270  0.71990  0.60170  Biso   1.000  H
  C37      1.0000 0.30200  0.41700  0.56260  Biso   1.000  C
  C38      1.0000 0.19800  0.91700  0.93740  Biso   1.000  C
  C39      1.0000 0.69800  0.58300  0.43740  Biso   1.000  C
  C40      1.0000 0.80200  0.08300  0.06260  Biso   1.000  C
  H37      1.0000 0.36970  0.44810  0.56610  Biso   1.000  H
  H38      1.0000 0.13030  0.94810  0.93390  Biso   1.000  H
  H39      1.0000 0.63030  0.55190  0.43390  Biso   1.000  H
  H40      1.0000 0.86970  0.05190  0.06610  Biso   1.000  H
  H41      1.0000 0.27980  0.42000  0.60100  Biso   1.000  H
  H42      1.0000 0.22020  0.92000  0.89900  Biso   1.000  H
  H43      1.0000 0.72020  0.58000  0.39900  Biso   1.000  H
  H44      1.0000 0.77980  0.08000  0.10100  Biso   1.000  H
  C41      1.0000 0.51070  0.99560  0.28000  Biso   1.000  C
  C42      1.0000 0.98930  0.49560  0.22000  Biso   1.000  C
  C43      1.0000 0.48930  0.00440  0.72000  Biso   1.000  C
  C44      1.0000 0.01070  0.50440  0.78000  Biso   1.000  C
  C45      1.0000 0.07680  0.23530  0.46110  Biso   1.000  C
  C46      1.0000 0.42320  0.73530  0.03890  Biso   1.000  C
  C47      1.0000 0.92320  0.76470  0.53890  Biso   1.000  C
  C48      1.0000 0.57680  0.26470  0.96110  Biso   1.000  C
  H45      1.0000 0.08330  0.17100  0.46830  Biso   1.000  H
  H46      1.0000 0.41670  0.67100  0.03170  Biso   1.000  H
  H47      1.0000 0.91670  0.82900  0.53170  Biso   1.000  H
  H48      1.0000 0.58330  0.32900  0.96830  Biso   1.000  H
  C49      1.0000 0.31500  0.32600  0.54980  Biso   1.000  C
  C50      1.0000 0.18500  0.82600  0.95020  Biso   1.000  C
  C51      1.0000 0.68500  0.67400  0.45020  Biso   1.000  C
  C52      1.0000 0.81500  0.17400  0.04980  Biso   1.000  C
  H49      1.0000 0.35910  0.29950  0.58420  Biso   1.000  H
  H50      1.0000 0.14090  0.79950  0.91580  Biso   1.000  H
  H51      1.0000 0.64090  0.70050  0.41580  Biso   1.000  H
  H52      1.0000 0.85910  0.20050  0.08420  Biso   1.000  H
  H53      1.0000 0.35760  0.32580  0.51870  Biso   1.000  H
  H54      1.0000 0.14240  0.82580  0.98130  Biso   1.000  H
  H55      1.0000 0.64240  0.67420  0.48130  Biso   1.000  H
  H56      1.0000 0.85760  0.17420  0.01870  Biso   1.000  H
  C53      1.0000 0.32140  0.63120  0.14580  Biso   1.000  C
  C54      1.0000 0.17860  0.13120  0.35420  Biso   1.000  C
  C55      1.0000 0.67860  0.36880  0.85420  Biso   1.000  C
  C56      1.0000 0.82140  0.86880  0.64580  Biso   1.000  C
  H57      1.0000 0.28010  0.59280  0.11840  Biso   1.000  H
  H58      1.0000 0.21990  0.09280  0.38160  Biso   1.000  H
  H59      1.0000 0.71990  0.40720  0.88160  Biso   1.000  H
  H60      1.0000 0.78010  0.90720  0.61840  Biso   1.000  H
  C57      1.0000 0.61040  0.00530  0.31100  Biso   1.000  C
  C58      1.0000 0.88960  0.50530  0.18900  Biso   1.000  C
  C59      1.0000 0.38960  0.99470  0.68900  Biso   1.000  C
  C60      1.0000 0.11040  0.49470  0.81100  Biso   1.000  C
  H61      1.0000 0.63830  0.06100  0.32830  Biso   1.000  H
  H62      1.0000 0.86170  0.56100  0.17170  Biso   1.000  H
  H63      1.0000 0.36170  0.93900  0.67170  Biso   1.000  H
  H64      1.0000 0.13830  0.43900  0.82830  Biso   1.000  H
  C61      1.0000 0.99330  0.27080  0.42000  Biso   1.000  C
  C62      1.0000 0.50670  0.77080  0.08000  Biso   1.000  C
  C63      1.0000 0.00670  0.72920  0.58000  Biso   1.000  C
  C64      1.0000 0.49330  0.22920  0.92000  Biso   1.000  C
  C65      1.0000 0.20000  0.03880  0.15330  Biso   1.000  C
  C66      1.0000 0.30000  0.53880  0.34670  Biso   1.000  C
  C67      1.0000 0.80000  0.96120  0.84670  Biso   1.000  C
  C68      1.0000 0.70000  0.46120  0.65330  Biso   1.000  C
  H65      1.0000 0.13580  0.07640  0.14620  Biso   1.000  H
  H66      1.0000 0.36420  0.57640  0.35380  Biso   1.000  H
  H67      1.0000 0.86420  0.92360  0.85380  Biso   1.000  H
  H68      1.0000 0.63580  0.42360  0.64620  Biso   1.000  H
  H69      1.0000 0.24250  0.06090  0.12500  Biso   1.000  H
  H70      1.0000 0.25750  0.56090  0.37500  Biso   1.000  H
  H71      1.0000 0.75750  0.93910  0.87500  Biso   1.000  H
  H72      1.0000 0.74250  0.43910  0.62500  Biso   1.000  H
  C69      1.0000 0.90590  0.24060  0.38540  Biso   1.000  C
  C70      1.0000 0.59410  0.74060  0.11460  Biso   1.000  C
  C71      1.0000 0.09410  0.75940  0.61460  Biso   1.000  C
  C72      1.0000 0.40590  0.25940  0.88540  Biso   1.000  C
  H73      1.0000 0.88370  0.17830  0.38120  Biso   1.000  H
  H74      1.0000 0.61630  0.67830  0.11880  Biso   1.000  H
  H75      1.0000 0.11630  0.82170  0.61880  Biso   1.000  H
  H76      1.0000 0.38370  0.32170  0.88120  Biso   1.000  H
  C73      1.0000 0.42590  0.05390  0.26280  Biso   1.000  C
  C74      1.0000 0.07410  0.55390  0.23720  Biso   1.000  C
  C75      1.0000 0.57410  0.94610  0.73720  Biso   1.000  C
  C76      1.0000 0.92590  0.44610  0.76280  Biso   1.000  C
  H77      1.0000 0.42460  0.11550  0.27620  Biso   1.000  H
  H78      1.0000 0.07540  0.61550  0.22380  Biso   1.000  H
  H79      1.0000 0.57540  0.88450  0.72380  Biso   1.000  H
  H80      1.0000 0.92460  0.38450  0.77620  Biso   1.000  H
  C77      1.0000 0.23240  0.55990  0.52170  Biso   1.000  C
  C78      1.0000 0.26760  0.05990  0.97830  Biso   1.000  C
  C79      1.0000 0.76760  0.44010  0.47830  Biso   1.000  C
  C80      1.0000 0.73240  0.94010  0.02170  Biso   1.000  C
  H81      1.0000 0.28340  0.59120  0.54810  Biso   1.000  H
  H82      1.0000 0.21660  0.09120  0.95190  Biso   1.000  H
  H83      1.0000 0.71660  0.40880  0.45190  Biso   1.000  H
  H84      1.0000 0.78340  0.90880  0.04810  Biso   1.000  H
  C81      1.0000 0.25250  0.07230  0.20610  Biso   1.000  C
  C82      1.0000 0.24750  0.57230  0.29390  Biso   1.000  C
  C83      1.0000 0.74750  0.92770  0.79390  Biso   1.000  C
  C84      1.0000 0.75250  0.42770  0.70610  Biso   1.000  C
  H85      1.0000 0.20580  0.06960  0.23520  Biso   1.000  H
  H86      1.0000 0.29420  0.56960  0.26480  Biso   1.000  H
  H87      1.0000 0.79420  0.93040  0.76480  Biso   1.000  H
  H88      1.0000 0.70580  0.43040  0.73520  Biso   1.000  H
  H89      1.0000 0.27140  0.13770  0.20150  Biso   1.000  H
  H90      1.0000 0.22860  0.63770  0.29850  Biso   1.000  H
  H91      1.0000 0.72860  0.86230  0.79850  Biso   1.000  H
  H92      1.0000 0.77140  0.36230  0.70150  Biso   1.000  H
  C85      1.0000 0.44690  0.68390  0.21460  Biso   1.000  C
  C86      1.0000 0.05310  0.18390  0.28540  Biso   1.000  C
  C87      1.0000 0.55310  0.31610  0.78540  Biso   1.000  C
  C88      1.0000 0.94690  0.81610  0.71460  Biso   1.000  C
  H93      1.0000 0.50750  0.68680  0.24300  Biso   1.000  H
  H94      1.0000 0.99250  0.18680  0.25700  Biso   1.000  H
  H95      1.0000 0.49250  0.31320  0.75700  Biso   1.000  H
  H96      1.0000 0.00750  0.81320  0.74300  Biso   1.000  H
  N49      1.0000 0.11600  0.45300  0.05240  Biso   1.000  N
  N50      1.0000 0.38400  0.95300  0.44760  Biso   1.000  N
  N51      1.0000 0.88400  0.54700  0.94760  Biso   1.000  N
  N52      1.0000 0.61600  0.04700  0.55240  Biso   1.000  N
  O1       1.0000 0.11680  0.61390  0.03590  Biso   1.000  O
  O2       1.0000 0.38320  0.11390  0.46410  Biso   1.000  O
  O3       1.0000 0.88320  0.38610  0.96410  Biso   1.000  O
  O4       1.0000 0.61680  0.88610  0.53590  Biso   1.000  O
  C89      1.0000 0.19400  0.44800  0.01250  Biso   1.000  C
  C90      1.0000 0.30600  0.94800  0.48750  Biso   1.000  C
  C91      1.0000 0.80600  0.55200  0.98750  Biso   1.000  C
  C92      1.0000 0.69400  0.05200  0.51250  Biso   1.000  C
  H97      1.0000 0.19620  0.50690  0.99270  Biso   1.000  H
  H98      1.0000 0.30380  0.00690  0.50730  Biso   1.000  H
  H99      1.0000 0.80380  0.49310  0.00730  Biso   1.000  H
  H100     1.0000 0.69620  0.99310  0.49270  Biso   1.000  H
  H101     1.0000 0.17340  0.39900  0.98400  Biso   1.000  H
  H102     1.0000 0.32660  0.89900  0.51600  Biso   1.000  H
  H103     1.0000 0.82660  0.60100  0.01600  Biso   1.000  H
  H104     1.0000 0.67340  0.10100  0.48400  Biso   1.000  H
  H105     1.0000 0.26210  0.43370  0.03460  Biso   1.000  H
  H106     1.0000 0.23790  0.93370  0.46540  Biso   1.000  H
  H107     1.0000 0.73790  0.56630  0.96540  Biso   1.000  H
  H108     1.0000 0.76210  0.06630  0.53460  Biso   1.000  H
  C93      1.0000 0.07200  0.37000  0.07150  Biso   1.000  C
  C94      1.0000 0.42800  0.87000  0.42850  Biso   1.000  C
  C95      1.0000 0.92800  0.63000  0.92850  Biso   1.000  C
  C96      1.0000 0.57200  0.13000  0.57150  Biso   1.000  C
  H109     1.0000 0.09380  0.31760  0.05030  Biso   1.000  H
  H110     1.0000 0.40620  0.81760  0.44970  Biso   1.000  H
  H111     1.0000 0.90620  0.68240  0.94970  Biso   1.000  H
  H112     1.0000 0.59380  0.18240  0.55030  Biso   1.000  H
  H113     1.0000 0.99650  0.37500  0.06430  Biso   1.000  H
  H114     1.0000 0.50350  0.87500  0.43570  Biso   1.000  H
  H115     1.0000 0.00350  0.62500  0.93570  Biso   1.000  H
  H116     1.0000 0.49650  0.12500  0.56430  Biso   1.000  H
  H117     1.0000 0.09670  0.36200  0.11280  Biso   1.000  H
  H118     1.0000 0.40330  0.86200  0.38720  Biso   1.000  H
  H119     1.0000 0.90330  0.63800  0.88720  Biso   1.000  H
  H120     1.0000 0.59670  0.13800  0.61280  Biso   1.000  H
  C97      1.0000 0.08500  0.54300  0.05770  Biso   1.000  C
  C98      1.0000 0.41500  0.04300  0.44230  Biso   1.000  C
  C99      1.0000 0.91500  0.45700  0.94230  Biso   1.000  C
  C100     1.0000 0.58500  0.95700  0.55770  Biso   1.000  C
  H121     1.0000 0.03360  0.55260  0.08090  Biso   1.000  H
  H122     1.0000 0.46640  0.05260  0.41910  Biso   1.000  H
  H123     1.0000 0.96640  0.44740  0.91910  Biso   1.000  H
  H124     1.0000 0.53360  0.94740  0.58090  Biso   1.000  H
