data_image0
_cell_length_a       3.742
_cell_length_b       15.546
_cell_length_c       6.166
_cell_angle_alpha    90
_cell_angle_beta     90
_cell_angle_gamma    97.98

_symmetry_space_group_name_H-M    "P 1"
_symmetry_int_tables_number       1

loop_
  _symmetry_equiv_pos_as_xyz
  'x, y, z'

loop_
  _atom_site_label
  _atom_site_occupancy
  _atom_site_fract_x
  _atom_site_fract_y
  _atom_site_fract_z
  _atom_site_thermal_displace_type
  _atom_site_B_iso_or_equiv
  _atom_site_type_symbol
  Cl1      1.0000 0.79790  0.29010  0.10390  Biso   1.000  Cl
  Cl2      1.0000 0.20210  0.20990  0.60390  Biso   1.000  Cl
  Cl3      1.0000 0.20210  0.70990  0.89610  Biso   1.000  Cl
  Cl4      1.0000 0.79790  0.79010  0.39610  Biso   1.000  Cl
  N1       1.0000 0.26100  0.09700  0.12700  Biso   1.000  N
  N2       1.0000 0.73900  0.40300  0.62700  Biso   1.000  N
  N3       1.0000 0.73900  0.90300  0.87300  Biso   1.000  N
  N4       1.0000 0.26100  0.59700  0.37300  Biso   1.000  N
  C1       1.0000 0.35100  0.05000  0.23300  Biso   1.000  C
  C2       1.0000 0.64900  0.45000  0.73300  Biso   1.000  C
  C3       1.0000 0.64900  0.95000  0.76700  Biso   1.000  C
  C4       1.0000 0.35100  0.55000  0.26700  Biso   1.000  C
  C5       1.0000 0.44700  0.98800  0.40500  Biso   1.000  C
  C6       1.0000 0.55300  0.51200  0.90500  Biso   1.000  C
  C7       1.0000 0.55300  0.01200  0.59500  Biso   1.000  C
  C8       1.0000 0.44700  0.48800  0.09500  Biso   1.000  C
  Cu1      1.0000 0.23010  0.20570  0.98040  Biso   1.000  Cu
  Cu2      1.0000 0.76990  0.29430  0.48040  Biso   1.000  Cu
  Cu3      1.0000 0.76990  0.79430  0.01960  Biso   1.000  Cu
  Cu4      1.0000 0.23010  0.70570  0.51960  Biso   1.000  Cu
