data_image0
_cell_length_a       6.398
_cell_length_b       3.6945
_cell_length_c       12.789
_cell_angle_alpha    90
_cell_angle_beta     90
_cell_angle_gamma    100.48

_symmetry_space_group_name_H-M    "P 1"
_symmetry_int_tables_number       1

loop_
  _symmetry_equiv_pos_as_xyz
  'x, y, z'

loop_
  _atom_site_label
  _atom_site_occupancy
  _atom_site_fract_x
  _atom_site_fract_y
  _atom_site_fract_z
  _atom_site_thermal_displace_type
  _atom_site_B_iso_or_equiv
  _atom_site_type_symbol
  Cu1      1.0000 0.44550  0.12840  0.25000  Biso   1.000  Cu
  Cu2      1.0000 0.55450  0.87160  0.75000  Biso   1.000  Cu
  Cl1      1.0000 0.21490  0.54070  0.25000  Biso   1.000  Cl
  Cl2      1.0000 0.78510  0.45930  0.75000  Biso   1.000  Cl
  N1       1.0000 0.63210  0.12820  0.12640  Biso   1.000  N
  N2       1.0000 0.36790  0.87180  0.62640  Biso   1.000  N
  N3       1.0000 0.36790  0.87180  0.87360  Biso   1.000  N
  N4       1.0000 0.63210  0.12820  0.37360  Biso   1.000  N
  C1       1.0000 0.75530  0.07830  0.06800  Biso   1.000  C
  C2       1.0000 0.24470  0.92170  0.56800  Biso   1.000  C
  C3       1.0000 0.24470  0.92170  0.93200  Biso   1.000  C
  C4       1.0000 0.75530  0.07830  0.43200  Biso   1.000  C
  C5       1.0000 0.90310  0.00950  0.98850  Biso   1.000  C
  C6       1.0000 0.09690  0.99050  0.48850  Biso   1.000  C
  C7       1.0000 0.09690  0.99050  0.01150  Biso   1.000  C
  C8       1.0000 0.90310  0.00950  0.51150  Biso   1.000  C
