data_image0
_cell_length_a       8.1426
_cell_length_b       9.8908
_cell_length_c       14.611
_cell_angle_alpha    90
_cell_angle_beta     90
_cell_angle_gamma    90

_symmetry_space_group_name_H-M    "P 1"
_symmetry_int_tables_number       1

loop_
  _symmetry_equiv_pos_as_xyz
  'x, y, z'

loop_
  _atom_site_label
  _atom_site_occupancy
  _atom_site_fract_x
  _atom_site_fract_y
  _atom_site_fract_z
  _atom_site_thermal_displace_type
  _atom_site_B_iso_or_equiv
  _atom_site_type_symbol
  Cu1      1.0000 0.39886  0.13697  0.06749  Biso   1.000  Cu
  Cu2      1.0000 0.10114  0.36303  0.06749  Biso   1.000  Cu
  Cu3      1.0000 0.89886  0.86303  0.43251  Biso   1.000  Cu
  Cu4      1.0000 0.60114  0.63697  0.43251  Biso   1.000  Cu
  Cu5      1.0000 0.60114  0.86303  0.93251  Biso   1.000  Cu
  Cu6      1.0000 0.89886  0.63697  0.93251  Biso   1.000  Cu
  Cu7      1.0000 0.10114  0.13697  0.56749  Biso   1.000  Cu
  Cu8      1.0000 0.39886  0.36303  0.56749  Biso   1.000  Cu
  N1       1.0000 0.25210  0.00220  0.11224  Biso   1.000  N
  N2       1.0000 0.24790  0.49780  0.11224  Biso   1.000  N
  N3       1.0000 0.75210  0.99780  0.38776  Biso   1.000  N
  N4       1.0000 0.74790  0.50220  0.38776  Biso   1.000  N
  N5       1.0000 0.74790  0.99780  0.88776  Biso   1.000  N
  N6       1.0000 0.75210  0.50220  0.88776  Biso   1.000  N
  N7       1.0000 0.24790  0.00220  0.61224  Biso   1.000  N
  N8       1.0000 0.25210  0.49780  0.61224  Biso   1.000  N
  N9       1.0000 0.11860  0.85720  0.90673  Biso   1.000  N
  N10      1.0000 0.38140  0.64280  0.90673  Biso   1.000  N
  N11      1.0000 0.61860  0.14280  0.59327  Biso   1.000  N
  N12      1.0000 0.88140  0.35720  0.59327  Biso   1.000  N
  N13      1.0000 0.88140  0.14280  0.09327  Biso   1.000  N
  N14      1.0000 0.61860  0.35720  0.09327  Biso   1.000  N
  N15      1.0000 0.38140  0.85720  0.40673  Biso   1.000  N
  N16      1.0000 0.11860  0.64280  0.40673  Biso   1.000  N
  C1       1.0000 0.08570  0.86410  0.21150  Biso   1.000  C
  C2       1.0000 0.41430  0.63590  0.21150  Biso   1.000  C
  C3       1.0000 0.58570  0.13590  0.28850  Biso   1.000  C
  C4       1.0000 0.91430  0.36410  0.28850  Biso   1.000  C
  C5       1.0000 0.91430  0.13590  0.78850  Biso   1.000  C
  C6       1.0000 0.58570  0.36410  0.78850  Biso   1.000  C
  C7       1.0000 0.41430  0.86410  0.71150  Biso   1.000  C
  C8       1.0000 0.08570  0.63590  0.71150  Biso   1.000  C
  H1       1.0000 0.05760  0.84330  0.27150  Biso   1.000  H
  H2       1.0000 0.44240  0.65670  0.27150  Biso   1.000  H
  H3       1.0000 0.55760  0.15670  0.22850  Biso   1.000  H
  H4       1.0000 0.94240  0.34330  0.22850  Biso   1.000  H
  H5       1.0000 0.94240  0.15670  0.72850  Biso   1.000  H
  H6       1.0000 0.55760  0.34330  0.72850  Biso   1.000  H
  H7       1.0000 0.44240  0.84330  0.77150  Biso   1.000  H
  H8       1.0000 0.05760  0.65670  0.77150  Biso   1.000  H
  N17      1.0000 0.02680  0.78620  0.96737  Biso   1.000  N
  N18      1.0000 0.47320  0.71380  0.96737  Biso   1.000  N
  N19      1.0000 0.52680  0.21380  0.53263  Biso   1.000  N
  N20      1.0000 0.97320  0.28620  0.53263  Biso   1.000  N
  N21      1.0000 0.97320  0.21380  0.03263  Biso   1.000  N
  N22      1.0000 0.52680  0.28620  0.03263  Biso   1.000  N
  N23      1.0000 0.47320  0.78620  0.46737  Biso   1.000  N
  N24      1.0000 0.02680  0.71380  0.46737  Biso   1.000  N
  N25      1.0000 0.20950  0.94310  0.95404  Biso   1.000  N
  N26      1.0000 0.29050  0.55690  0.95404  Biso   1.000  N
  N27      1.0000 0.70950  0.05690  0.54596  Biso   1.000  N
  N28      1.0000 0.79050  0.44310  0.54596  Biso   1.000  N
  N29      1.0000 0.79050  0.05690  0.04596  Biso   1.000  N
  N30      1.0000 0.70950  0.44310  0.04596  Biso   1.000  N
  N31      1.0000 0.29050  0.94310  0.45404  Biso   1.000  N
  N32      1.0000 0.20950  0.55690  0.45404  Biso   1.000  N
  O1       1.0000 0.31930  0.02440  0.91812  Biso   1.000  O
  O2       1.0000 0.18070  0.47560  0.91812  Biso   1.000  O
  O3       1.0000 0.81930  0.97560  0.58188  Biso   1.000  O
  O4       1.0000 0.68070  0.52440  0.58188  Biso   1.000  O
  O5       1.0000 0.68070  0.97560  0.08188  Biso   1.000  O
  O6       1.0000 0.81930  0.52440  0.08188  Biso   1.000  O
  O7       1.0000 0.18070  0.02440  0.41812  Biso   1.000  O
  O8       1.0000 0.31930  0.47560  0.41812  Biso   1.000  O
  C9       1.0000 0.17920  0.93070  0.04542  Biso   1.000  C
  C10      1.0000 0.32080  0.56930  0.04542  Biso   1.000  C
  C11      1.0000 0.67920  0.06930  0.45458  Biso   1.000  C
  C12      1.0000 0.82080  0.43070  0.45458  Biso   1.000  C
  C13      1.0000 0.82080  0.06930  0.95458  Biso   1.000  C
  C14      1.0000 0.67920  0.43070  0.95458  Biso   1.000  C
  C15      1.0000 0.32080  0.93070  0.54542  Biso   1.000  C
  C16      1.0000 0.17920  0.56930  0.54542  Biso   1.000  C
  C17      1.0000 0.20180  0.96630  0.19564  Biso   1.000  C
  C18      1.0000 0.29820  0.53370  0.19564  Biso   1.000  C
  C19      1.0000 0.70180  0.03370  0.30436  Biso   1.000  C
  C20      1.0000 0.79820  0.46630  0.30436  Biso   1.000  C
  C21      1.0000 0.79820  0.03370  0.80436  Biso   1.000  C
  C22      1.0000 0.70180  0.46630  0.80436  Biso   1.000  C
  C23      1.0000 0.29820  0.96630  0.69564  Biso   1.000  C
  C24      1.0000 0.20180  0.53370  0.69564  Biso   1.000  C
  H9       1.0000 0.24590  0.01120  0.24580  Biso   1.000  H
  H10      1.0000 0.25410  0.48880  0.24580  Biso   1.000  H
  H11      1.0000 0.74590  0.98880  0.25420  Biso   1.000  H
  H12      1.0000 0.75410  0.51120  0.25420  Biso   1.000  H
  H13      1.0000 0.75410  0.98880  0.75420  Biso   1.000  H
  H14      1.0000 0.74590  0.51120  0.75420  Biso   1.000  H
  H15      1.0000 0.25410  0.01120  0.74580  Biso   1.000  H
  H16      1.0000 0.24590  0.48880  0.74580  Biso   1.000  H
  C25      1.0000 0.01230  0.79370  0.14185  Biso   1.000  C
  C26      1.0000 0.48770  0.70630  0.14185  Biso   1.000  C
  C27      1.0000 0.51230  0.20630  0.35815  Biso   1.000  C
  C28      1.0000 0.98770  0.29370  0.35815  Biso   1.000  C
  C29      1.0000 0.98770  0.20630  0.85815  Biso   1.000  C
  C30      1.0000 0.51230  0.29370  0.85815  Biso   1.000  C
  C31      1.0000 0.48770  0.79370  0.64185  Biso   1.000  C
  C32      1.0000 0.01230  0.70630  0.64185  Biso   1.000  C
  H17      1.0000 0.93460  0.72660  0.15230  Biso   1.000  H
  H18      1.0000 0.56540  0.77340  0.15230  Biso   1.000  H
  H19      1.0000 0.43460  0.27340  0.34770  Biso   1.000  H
  H20      1.0000 0.06540  0.22660  0.34770  Biso   1.000  H
  H21      1.0000 0.06540  0.27340  0.84770  Biso   1.000  H
  H22      1.0000 0.43460  0.22660  0.84770  Biso   1.000  H
  H23      1.0000 0.56540  0.72660  0.65230  Biso   1.000  H
  H24      1.0000 0.93460  0.77340  0.65230  Biso   1.000  H
  C33      1.0000 0.06330  0.83060  0.05326  Biso   1.000  C
  C34      1.0000 0.43670  0.66940  0.05326  Biso   1.000  C
  C35      1.0000 0.56330  0.16940  0.44674  Biso   1.000  C
  C36      1.0000 0.93670  0.33060  0.44674  Biso   1.000  C
  C37      1.0000 0.93670  0.16940  0.94674  Biso   1.000  C
  C38      1.0000 0.56330  0.33060  0.94674  Biso   1.000  C
  C39      1.0000 0.43670  0.83060  0.55326  Biso   1.000  C
  C40      1.0000 0.06330  0.66940  0.55326  Biso   1.000  C
