data_image0
_cell_length_a       8.0993
_cell_length_b       10.477
_cell_length_c       9.3196
_cell_angle_alpha    90
_cell_angle_beta     91.474
_cell_angle_gamma    90

_symmetry_space_group_name_H-M    "P 1"
_symmetry_int_tables_number       1

loop_
  _symmetry_equiv_pos_as_xyz
  'x, y, z'

loop_
  _atom_site_label
  _atom_site_occupancy
  _atom_site_fract_x
  _atom_site_fract_y
  _atom_site_fract_z
  _atom_site_thermal_displace_type
  _atom_site_B_iso_or_equiv
  _atom_site_type_symbol
  Cu1      1.0000 0.85939  0.91420  0.88486  Biso   1.000  Cu
  Cu2      1.0000 0.14061  0.41420  0.61514  Biso   1.000  Cu
  Cu3      1.0000 0.14061  0.08580  0.11514  Biso   1.000  Cu
  Cu4      1.0000 0.85939  0.58580  0.38486  Biso   1.000  Cu
  N1       1.0000 0.97850  0.07173  0.81780  Biso   1.000  N
  N2       1.0000 0.02150  0.57173  0.68220  Biso   1.000  N
  N3       1.0000 0.02150  0.92827  0.18220  Biso   1.000  N
  N4       1.0000 0.97850  0.42827  0.31780  Biso   1.000  N
  N5       1.0000 0.10110  0.11920  0.90210  Biso   1.000  N
  N6       1.0000 0.89890  0.61920  0.59790  Biso   1.000  N
  N7       1.0000 0.89890  0.88080  0.09790  Biso   1.000  N
  N8       1.0000 0.10110  0.38080  0.40210  Biso   1.000  N
  N9       1.0000 0.15720  0.22580  0.84770  Biso   1.000  N
  N10      1.0000 0.84280  0.72580  0.65230  Biso   1.000  N
  N11      1.0000 0.84280  0.77420  0.15230  Biso   1.000  N
  N12      1.0000 0.15720  0.27420  0.34770  Biso   1.000  N
  N13      1.0000 0.07100  0.25060  0.72530  Biso   1.000  N
  N14      1.0000 0.92900  0.75060  0.77470  Biso   1.000  N
  N15      1.0000 0.92900  0.74940  0.27470  Biso   1.000  N
  N16      1.0000 0.07100  0.24940  0.22530  Biso   1.000  N
  N17      1.0000 0.38310  0.08400  0.17160  Biso   1.000  N
  N18      1.0000 0.61690  0.58400  0.32840  Biso   1.000  N
  N19      1.0000 0.61690  0.91600  0.82840  Biso   1.000  N
  N20      1.0000 0.38310  0.41600  0.67160  Biso   1.000  N
  C1       1.0000 0.96220  0.15510  0.70950  Biso   1.000  C
  C2       1.0000 0.03780  0.65510  0.79050  Biso   1.000  C
  C3       1.0000 0.03780  0.84490  0.29050  Biso   1.000  C
  C4       1.0000 0.96220  0.34490  0.20950  Biso   1.000  C
  C5       1.0000 0.84130  0.14230  0.58960  Biso   1.000  C
  C6       1.0000 0.15870  0.64230  0.91040  Biso   1.000  C
  C7       1.0000 0.15870  0.85770  0.41040  Biso   1.000  C
  C8       1.0000 0.84130  0.35770  0.08960  Biso   1.000  C
  C9       1.0000 0.80420  0.02180  0.53410  Biso   1.000  C
  C10      1.0000 0.19580  0.52180  0.96590  Biso   1.000  C
  C11      1.0000 0.19580  0.97820  0.46590  Biso   1.000  C
  C12      1.0000 0.80420  0.47820  0.03410  Biso   1.000  C
  H1       1.0000 0.85610  0.95000  0.57300  Biso   1.000  H
  H2       1.0000 0.14390  0.45000  0.92700  Biso   1.000  H
  H3       1.0000 0.14390  0.05000  0.42700  Biso   1.000  H
  H4       1.0000 0.85610  0.55000  0.07300  Biso   1.000  H
  C13      1.0000 0.69110  0.00820  0.42180  Biso   1.000  C
  C14      1.0000 0.30890  0.50820  0.07820  Biso   1.000  C
  C15      1.0000 0.30890  0.99180  0.57820  Biso   1.000  C
  C16      1.0000 0.69110  0.49180  0.92180  Biso   1.000  C
  H5       1.0000 0.66820  0.92780  0.38390  Biso   1.000  H
  H6       1.0000 0.33180  0.42780  0.11610  Biso   1.000  H
  H7       1.0000 0.33180  0.07220  0.61610  Biso   1.000  H
  H8       1.0000 0.66820  0.57220  0.88390  Biso   1.000  H
  C17      1.0000 0.61170  0.11520  0.36580  Biso   1.000  C
  C18      1.0000 0.38830  0.61520  0.13420  Biso   1.000  C
  C19      1.0000 0.38830  0.88480  0.63420  Biso   1.000  C
  C20      1.0000 0.61170  0.38480  0.86580  Biso   1.000  C
  C21      1.0000 0.64690  0.23670  0.42060  Biso   1.000  C
  C22      1.0000 0.35310  0.73670  0.07940  Biso   1.000  C
  C23      1.0000 0.35310  0.76330  0.57940  Biso   1.000  C
  C24      1.0000 0.64690  0.26330  0.92060  Biso   1.000  C
  H9       1.0000 0.59310  0.30810  0.38300  Biso   1.000  H
  H10      1.0000 0.40690  0.80810  0.11700  Biso   1.000  H
  H11      1.0000 0.40690  0.69190  0.61700  Biso   1.000  H
  H12      1.0000 0.59310  0.19190  0.88300  Biso   1.000  H
  C25      1.0000 0.76300  0.24950  0.53170  Biso   1.000  C
  C26      1.0000 0.23700  0.74950  0.96830  Biso   1.000  C
  C27      1.0000 0.23700  0.75050  0.46830  Biso   1.000  C
  C28      1.0000 0.76300  0.25050  0.03170  Biso   1.000  C
  H13      1.0000 0.78860  0.33010  0.56760  Biso   1.000  H
  H14      1.0000 0.21140  0.83010  0.93240  Biso   1.000  H
  H15      1.0000 0.21140  0.66990  0.43240  Biso   1.000  H
  H16      1.0000 0.78860  0.16990  0.06760  Biso   1.000  H
  C29      1.0000 0.48600  0.09950  0.25460  Biso   1.000  C
  C30      1.0000 0.51400  0.59950  0.24540  Biso   1.000  C
  C31      1.0000 0.51400  0.90050  0.74540  Biso   1.000  C
  C32      1.0000 0.48600  0.40050  0.75460  Biso   1.000  C
