data_image0
_cell_length_a       11.5178
_cell_length_b       11.541
_cell_length_c       25.014
_cell_angle_alpha    84.761
_cell_angle_beta     81.272
_cell_angle_gamma    66.153

_symmetry_space_group_name_H-M    "P 1"
_symmetry_int_tables_number       1

loop_
  _symmetry_equiv_pos_as_xyz
  'x, y, z'

loop_
  _atom_site_label
  _atom_site_occupancy
  _atom_site_fract_x
  _atom_site_fract_y
  _atom_site_fract_z
  _atom_site_thermal_displace_type
  _atom_site_B_iso_or_equiv
  _atom_site_type_symbol
  Cu1      1.0000 0.52401  0.10210  0.52467  Biso   1.000  Cu
  Cu2      1.0000 0.47599  0.89790  0.47533  Biso   1.000  Cu
  Br1      1.0000 0.37131  0.13446  0.45797  Biso   1.000  Br
  Br2      1.0000 0.62869  0.86554  0.54203  Biso   1.000  Br
  S1       1.0000 0.40700  0.19800  0.60149  Biso   1.000  S
  S2       1.0000 0.59300  0.80200  0.39851  Biso   1.000  S
  S3       1.0000 0.31260  0.84610  0.51937  Biso   1.000  S
  S4       1.0000 0.68740  0.15390  0.48063  Biso   1.000  S
  O1       1.0000 0.08400  0.76400  0.48090  Biso   1.000  O
  O2       1.0000 0.91600  0.23600  0.51910  Biso   1.000  O
  O3       1.0000 0.07690  0.54680  0.55520  Biso   1.000  O
  O4       1.0000 0.92310  0.45320  0.44480  Biso   1.000  O
  O5       1.0000 0.34310  0.48230  0.65020  Biso   1.000  O
  O6       1.0000 0.65690  0.51770  0.34980  Biso   1.000  O
  O7       1.0000 0.26110  0.75340  0.64190  Biso   1.000  O
  O8       1.0000 0.73890  0.24660  0.35810  Biso   1.000  O
  C1       1.0000 0.01280  0.68740  0.48000  Biso   1.000  C
  C2       1.0000 0.98720  0.31260  0.52000  Biso   1.000  C
  H1       1.0000 0.06790  0.60780  0.46140  Biso   1.000  H
  H2       1.0000 0.93210  0.39220  0.53860  Biso   1.000  H
  H3       1.0000 0.93910  0.73310  0.45960  Biso   1.000  H
  H4       1.0000 0.06090  0.26690  0.54040  Biso   1.000  H
  C3       1.0000 0.96700  0.65800  0.53470  Biso   1.000  C
  C4       1.0000 0.03300  0.34200  0.46530  Biso   1.000  C
  H5       1.0000 0.89250  0.63570  0.53480  Biso   1.000  H
  H6       1.0000 0.10750  0.36430  0.46520  Biso   1.000  H
  H7       1.0000 0.94100  0.73160  0.55790  Biso   1.000  H
  H8       1.0000 0.05900  0.26840  0.44210  Biso   1.000  H
  C5       1.0000 0.05360  0.49400  0.60610  Biso   1.000  C
  C6       1.0000 0.94640  0.50600  0.39390  Biso   1.000  C
  C7       1.0000 0.94470  0.54860  0.64070  Biso   1.000  C
  C8       1.0000 0.05530  0.45140  0.35930  Biso   1.000  C
  H9       1.0000 0.87870  0.62560  0.63050  Biso   1.000  H
  H10      1.0000 0.12130  0.37440  0.36950  Biso   1.000  H
  C9       1.0000 0.93110  0.49100  0.69100  Biso   1.000  C
  C10      1.0000 0.06890  0.50900  0.30900  Biso   1.000  C
  H11      1.0000 0.85540  0.52920  0.71530  Biso   1.000  H
  H12      1.0000 0.14460  0.47080  0.28470  Biso   1.000  H
  C11      1.0000 0.02300  0.37900  0.70640  Biso   1.000  C
  C12      1.0000 0.97700  0.62100  0.29360  Biso   1.000  C
  H13      1.0000 0.01310  0.33900  0.74050  Biso   1.000  H
  H14      1.0000 0.98690  0.66100  0.25950  Biso   1.000  H
  C13      1.0000 0.13670  0.32670  0.66900  Biso   1.000  C
  C14      1.0000 0.86330  0.67330  0.33100  Biso   1.000  C
  H15      1.0000 0.20200  0.24880  0.67870  Biso   1.000  H
  H16      1.0000 0.79800  0.75120  0.32130  Biso   1.000  H
  C15      1.0000 0.15600  0.38310  0.61930  Biso   1.000  C
  C16      1.0000 0.84400  0.61690  0.38070  Biso   1.000  C
  C17      1.0000 0.26920  0.33100  0.57830  Biso   1.000  C
  C18      1.0000 0.73080  0.66900  0.42170  Biso   1.000  C
  H17      1.0000 0.29690  0.40020  0.56450  Biso   1.000  H
  H18      1.0000 0.70310  0.59980  0.43550  Biso   1.000  H
  H19      1.0000 0.24310  0.30310  0.54750  Biso   1.000  H
  H20      1.0000 0.75690  0.69690  0.45250  Biso   1.000  H
  C19      1.0000 0.49900  0.27560  0.62640  Biso   1.000  C
  C20      1.0000 0.50100  0.72440  0.37360  Biso   1.000  C
  H21      1.0000 0.57790  0.20940  0.63840  Biso   1.000  H
  H22      1.0000 0.42210  0.79060  0.36160  Biso   1.000  H
  H23      1.0000 0.52510  0.32480  0.59600  Biso   1.000  H
  H24      1.0000 0.47490  0.67520  0.40400  Biso   1.000  H
  C21      1.0000 0.42700  0.36300  0.67250  Biso   1.000  C
  C22      1.0000 0.57300  0.63700  0.32750  Biso   1.000  C
  H25      1.0000 0.37720  0.32500  0.69810  Biso   1.000  H
  H26      1.0000 0.62280  0.67500  0.30190  Biso   1.000  H
  H27      1.0000 0.48860  0.37700  0.69230  Biso   1.000  H
  H28      1.0000 0.51140  0.62300  0.30770  Biso   1.000  H
  C23      1.0000 0.26300  0.56450  0.69330  Biso   1.000  C
  C24      1.0000 0.73700  0.43550  0.30670  Biso   1.000  C
  H29      1.0000 0.31620  0.57710  0.71790  Biso   1.000  H
  H30      1.0000 0.68380  0.42290  0.28210  Biso   1.000  H
  H31      1.0000 0.20650  0.52650  0.71460  Biso   1.000  H
  H32      1.0000 0.79350  0.47350  0.28540  Biso   1.000  H
  C25      1.0000 0.18300  0.69100  0.66710  Biso   1.000  C
  C26      1.0000 0.81700  0.30900  0.33290  Biso   1.000  C
  H33      1.0000 0.13630  0.67670  0.63980  Biso   1.000  H
  H34      1.0000 0.86370  0.32330  0.36020  Biso   1.000  H
  H35      1.0000 0.11820  0.74600  0.69500  Biso   1.000  H
  H36      1.0000 0.88180  0.25400  0.30500  Biso   1.000  H
  C27      1.0000 0.19360  0.87670  0.62440  Biso   1.000  C
  C28      1.0000 0.80640  0.12330  0.37560  Biso   1.000  C
  H37      1.0000 0.16170  0.93310  0.65560  Biso   1.000  H
  H38      1.0000 0.83830  0.06690  0.34440  Biso   1.000  H
  H39      1.0000 0.11900  0.88120  0.60790  Biso   1.000  H
  H40      1.0000 0.88100  0.11880  0.39210  Biso   1.000  H
  C29      1.0000 0.27870  0.91960  0.58370  Biso   1.000  C
  C30      1.0000 0.72130  0.08040  0.41630  Biso   1.000  C
  H41      1.0000 0.36030  0.89980  0.59810  Biso   1.000  H
  H42      1.0000 0.63970  0.10020  0.40190  Biso   1.000  H
  H43      1.0000 0.23730  0.01270  0.57810  Biso   1.000  H
  H44      1.0000 0.76270  0.98730  0.42190  Biso   1.000  H
  C31      1.0000 0.16510  0.95470  0.49150  Biso   1.000  C
  C32      1.0000 0.83490  0.04530  0.50850  Biso   1.000  C
  H45      1.0000 0.08950  0.95720  0.51690  Biso   1.000  H
  H46      1.0000 0.91050  0.04280  0.48310  Biso   1.000  H
  H47      1.0000 0.16360  0.04140  0.48740  Biso   1.000  H
  H48      1.0000 0.83640  0.95860  0.51260  Biso   1.000  H
  C33      1.0000 0.15830  0.91240  0.43760  Biso   1.000  C
  C34      1.0000 0.84170  0.08760  0.56240  Biso   1.000  C
  C35      1.0000 0.18910  0.97560  0.39020  Biso   1.000  C
  C36      1.0000 0.81090  0.02440  0.60980  Biso   1.000  C
  H49      1.0000 0.21570  0.04240  0.39310  Biso   1.000  H
  H50      1.0000 0.78430  0.95760  0.60690  Biso   1.000  H
  C37      1.0000 0.18100  0.94200  0.33830  Biso   1.000  C
  C38      1.0000 0.81900  0.05800  0.66170  Biso   1.000  C
  H51      1.0000 0.20660  0.97950  0.30590  Biso   1.000  H
  H52      1.0000 0.79340  0.02050  0.69410  Biso   1.000  H
  C39      1.0000 0.13400  0.85100  0.33820  Biso   1.000  C
  C40      1.0000 0.86600  0.14900  0.66180  Biso   1.000  C
  H53      1.0000 0.12220  0.83110  0.30400  Biso   1.000  H
  H54      1.0000 0.87780  0.16890  0.69600  Biso   1.000  H
  C41      1.0000 0.10270  0.78310  0.38270  Biso   1.000  C
  C42      1.0000 0.89730  0.21690  0.61730  Biso   1.000  C
  H55      1.0000 0.07400  0.71790  0.37940  Biso   1.000  H
  H56      1.0000 0.92600  0.28210  0.62060  Biso   1.000  H
  C43      1.0000 0.11610  0.81850  0.43300  Biso   1.000  C
  C44      1.0000 0.88390  0.18150  0.56700  Biso   1.000  C
  Cu3      1.0000 0.90220  0.96959  0.97531  Biso   1.000  Cu
  Cu4      1.0000 0.09780  0.03041  0.02469  Biso   1.000  Cu
  Br3      1.0000 0.85678  0.13881  0.04050  Biso   1.000  Br
  Br4      1.0000 0.14322  0.86119  0.95950  Biso   1.000  Br
  S5       1.0000 0.83950  0.81710  0.02029  Biso   1.000  S
  S6       1.0000 0.16050  0.18290  0.97971  Biso   1.000  S
  S7       1.0000 0.17480  0.93210  0.10242  Biso   1.000  S
  S8       1.0000 0.82520  0.06790  0.89758  Biso   1.000  S
  O9       1.0000 0.53160  0.58680  0.05930  Biso   1.000  O
  O10      1.0000 0.46840  0.41320  0.94070  Biso   1.000  O
  O11      1.0000 0.76470  0.57420  0.98530  Biso   1.000  O
  O12      1.0000 0.23530  0.42580  0.01470  Biso   1.000  O
  O13      1.0000 0.72150  0.79710  0.14400  Biso   1.000  O
  O14      1.0000 0.27850  0.20290  0.85600  Biso   1.000  O
  O15      1.0000 0.44690  0.88080  0.15220  Biso   1.000  O
  O16      1.0000 0.55310  0.11920  0.84780  Biso   1.000  O
  C45      1.0000 0.64610  0.47390  0.03960  Biso   1.000  C
  C46      1.0000 0.35390  0.52610  0.96040  Biso   1.000  C
  H57      1.0000 0.71430  0.45370  0.06300  Biso   1.000  H
  H58      1.0000 0.28570  0.54630  0.93700  Biso   1.000  H
  H59      1.0000 0.62380  0.39950  0.03990  Biso   1.000  H
  H60      1.0000 0.37620  0.60050  0.96010  Biso   1.000  H
  C47      1.0000 0.68890  0.50530  0.98510  Biso   1.000  C
  C48      1.0000 0.31110  0.49470  0.01490  Biso   1.000  C
  H61      1.0000 0.73900  0.42640  0.96520  Biso   1.000  H
  H62      1.0000 0.26100  0.57360  0.03480  Biso   1.000  H
  H63      1.0000 0.61380  0.55600  0.96620  Biso   1.000  H
  H64      1.0000 0.38620  0.44400  0.03380  Biso   1.000  H
  C49      1.0000 0.82950  0.59630  0.93680  Biso   1.000  C
  C50      1.0000 0.17050  0.40370  0.06320  Biso   1.000  C
  C51      1.0000 0.80520  0.57120  0.88630  Biso   1.000  C
  C52      1.0000 0.19480  0.42880  0.11370  Biso   1.000  C
  H65      1.0000 0.73990  0.54220  0.88400  Biso   1.000  H
  H66      1.0000 0.26010  0.45780  0.11600  Biso   1.000  H
  C53      1.0000 0.88000  0.59000  0.84040  Biso   1.000  C
  C54      1.0000 0.12000  0.41000  0.15960  Biso   1.000  C
  H67      1.0000 0.86720  0.57000  0.80650  Biso   1.000  H
  H68      1.0000 0.13280  0.43000  0.19350  Biso   1.000  H
  C55      1.0000 0.97000  0.63700  0.84130  Biso   1.000  C
  C56      1.0000 0.03000  0.36300  0.15870  Biso   1.000  C
  H69      1.0000 0.01720  0.65160  0.80870  Biso   1.000  H
  H70      1.0000 0.98280  0.34840  0.19130  Biso   1.000  H
  C57      1.0000 0.99370  0.66280  0.89220  Biso   1.000  C
  C58      1.0000 0.00630  0.33720  0.10780  Biso   1.000  C
  H71      1.0000 0.05880  0.69240  0.89420  Biso   1.000  H
  H72      1.0000 0.94120  0.30760  0.10580  Biso   1.000  H
  C59      1.0000 0.92060  0.64450  0.93900  Biso   1.000  C
  C60      1.0000 0.07940  0.35550  0.06100  Biso   1.000  C
  C61      1.0000 0.95380  0.66320  0.99330  Biso   1.000  C
  C62      1.0000 0.04620  0.33680  0.00670  Biso   1.000  C
  H73      1.0000 0.04170  0.66050  0.98880  Biso   1.000  H
  H74      1.0000 0.95830  0.33950  0.01120  Biso   1.000  H
  H75      1.0000 0.95060  0.59390  0.01920  Biso   1.000  H
  H76      1.0000 0.04940  0.40610  0.98080  Biso   1.000  H
  C63      1.0000 0.90270  0.79900  0.08380  Biso   1.000  C
  C64      1.0000 0.09730  0.20100  0.91620  Biso   1.000  C
  H77      1.0000 0.99710  0.75560  0.07770  Biso   1.000  H
  H78      1.0000 0.00290  0.24440  0.92230  Biso   1.000  H
  H79      1.0000 0.88080  0.88380  0.09780  Biso   1.000  H
  H80      1.0000 0.11920  0.11620  0.90220  Biso   1.000  H
  C65      1.0000 0.84910  0.72270  0.12570  Biso   1.000  C
  C66      1.0000 0.15090  0.27730  0.87430  Biso   1.000  C
  H81      1.0000 0.85460  0.64550  0.10920  Biso   1.000  H
  H82      1.0000 0.14540  0.35450  0.89080  Biso   1.000  H
  H83      1.0000 0.90000  0.69630  0.15650  Biso   1.000  H
  H84      1.0000 0.10000  0.30370  0.84350  Biso   1.000  H
  C67      1.0000 0.65000  0.72950  0.16900  Biso   1.000  C
  C68      1.0000 0.35000  0.27050  0.83100  Biso   1.000  C
  H85      1.0000 0.69690  0.67020  0.19700  Biso   1.000  H
  H86      1.0000 0.30310  0.32980  0.80300  Biso   1.000  H
  H87      1.0000 0.63910  0.67880  0.14170  Biso   1.000  H
  H88      1.0000 0.36090  0.32120  0.85830  Biso   1.000  H
  C69      1.0000 0.52600  0.81300  0.19350  Biso   1.000  C
  C70      1.0000 0.47400  0.18700  0.80650  Biso   1.000  C
  H89      1.0000 0.53590  0.87340  0.21620  Biso   1.000  H
  H90      1.0000 0.46410  0.12660  0.78380  Biso   1.000  H
  H91      1.0000 0.48520  0.76250  0.21720  Biso   1.000  H
  H92      1.0000 0.51480  0.23750  0.78280  Biso   1.000  H
  C71      1.0000 0.32500  0.96900  0.17310  Biso   1.000  C
  C72      1.0000 0.67500  0.03100  0.82690  Biso   1.000  C
  H93      1.0000 0.33380  0.03580  0.19230  Biso   1.000  H
  H94      1.0000 0.66620  0.96420  0.80770  Biso   1.000  H
  H95      1.0000 0.28020  0.92600  0.19910  Biso   1.000  H
  H96      1.0000 0.71980  0.07400  0.80090  Biso   1.000  H
  C73      1.0000 0.24740  0.02870  0.12650  Biso   1.000  C
  C74      1.0000 0.75260  0.97130  0.87350  Biso   1.000  C
  H97      1.0000 0.30400  0.04660  0.09590  Biso   1.000  H
  H98      1.0000 0.69600  0.95340  0.90410  Biso   1.000  H
  H99      1.0000 0.17870  0.11070  0.13790  Biso   1.000  H
  H100     1.0000 0.82130  0.88930  0.86210  Biso   1.000  H
  C75      1.0000 0.31240  0.78860  0.08070  Biso   1.000  C
  C76      1.0000 0.68760  0.21140  0.91930  Biso   1.000  C
  H101     1.0000 0.29180  0.75470  0.05010  Biso   1.000  H
  H102     1.0000 0.70820  0.24530  0.94990  Biso   1.000  H
  H103     1.0000 0.38540  0.81220  0.06680  Biso   1.000  H
  H104     1.0000 0.61460  0.18780  0.93320  Biso   1.000  H
  C77      1.0000 0.35400  0.68580  0.12260  Biso   1.000  C
  C78      1.0000 0.64600  0.31420  0.87740  Biso   1.000  C
  C79      1.0000 0.28660  0.68110  0.17240  Biso   1.000  C
  C80      1.0000 0.71340  0.31890  0.82760  Biso   1.000  C
  H105     1.0000 0.20580  0.74840  0.18130  Biso   1.000  H
  H106     1.0000 0.79420  0.25160  0.81870  Biso   1.000  H
  C81      1.0000 0.33100  0.58200  0.21070  Biso   1.000  C
  C82      1.0000 0.66900  0.41800  0.78930  Biso   1.000  C
  H107     1.0000 0.28420  0.58380  0.24560  Biso   1.000  H
  H108     1.0000 0.71580  0.41620  0.75440  Biso   1.000  H
  C83      1.0000 0.44400  0.48140  0.19660  Biso   1.000  C
  C84      1.0000 0.55600  0.51860  0.80340  Biso   1.000  C
  H109     1.0000 0.47350  0.41260  0.22180  Biso   1.000  H
  H110     1.0000 0.52650  0.58740  0.77820  Biso   1.000  H
  C85      1.0000 0.51600  0.47660  0.14670  Biso   1.000  C
  C86      1.0000 0.48400  0.52340  0.85330  Biso   1.000  C
  H111     1.0000 0.59480  0.40660  0.13760  Biso   1.000  H
  H112     1.0000 0.40520  0.59340  0.86240  Biso   1.000  H
  C87      1.0000 0.46870  0.58050  0.10980  Biso   1.000  C
  C88      1.0000 0.53130  0.41950  0.89020  Biso   1.000  C
  Cl1      1.0000 0.64260  0.47380  0.53320  Biso   1.000  Cl
  Cl2      1.0000 0.35740  0.52620  0.46680  Biso   1.000  Cl
  Cl3      1.0000 0.62100  0.54840  0.64380  Biso   1.000  Cl
  Cl4      1.0000 0.37900  0.45160  0.35620  Biso   1.000  Cl
  C89      1.0000 0.54800  0.58700  0.58390  Biso   1.000  C
  C90      1.0000 0.45200  0.41300  0.41610  Biso   1.000  C
  H113     1.0000 0.54070  0.67330  0.57050  Biso   1.000  H
  H114     1.0000 0.45930  0.32670  0.42950  Biso   1.000  H
  H115     1.0000 0.46130  0.58790  0.59140  Biso   1.000  H
  H116     1.0000 0.53870  0.41210  0.40860  Biso   1.000  H
  Cl5      1.0000 0.78160  0.20660  0.20680  Biso   1.000  Cl
  Cl6      1.0000 0.21840  0.79340  0.79320  Biso   1.000  Cl
  Cl7      1.0000 0.91760  0.93990  0.23080  Biso   1.000  Cl
  Cl8      1.0000 0.08240  0.06010  0.76920  Biso   1.000  Cl
  C91      1.0000 0.83900  0.05200  0.18430  Biso   1.000  C
  C92      1.0000 0.16100  0.94800  0.81570  Biso   1.000  C
  H117     1.0000 0.76600  0.03540  0.17590  Biso   1.000  H
  H118     1.0000 0.23400  0.96460  0.82410  Biso   1.000  H
  H119     1.0000 0.89780  0.04530  0.15040  Biso   1.000  H
  H120     1.0000 0.10220  0.95470  0.84960  Biso   1.000  H
  Cl9      1.0000 0.53560  0.84750  0.96960  Biso   1.000  Cl
  Cl10     1.0000 0.46440  0.15250  0.03040  Biso   1.000  Cl
  Cl11     1.0000 0.48320  0.84240  0.85950  Biso   1.000  Cl
  Cl12     1.0000 0.51680  0.15760  0.14050  Biso   1.000  Cl
  C93      1.0000 0.43200  0.92700  0.91860  Biso   1.000  C
  C94      1.0000 0.56800  0.07300  0.08140  Biso   1.000  C
  H121     1.0000 0.34390  0.93670  0.93240  Biso   1.000  H
  H122     1.0000 0.65610  0.06330  0.06760  Biso   1.000  H
  H123     1.0000 0.43220  0.01280  0.91070  Biso   1.000  H
  H124     1.0000 0.56780  0.98720  0.08930  Biso   1.000  H
  Cl13     1.0000 0.32960  0.19020  0.28320  Biso   1.000  Cl
  Cl14     1.0000 0.67040  0.80980  0.71680  Biso   1.000  Cl
  Cl15     1.0000 0.59800  0.03300  0.28270  Biso   1.000  Cl
  Cl16     1.0000 0.40200  0.96700  0.71730  Biso   1.000  Cl
  C95      1.0000 0.48900  0.13500  0.30760  Biso   1.000  C
  C96      1.0000 0.51100  0.86500  0.69240  Biso   1.000  C
  H125     1.0000 0.51170  0.20900  0.30570  Biso   1.000  H
  H126     1.0000 0.48830  0.79100  0.69430  Biso   1.000  H
  H127     1.0000 0.47690  0.11030  0.34640  Biso   1.000  H
  H128     1.0000 0.52310  0.88970  0.65360  Biso   1.000  H
