data_image0
_cell_length_a       15.788
_cell_length_b       10.04
_cell_length_c       11.544
_cell_angle_alpha    90
_cell_angle_beta     109.688
_cell_angle_gamma    90

_symmetry_space_group_name_H-M    "P 1"
_symmetry_int_tables_number       1

loop_
  _symmetry_equiv_pos_as_xyz
  'x, y, z'

loop_
  _atom_site_label
  _atom_site_occupancy
  _atom_site_fract_x
  _atom_site_fract_y
  _atom_site_fract_z
  _atom_site_thermal_displace_type
  _atom_site_B_iso_or_equiv
  _atom_site_type_symbol
  Cu1      1.0000 0.29395  0.19157  0.63402  Biso   1.000  Cu
  Cu2      1.0000 0.70605  0.69157  0.86598  Biso   1.000  Cu
  Cu3      1.0000 0.70605  0.80843  0.36598  Biso   1.000  Cu
  Cu4      1.0000 0.29395  0.30843  0.13402  Biso   1.000  Cu
  Cl1      1.0000 0.28265  0.09055  0.82128  Biso   1.000  Cl
  Cl2      1.0000 0.71735  0.59055  0.67872  Biso   1.000  Cl
  Cl3      1.0000 0.71735  0.90945  0.17872  Biso   1.000  Cl
  Cl4      1.0000 0.28265  0.40945  0.32128  Biso   1.000  Cl
  N1       1.0000 0.40762  0.28010  0.69801  Biso   1.000  N
  N2       1.0000 0.59238  0.78010  0.80199  Biso   1.000  N
  N3       1.0000 0.59238  0.71990  0.30199  Biso   1.000  N
  N4       1.0000 0.40762  0.21990  0.19801  Biso   1.000  N
  N5       1.0000 0.53558  0.34320  0.83635  Biso   1.000  N
  N6       1.0000 0.46442  0.84320  0.66365  Biso   1.000  N
  N7       1.0000 0.46442  0.65680  0.16365  Biso   1.000  N
  N8       1.0000 0.53558  0.15680  0.33635  Biso   1.000  N
  N9       1.0000 0.78418  0.41870  0.31108  Biso   1.000  N
  N10      1.0000 0.21582  0.91870  0.18892  Biso   1.000  N
  N11      1.0000 0.21582  0.58130  0.68892  Biso   1.000  N
  N12      1.0000 0.78418  0.08130  0.81108  Biso   1.000  N
  N13      1.0000 0.84696  0.33620  0.34921  Biso   1.000  N
  N14      1.0000 0.15304  0.83620  0.15079  Biso   1.000  N
  N15      1.0000 0.15304  0.66380  0.65079  Biso   1.000  N
  N16      1.0000 0.84696  0.16380  0.84921  Biso   1.000  N
  N17      1.0000 0.08432  0.41630  0.83113  Biso   1.000  N
  N18      1.0000 0.91568  0.91630  0.66887  Biso   1.000  N
  N19      1.0000 0.91568  0.58370  0.16887  Biso   1.000  N
  N20      1.0000 0.08432  0.08370  0.33113  Biso   1.000  N
  C1       1.0000 0.14844  0.49540  0.01630  Biso   1.000  C
  C2       1.0000 0.85156  0.99540  0.48370  Biso   1.000  C
  C3       1.0000 0.85156  0.50460  0.98370  Biso   1.000  C
  C4       1.0000 0.14844  0.00460  0.51630  Biso   1.000  C
  H1       1.0000 0.16250  0.54930  0.08570  Biso   1.000  H
  H2       1.0000 0.83750  0.04930  0.41430  Biso   1.000  H
  H3       1.0000 0.83750  0.45070  0.91430  Biso   1.000  H
  H4       1.0000 0.16250  0.95070  0.58570  Biso   1.000  H
  C5       1.0000 0.46183  0.26650  0.81240  Biso   1.000  C
  C6       1.0000 0.53817  0.76650  0.68760  Biso   1.000  C
  C7       1.0000 0.53817  0.73350  0.18760  Biso   1.000  C
  C8       1.0000 0.46183  0.23350  0.31240  Biso   1.000  C
  H5       1.0000 0.45050  0.21060  0.86980  Biso   1.000  H
  H6       1.0000 0.54950  0.71060  0.63020  Biso   1.000  H
  H7       1.0000 0.54950  0.78940  0.13020  Biso   1.000  H
  H8       1.0000 0.45050  0.28940  0.36980  Biso   1.000  H
  C9       1.0000 0.44924  0.37100  0.64510  Biso   1.000  C
  C10      1.0000 0.55076  0.87100  0.85490  Biso   1.000  C
  C11      1.0000 0.55076  0.62900  0.35490  Biso   1.000  C
  C12      1.0000 0.44924  0.12900  0.14510  Biso   1.000  C
  H9       1.0000 0.42670  0.40020  0.56400  Biso   1.000  H
  H10      1.0000 0.57330  0.90020  0.93600  Biso   1.000  H
  H11      1.0000 0.57330  0.59980  0.43600  Biso   1.000  H
  H12      1.0000 0.42670  0.09980  0.06400  Biso   1.000  H
  C13      1.0000 0.52791  0.41110  0.72930  Biso   1.000  C
  C14      1.0000 0.47209  0.91110  0.77070  Biso   1.000  C
  C15      1.0000 0.47209  0.58890  0.27070  Biso   1.000  C
  C16      1.0000 0.52791  0.08890  0.22930  Biso   1.000  C
  H13      1.0000 0.56860  0.47200  0.71740  Biso   1.000  H
  H14      1.0000 0.43140  0.97200  0.78260  Biso   1.000  H
  H15      1.0000 0.43140  0.52800  0.28260  Biso   1.000  H
  H16      1.0000 0.56860  0.02800  0.21740  Biso   1.000  H
  C17      1.0000 0.60231  0.36000  0.95580  Biso   1.000  C
  C18      1.0000 0.39769  0.86000  0.54420  Biso   1.000  C
  C19      1.0000 0.39769  0.64000  0.04420  Biso   1.000  C
  C20      1.0000 0.60231  0.14000  0.45580  Biso   1.000  C
  C21      1.0000 0.64969  0.25080  0.01760  Biso   1.000  C
  C22      1.0000 0.35031  0.75080  0.48240  Biso   1.000  C
  C23      1.0000 0.35031  0.74920  0.98240  Biso   1.000  C
  C24      1.0000 0.64969  0.24920  0.51760  Biso   1.000  C
  H17      1.0000 0.64050  0.16720  0.98060  Biso   1.000  H
  H18      1.0000 0.35950  0.66720  0.51940  Biso   1.000  H
  H19      1.0000 0.35950  0.83280  0.01940  Biso   1.000  H
  H20      1.0000 0.64050  0.33280  0.48060  Biso   1.000  H
  C25      1.0000 0.71108  0.26710  0.13540  Biso   1.000  C
  C26      1.0000 0.28892  0.76710  0.36460  Biso   1.000  C
  C27      1.0000 0.28892  0.73290  0.86460  Biso   1.000  C
  C28      1.0000 0.71108  0.23290  0.63540  Biso   1.000  C
  H21      1.0000 0.74350  0.19440  0.17780  Biso   1.000  H
  H22      1.0000 0.25650  0.69440  0.32220  Biso   1.000  H
  H23      1.0000 0.25650  0.80560  0.82220  Biso   1.000  H
  H24      1.0000 0.74350  0.30560  0.67780  Biso   1.000  H
  C29      1.0000 0.72383  0.39220  0.18970  Biso   1.000  C
  C30      1.0000 0.27617  0.89220  0.31030  Biso   1.000  C
  C31      1.0000 0.27617  0.60780  0.81030  Biso   1.000  C
  C32      1.0000 0.72383  0.10780  0.68970  Biso   1.000  C
  C33      1.0000 0.67567  0.50120  0.12760  Biso   1.000  C
  C34      1.0000 0.32433  0.00120  0.37240  Biso   1.000  C
  C35      1.0000 0.32433  0.49880  0.87240  Biso   1.000  C
  C36      1.0000 0.67567  0.99880  0.62760  Biso   1.000  C
  H25      1.0000 0.68420  0.58450  0.16510  Biso   1.000  H
  H26      1.0000 0.31580  0.08450  0.33490  Biso   1.000  H
  H27      1.0000 0.31580  0.41550  0.83490  Biso   1.000  H
  H28      1.0000 0.68420  0.91550  0.66510  Biso   1.000  H
  C37      1.0000 0.61454  0.48580  0.00920  Biso   1.000  C
  C38      1.0000 0.38546  0.98580  0.49080  Biso   1.000  C
  C39      1.0000 0.38546  0.51420  0.99080  Biso   1.000  C
  C40      1.0000 0.61454  0.01420  0.50920  Biso   1.000  C
  H29      1.0000 0.58240  0.55850  0.96640  Biso   1.000  H
  H30      1.0000 0.41760  0.05850  0.53360  Biso   1.000  H
  H31      1.0000 0.41760  0.44150  0.03360  Biso   1.000  H
  H32      1.0000 0.58240  0.94150  0.46640  Biso   1.000  H
  C41      1.0000 0.90423  0.36120  0.47260  Biso   1.000  C
  C42      1.0000 0.09577  0.86120  0.02740  Biso   1.000  C
  C43      1.0000 0.09577  0.63880  0.52740  Biso   1.000  C
  C44      1.0000 0.90423  0.13880  0.97260  Biso   1.000  C
  C45      1.0000 0.99100  0.31070  0.50540  Biso   1.000  C
  C46      1.0000 0.00900  0.81070  0.99460  Biso   1.000  C
  C47      1.0000 0.00900  0.68930  0.49460  Biso   1.000  C
  C48      1.0000 0.99100  0.18930  0.00540  Biso   1.000  C
  H33      1.0000 0.00840  0.26320  0.44800  Biso   1.000  H
  H34      1.0000 0.99160  0.76320  0.05200  Biso   1.000  H
  H35      1.0000 0.99160  0.73680  0.55200  Biso   1.000  H
  H36      1.0000 0.00840  0.23680  0.94800  Biso   1.000  H
  C49      1.0000 0.05225  0.33040  0.62320  Biso   1.000  C
  C50      1.0000 0.94775  0.83040  0.87680  Biso   1.000  C
  C51      1.0000 0.94775  0.66960  0.37680  Biso   1.000  C
  C52      1.0000 0.05225  0.16960  0.12320  Biso   1.000  C
  H37      1.0000 0.11100  0.29950  0.64430  Biso   1.000  H
  H38      1.0000 0.88900  0.79950  0.85570  Biso   1.000  H
  H39      1.0000 0.88900  0.70050  0.35570  Biso   1.000  H
  H40      1.0000 0.11100  0.20050  0.14430  Biso   1.000  H
  C53      1.0000 0.02347  0.39710  0.70820  Biso   1.000  C
  C54      1.0000 0.97653  0.89710  0.79180  Biso   1.000  C
  C55      1.0000 0.97653  0.60290  0.29180  Biso   1.000  C
  C56      1.0000 0.02347  0.10290  0.20820  Biso   1.000  C
  C57      1.0000 0.93566  0.44510  0.67750  Biso   1.000  C
  C58      1.0000 0.06434  0.94510  0.82250  Biso   1.000  C
  C59      1.0000 0.06434  0.55490  0.32250  Biso   1.000  C
  C60      1.0000 0.93566  0.05490  0.17750  Biso   1.000  C
  H41      1.0000 0.91730  0.48770  0.73650  Biso   1.000  H
  H42      1.0000 0.08270  0.98770  0.76350  Biso   1.000  H
  H43      1.0000 0.08270  0.51230  0.26350  Biso   1.000  H
  H44      1.0000 0.91730  0.01230  0.23650  Biso   1.000  H
  C61      1.0000 0.87631  0.42920  0.55950  Biso   1.000  C
  C62      1.0000 0.12369  0.92920  0.94050  Biso   1.000  C
  C63      1.0000 0.12369  0.57080  0.44050  Biso   1.000  C
  C64      1.0000 0.87631  0.07080  0.05950  Biso   1.000  C
  H45      1.0000 0.81830  0.46330  0.53770  Biso   1.000  H
  H46      1.0000 0.18170  0.96330  0.96230  Biso   1.000  H
  H47      1.0000 0.18170  0.53670  0.46230  Biso   1.000  H
  H48      1.0000 0.81830  0.03670  0.03770  Biso   1.000  H
  C65      1.0000 0.08394  0.52100  0.90790  Biso   1.000  C
  C66      1.0000 0.91606  0.02100  0.59210  Biso   1.000  C
  C67      1.0000 0.91606  0.47900  0.09210  Biso   1.000  C
  C68      1.0000 0.08394  0.97900  0.40790  Biso   1.000  C
  H49      1.0000 0.04640  0.59510  0.88850  Biso   1.000  H
  H50      1.0000 0.95360  0.09510  0.61150  Biso   1.000  H
  H51      1.0000 0.95360  0.40490  0.11150  Biso   1.000  H
  H52      1.0000 0.04640  0.90490  0.38850  Biso   1.000  H
  N21      1.0000 0.19054  0.37680  0.00862  Biso   1.000  N
  N22      1.0000 0.80946  0.87680  0.49138  Biso   1.000  N
  N23      1.0000 0.80946  0.62320  0.99138  Biso   1.000  N
  N24      1.0000 0.19054  0.12320  0.50862  Biso   1.000  N
  C69      1.0000 0.15036  0.33160  0.89560  Biso   1.000  C
  C70      1.0000 0.84964  0.83160  0.60440  Biso   1.000  C
  C71      1.0000 0.84964  0.66840  0.10440  Biso   1.000  C
  C72      1.0000 0.15036  0.16840  0.39560  Biso   1.000  C
  H53      1.0000 0.16530  0.25290  0.86470  Biso   1.000  H
  H54      1.0000 0.83470  0.75290  0.63530  Biso   1.000  H
  H55      1.0000 0.83470  0.74710  0.13530  Biso   1.000  H
  H56      1.0000 0.16530  0.24710  0.36470  Biso   1.000  H
