data_image0
_cell_length_a       8.253
_cell_length_b       8.374
_cell_length_c       12.733
_cell_angle_alpha    85.951
_cell_angle_beta     79.422
_cell_angle_gamma    77.99

_symmetry_space_group_name_H-M    "P 1"
_symmetry_int_tables_number       1

loop_
  _symmetry_equiv_pos_as_xyz
  'x, y, z'

loop_
  _atom_site_label
  _atom_site_occupancy
  _atom_site_fract_x
  _atom_site_fract_y
  _atom_site_fract_z
  _atom_site_thermal_displace_type
  _atom_site_B_iso_or_equiv
  _atom_site_type_symbol
  Cu1      1.0000 0.06447  0.35411  0.57080  Biso   1.000  Cu
  Cu2      1.0000 0.93553  0.64589  0.42920  Biso   1.000  Cu
  Cl1      1.0000 0.71338  0.40144  0.62298  Biso   1.000  Cl
  Cl2      1.0000 0.28662  0.59856  0.37702  Biso   1.000  Cl
  N1       1.0000 0.09280  0.46480  0.68960  Biso   1.000  N
  N2       1.0000 0.90720  0.53520  0.31040  Biso   1.000  N
  N3       1.0000 0.18670  0.57930  0.81160  Biso   1.000  N
  N4       1.0000 0.81330  0.42070  0.18840  Biso   1.000  N
  N5       1.0000 0.63680  0.80070  0.02670  Biso   1.000  N
  N6       1.0000 0.36320  0.19930  0.97330  Biso   1.000  N
  N7       1.0000 0.58300  0.82650  0.11940  Biso   1.000  N
  N8       1.0000 0.41700  0.17350  0.88060  Biso   1.000  N
  N9       1.0000 0.01290  0.06560  0.34140  Biso   1.000  N
  N10      1.0000 0.98710  0.93440  0.65860  Biso   1.000  N
  N11      1.0000 0.08220  0.21210  0.45700  Biso   1.000  N
  N12      1.0000 0.91780  0.78790  0.54300  Biso   1.000  N
  C1       1.0000 0.22930  0.49550  0.72010  Biso   1.000  C
  C2       1.0000 0.77070  0.50450  0.27990  Biso   1.000  C
  H1       1.0000 0.33870  0.46370  0.68360  Biso   1.000  H
  H2       1.0000 0.66130  0.53630  0.31640  Biso   1.000  H
  C3       1.0000 0.95790  0.53160  0.76600  Biso   1.000  C
  C4       1.0000 0.04210  0.46840  0.23400  Biso   1.000  C
  H3       1.0000 0.84600  0.52840  0.76560  Biso   1.000  H
  H4       1.0000 0.15400  0.47160  0.23440  Biso   1.000  H
  C5       1.0000 0.01340  0.60210  0.84110  Biso   1.000  C
  C6       1.0000 0.98660  0.39790  0.15890  Biso   1.000  C
  H5       1.0000 0.94830  0.65540  0.90080  Biso   1.000  H
  H6       1.0000 0.05170  0.34460  0.09920  Biso   1.000  H
  C7       1.0000 0.29760  0.63470  0.86890  Biso   1.000  C
  C8       1.0000 0.70240  0.36530  0.13110  Biso   1.000  C
  C9       1.0000 0.25810  0.63780  0.97990  Biso   1.000  C
  C10      1.0000 0.74190  0.36220  0.02010  Biso   1.000  C
  H7       1.0000 0.16220  0.60320  0.01620  Biso   1.000  H
  H8       1.0000 0.83780  0.39680  0.98380  Biso   1.000  H
  C11      1.0000 0.36410  0.69340  0.03600  Biso   1.000  C
  C12      1.0000 0.63590  0.30660  0.96400  Biso   1.000  C
  H9       1.0000 0.33950  0.69680  0.11020  Biso   1.000  H
  H10      1.0000 0.66050  0.30320  0.88980  Biso   1.000  H
  C13      1.0000 0.50840  0.74430  0.97970  Biso   1.000  C
  C14      1.0000 0.49160  0.25570  0.02030  Biso   1.000  C
  C15      1.0000 0.54560  0.73760  0.86970  Biso   1.000  C
  C16      1.0000 0.45440  0.26240  0.13030  Biso   1.000  C
  H11      1.0000 0.64300  0.76930  0.83330  Biso   1.000  H
  H12      1.0000 0.35700  0.23070  0.16670  Biso   1.000  H
  C17      1.0000 0.44120  0.68500  0.81300  Biso   1.000  C
  C18      1.0000 0.55880  0.31500  0.18700  Biso   1.000  C
  H13      1.0000 0.46580  0.68290  0.73880  Biso   1.000  H
  H14      1.0000 0.53420  0.31710  0.26120  Biso   1.000  H
  C19      1.0000 0.70890  0.88150  0.16930  Biso   1.000  C
  C20      1.0000 0.29110  0.11850  0.83070  Biso   1.000  C
  C21      1.0000 0.65290  0.91820  0.27440  Biso   1.000  C
  C22      1.0000 0.34710  0.08180  0.72560  Biso   1.000  C
  H15      1.0000 0.54700  0.90240  0.30770  Biso   1.000  H
  H16      1.0000 0.45300  0.09760  0.69230  Biso   1.000  H
  C23      1.0000 0.75350  0.97890  0.33180  Biso   1.000  C
  C24      1.0000 0.24650  0.02110  0.66820  Biso   1.000  C
  H17      1.0000 0.71500  0.00450  0.40310  Biso   1.000  H
  H18      1.0000 0.28500  0.99550  0.59690  Biso   1.000  H
  C25      1.0000 0.91210  0.00100  0.28170  Biso   1.000  C
  C26      1.0000 0.08790  0.99900  0.71830  Biso   1.000  C
  C27      1.0000 0.97180  0.96330  0.17650  Biso   1.000  C
  C28      1.0000 0.02820  0.03670  0.82350  Biso   1.000  C
  H19      1.0000 0.07850  0.97770  0.14400  Biso   1.000  H
  H20      1.0000 0.92150  0.02230  0.85600  Biso   1.000  H
  C29      1.0000 0.87010  0.90310  0.11940  Biso   1.000  C
  C30      1.0000 0.12990  0.09690  0.88060  Biso   1.000  C
  H21      1.0000 0.90890  0.87710  0.04820  Biso   1.000  H
  H22      1.0000 0.09110  0.12290  0.95180  Biso   1.000  H
  C31      1.0000 0.95610  0.17210  0.42120  Biso   1.000  C
  C32      1.0000 0.04390  0.82790  0.57880  Biso   1.000  C
  H23      1.0000 0.84300  0.21200  0.44750  Biso   1.000  H
  H24      1.0000 0.15700  0.78800  0.55250  Biso   1.000  H
  C33      1.0000 0.22800  0.12640  0.39770  Biso   1.000  C
  C34      1.0000 0.77200  0.87360  0.60230  Biso   1.000  C
  H25      1.0000 0.33670  0.13150  0.40530  Biso   1.000  H
  H26      1.0000 0.66330  0.86850  0.59470  Biso   1.000  H
  C35      1.0000 0.18800  0.03380  0.32680  Biso   1.000  C
  C36      1.0000 0.81200  0.96620  0.67320  Biso   1.000  C
  H27      1.0000 0.26230  0.96340  0.27840  Biso   1.000  H
  H28      1.0000 0.73770  0.03660  0.72160  Biso   1.000  H
  O1       1.0000 0.50390  0.71940  0.51810  Biso   1.000  O
  O2       1.0000 0.49610  0.28060  0.48190  Biso   1.000  O
  H29      1.0000 0.45300  0.66900  0.47900  Biso   1.000  H
  H30      1.0000 0.54700  0.33100  0.52100  Biso   1.000  H
  H31      1.0000 0.60000  0.64400  0.51100  Biso   1.000  H
  H32      1.0000 0.40000  0.35600  0.48900  Biso   1.000  H
