data_image0
_cell_length_a       10.047
_cell_length_b       15.797
_cell_length_c       10.581
_cell_angle_alpha    90
_cell_angle_beta     90.78
_cell_angle_gamma    90

_symmetry_space_group_name_H-M    "P 1"
_symmetry_int_tables_number       1

loop_
  _symmetry_equiv_pos_as_xyz
  'x, y, z'

loop_
  _atom_site_label
  _atom_site_occupancy
  _atom_site_fract_x
  _atom_site_fract_y
  _atom_site_fract_z
  _atom_site_thermal_displace_type
  _atom_site_B_iso_or_equiv
  _atom_site_type_symbol
  S1       1.0000 0.07886  0.20887  0.53184  Biso   1.000  S
  S2       1.0000 0.92114  0.70887  0.46816  Biso   1.000  S
  S3       1.0000 0.02250  0.45550  0.41827  Biso   1.000  S
  S4       1.0000 0.97750  0.95550  0.58173  Biso   1.000  S
  N1       1.0000 0.14400  0.63240  0.22220  Biso   1.000  N
  N2       1.0000 0.85600  0.13240  0.77780  Biso   1.000  N
  N3       1.0000 0.25630  0.61900  0.45170  Biso   1.000  N
  N4       1.0000 0.74370  0.11900  0.54830  Biso   1.000  N
  N5       1.0000 0.24360  0.38970  0.68950  Biso   1.000  N
  N6       1.0000 0.75640  0.88970  0.31050  Biso   1.000  N
  N7       1.0000 0.98570  0.36690  0.74430  Biso   1.000  N
  N8       1.0000 0.01430  0.86690  0.25570  Biso   1.000  N
  C1       1.0000 0.14950  0.18320  0.38410  Biso   1.000  C
  C2       1.0000 0.85050  0.68320  0.61590  Biso   1.000  C
  C3       1.0000 0.20080  0.24520  0.30650  Biso   1.000  C
  C4       1.0000 0.79920  0.74520  0.69350  Biso   1.000  C
  C5       1.0000 0.26670  0.22290  0.19680  Biso   1.000  C
  C6       1.0000 0.73330  0.72290  0.80320  Biso   1.000  C
  C7       1.0000 0.27960  0.14050  0.16100  Biso   1.000  C
  C8       1.0000 0.72040  0.64050  0.83900  Biso   1.000  C
  C9       1.0000 0.22430  0.07880  0.23520  Biso   1.000  C
  C10      1.0000 0.77570  0.57880  0.76480  Biso   1.000  C
  C11      1.0000 0.15940  0.09890  0.34570  Biso   1.000  C
  C12      1.0000 0.84060  0.59890  0.65430  Biso   1.000  C
  C13      1.0000 0.86580  0.42720  0.35230  Biso   1.000  C
  C14      1.0000 0.13420  0.92720  0.64770  Biso   1.000  C
  C15      1.0000 0.77030  0.48720  0.31980  Biso   1.000  C
  C16      1.0000 0.22970  0.98720  0.68020  Biso   1.000  C
  C17      1.0000 0.65040  0.46450  0.26610  Biso   1.000  C
  C18      1.0000 0.34960  0.96450  0.73390  Biso   1.000  C
  C19      1.0000 0.62010  0.38130  0.24220  Biso   1.000  C
  C20      1.0000 0.37990  0.88130  0.75780  Biso   1.000  C
  C21      1.0000 0.71370  0.32020  0.27510  Biso   1.000  C
  C22      1.0000 0.28630  0.82020  0.72490  Biso   1.000  C
  C23      1.0000 0.83480  0.34210  0.32960  Biso   1.000  C
  C24      1.0000 0.16520  0.84210  0.67040  Biso   1.000  C
  C25      1.0000 0.08550  0.64200  0.10890  Biso   1.000  C
  C26      1.0000 0.91450  0.14200  0.89110  Biso   1.000  C
  C27      1.0000 0.16130  0.65990  0.00190  Biso   1.000  C
  C28      1.0000 0.83870  0.15990  0.99810  Biso   1.000  C
  C29      1.0000 0.29270  0.67030  0.01040  Biso   1.000  C
  C30      1.0000 0.70730  0.17030  0.98960  Biso   1.000  C
  C31      1.0000 0.35830  0.66500  0.12820  Biso   1.000  C
  C32      1.0000 0.64170  0.16500  0.87180  Biso   1.000  C
  C33      1.0000 0.49610  0.68400  0.15020  Biso   1.000  C
  C34      1.0000 0.50390  0.18400  0.84980  Biso   1.000  C
  C35      1.0000 0.55170  0.68100  0.26710  Biso   1.000  C
  C36      1.0000 0.44830  0.18100  0.73290  Biso   1.000  C
  C37      1.0000 0.47400  0.65650  0.37400  Biso   1.000  C
  C38      1.0000 0.52600  0.15650  0.62600  Biso   1.000  C
  C39      1.0000 0.52380  0.65110  0.49650  Biso   1.000  C
  C40      1.0000 0.47620  0.15110  0.50350  Biso   1.000  C
  C41      1.0000 0.44250  0.63170  0.59170  Biso   1.000  C
  C42      1.0000 0.55750  0.13170  0.40830  Biso   1.000  C
  C43      1.0000 0.30730  0.61600  0.56830  Biso   1.000  C
  C44      1.0000 0.69270  0.11600  0.43170  Biso   1.000  C
  C45      1.0000 0.33680  0.63840  0.35520  Biso   1.000  C
  C46      1.0000 0.66320  0.13840  0.64480  Biso   1.000  C
  C47      1.0000 0.27780  0.64400  0.23120  Biso   1.000  C
  C48      1.0000 0.72220  0.14400  0.76880  Biso   1.000  C
  C49      1.0000 0.93950  0.63380  0.10250  Biso   1.000  C
  C50      1.0000 0.06050  0.13380  0.89750  Biso   1.000  C
  C51      1.0000 0.21100  0.59750  0.66970  Biso   1.000  C
  C52      1.0000 0.78900  0.09750  0.33030  Biso   1.000  C
  C53      1.0000 0.36990  0.40680  0.65920  Biso   1.000  C
  C54      1.0000 0.63010  0.90680  0.34080  Biso   1.000  C
  C55      1.0000 0.46300  0.43550  0.75140  Biso   1.000  C
  C56      1.0000 0.53700  0.93550  0.24860  Biso   1.000  C
  C57      1.0000 0.42700  0.44400  0.87320  Biso   1.000  C
  C58      1.0000 0.57300  0.94400  0.12680  Biso   1.000  C
  C59      1.0000 0.29660  0.42620  0.90940  Biso   1.000  C
  C60      1.0000 0.70340  0.92620  0.09060  Biso   1.000  C
  C61      1.0000 0.24820  0.43580  0.03510  Biso   1.000  C
  C62      1.0000 0.75180  0.93580  0.96490  Biso   1.000  C
  C63      1.0000 0.12030  0.42170  0.06300  Biso   1.000  C
  C64      1.0000 0.87970  0.92170  0.93700  Biso   1.000  C
  C65      1.0000 0.02590  0.39840  0.96600  Biso   1.000  C
  C66      1.0000 0.97410  0.89840  0.03400  Biso   1.000  C
  C67      1.0000 0.89020  0.38610  0.98790  Biso   1.000  C
  C68      1.0000 0.10980  0.88610  0.01210  Biso   1.000  C
  C69      1.0000 0.80610  0.36460  0.88960  Biso   1.000  C
  C70      1.0000 0.19390  0.86460  0.11040  Biso   1.000  C
  C71      1.0000 0.85720  0.35630  0.76740  Biso   1.000  C
  C72      1.0000 0.14280  0.85630  0.23260  Biso   1.000  C
  C73      1.0000 0.06950  0.38700  0.84240  Biso   1.000  C
  C74      1.0000 0.93050  0.88700  0.15760  Biso   1.000  C
  C75      1.0000 0.20710  0.40040  0.81290  Biso   1.000  C
  C76      1.0000 0.79290  0.90040  0.18710  Biso   1.000  C
  C77      1.0000 0.40710  0.39670  0.52480  Biso   1.000  C
  C78      1.0000 0.59290  0.89670  0.47520  Biso   1.000  C
  C79      1.0000 0.77100  0.33830  0.65580  Biso   1.000  C
  C80      1.0000 0.22900  0.83830  0.34420  Biso   1.000  C
  Cu1      1.0000 0.05570  0.60050  0.39987  Biso   1.000  Cu
  Cu2      1.0000 0.94430  0.10050  0.60013  Biso   1.000  Cu
  Cu3      1.0000 0.08018  0.35420  0.56804  Biso   1.000  Cu
  Cu4      1.0000 0.91982  0.85420  0.43196  Biso   1.000  Cu
