data_image0
_cell_length_a       13.716
_cell_length_b       12.69
_cell_length_c       8.0424
_cell_angle_alpha    90
_cell_angle_beta     125.674
_cell_angle_gamma    90

_symmetry_space_group_name_H-M    "P 1"
_symmetry_int_tables_number       1

loop_
  _symmetry_equiv_pos_as_xyz
  'x, y, z'

loop_
  _atom_site_label
  _atom_site_occupancy
  _atom_site_fract_x
  _atom_site_fract_y
  _atom_site_fract_z
  _atom_site_thermal_displace_type
  _atom_site_B_iso_or_equiv
  _atom_site_type_symbol
  I1       1.0000 0.52180  0.50000  0.28591  Biso   1.000  I
  I2       1.0000 0.47820  0.50000  0.71409  Biso   1.000  I
  I3       1.0000 0.02180  0.00000  0.28591  Biso   1.000  I
  I4       1.0000 0.97820  0.00000  0.71409  Biso   1.000  I
  Cu1      1.0000 0.50000  0.31118  0.50000  Biso   1.000  Cu
  Cu2      1.0000 0.00000  0.81118  0.50000  Biso   1.000  Cu
  Cu3      1.0000 0.50000  0.68882  0.50000  Biso   1.000  Cu
  Cu4      1.0000 0.00000  0.18882  0.50000  Biso   1.000  Cu
  Cu5      1.0000 0.50000  0.36810  0.00000  Biso   1.000  Cu
  Cu6      1.0000 0.00000  0.86810  0.00000  Biso   1.000  Cu
  Cu7      1.0000 0.50000  0.63190  0.00000  Biso   1.000  Cu
  Cu8      1.0000 0.00000  0.13190  0.00000  Biso   1.000  Cu
  Cu9      1.0000 0.29558  0.50000  0.20090  Biso   1.000  Cu
  Cu10     1.0000 0.70442  0.50000  0.79910  Biso   1.000  Cu
  Cu11     1.0000 0.79558  0.00000  0.20090  Biso   1.000  Cu
  Cu12     1.0000 0.20442  0.00000  0.79910  Biso   1.000  Cu
  N1       1.0000 0.66700  0.28200  0.68160  Biso   1.000  N
  N2       1.0000 0.33300  0.28200  0.31840  Biso   1.000  N
  N3       1.0000 0.16700  0.78200  0.68160  Biso   1.000  N
  N4       1.0000 0.83300  0.78200  0.31840  Biso   1.000  N
  N5       1.0000 0.33300  0.71800  0.31840  Biso   1.000  N
  N6       1.0000 0.66700  0.71800  0.68160  Biso   1.000  N
  N7       1.0000 0.83300  0.21800  0.31840  Biso   1.000  N
  N8       1.0000 0.16700  0.21800  0.68160  Biso   1.000  N
  N9       1.0000 0.74700  0.35420  0.81620  Biso   1.000  N
  N10      1.0000 0.25300  0.35420  0.18380  Biso   1.000  N
  N11      1.0000 0.24700  0.85420  0.81620  Biso   1.000  N
  N12      1.0000 0.75300  0.85420  0.18380  Biso   1.000  N
  N13      1.0000 0.25300  0.64580  0.18380  Biso   1.000  N
  N14      1.0000 0.74700  0.64580  0.81620  Biso   1.000  N
  N15      1.0000 0.75300  0.14580  0.18380  Biso   1.000  N
  N16      1.0000 0.24700  0.14580  0.81620  Biso   1.000  N
  N17      1.0000 0.85350  0.31260  0.93160  Biso   1.000  N
  N18      1.0000 0.14650  0.31260  0.06840  Biso   1.000  N
  N19      1.0000 0.35350  0.81260  0.93160  Biso   1.000  N
  N20      1.0000 0.64650  0.81260  0.06840  Biso   1.000  N
  N21      1.0000 0.14650  0.68740  0.06840  Biso   1.000  N
  N22      1.0000 0.85350  0.68740  0.93160  Biso   1.000  N
  N23      1.0000 0.64650  0.18740  0.06840  Biso   1.000  N
  N24      1.0000 0.35350  0.18740  0.93160  Biso   1.000  N
  N25      1.0000 0.84590  0.21210  0.87340  Biso   1.000  N
  N26      1.0000 0.15410  0.21210  0.12660  Biso   1.000  N
  N27      1.0000 0.34590  0.71210  0.87340  Biso   1.000  N
  N28      1.0000 0.65410  0.71210  0.12660  Biso   1.000  N
  N29      1.0000 0.15410  0.78790  0.12660  Biso   1.000  N
  N30      1.0000 0.84590  0.78790  0.87340  Biso   1.000  N
  N31      1.0000 0.65410  0.28790  0.12660  Biso   1.000  N
  N32      1.0000 0.34590  0.28790  0.87340  Biso   1.000  N
  C1       1.0000 0.73080  0.19490  0.71970  Biso   1.000  C
  C2       1.0000 0.26920  0.19490  0.28030  Biso   1.000  C
  C3       1.0000 0.23080  0.69490  0.71970  Biso   1.000  C
  C4       1.0000 0.76920  0.69490  0.28030  Biso   1.000  C
  C5       1.0000 0.26920  0.80510  0.28030  Biso   1.000  C
  C6       1.0000 0.73080  0.80510  0.71970  Biso   1.000  C
  C7       1.0000 0.76920  0.30510  0.28030  Biso   1.000  C
  C8       1.0000 0.23080  0.30510  0.71970  Biso   1.000  C
  C9       1.0000 0.68070  0.09510  0.60850  Biso   1.000  C
  C10      1.0000 0.31930  0.09510  0.39150  Biso   1.000  C
  C11      1.0000 0.18070  0.59510  0.60850  Biso   1.000  C
  C12      1.0000 0.81930  0.59510  0.39150  Biso   1.000  C
  C13      1.0000 0.31930  0.90490  0.39150  Biso   1.000  C
  C14      1.0000 0.68070  0.90490  0.60850  Biso   1.000  C
  C15      1.0000 0.81930  0.40490  0.39150  Biso   1.000  C
  C16      1.0000 0.18070  0.40490  0.60850  Biso   1.000  C
  C17      1.0000 0.72570  0.00000  0.71240  Biso   1.000  C
  C18      1.0000 0.27430  0.00000  0.28760  Biso   1.000  C
  C19      1.0000 0.22570  0.50000  0.71240  Biso   1.000  C
  C20      1.0000 0.77430  0.50000  0.28760  Biso   1.000  C
  H1       1.0000 0.78630  0.00000  0.85220  Biso   1.000  H
  H2       1.0000 0.21370  0.00000  0.14780  Biso   1.000  H
  H3       1.0000 0.28630  0.50000  0.85220  Biso   1.000  H
  H4       1.0000 0.71370  0.50000  0.14780  Biso   1.000  H
  C21      1.0000 0.59010  0.09460  0.39890  Biso   1.000  C
  C22      1.0000 0.40990  0.09460  0.60110  Biso   1.000  C
  C23      1.0000 0.09010  0.59460  0.39890  Biso   1.000  C
  C24      1.0000 0.90990  0.59460  0.60110  Biso   1.000  C
  C25      1.0000 0.40990  0.90540  0.60110  Biso   1.000  C
  C26      1.0000 0.59010  0.90540  0.39890  Biso   1.000  C
  C27      1.0000 0.90990  0.40540  0.60110  Biso   1.000  C
  C28      1.0000 0.09010  0.40540  0.39890  Biso   1.000  C
  H5       1.0000 0.55960  0.15790  0.32830  Biso   1.000  H
  H6       1.0000 0.44040  0.15790  0.67170  Biso   1.000  H
  H7       1.0000 0.05960  0.65790  0.32830  Biso   1.000  H
  H8       1.0000 0.94040  0.65790  0.67170  Biso   1.000  H
  H9       1.0000 0.44040  0.84210  0.67170  Biso   1.000  H
  H10      1.0000 0.55960  0.84210  0.32830  Biso   1.000  H
  H11      1.0000 0.94040  0.34210  0.67170  Biso   1.000  H
  H12      1.0000 0.05960  0.34210  0.32830  Biso   1.000  H
  C29      1.0000 0.54560  0.00000  0.29580  Biso   1.000  C
  C30      1.0000 0.45440  0.00000  0.70420  Biso   1.000  C
  C31      1.0000 0.04560  0.50000  0.29580  Biso   1.000  C
  C32      1.0000 0.95440  0.50000  0.70420  Biso   1.000  C
  H13      1.0000 0.48520  0.00000  0.15590  Biso   1.000  H
  H14      1.0000 0.51480  0.00000  0.84410  Biso   1.000  H
  H15      1.0000 0.98520  0.50000  0.15590  Biso   1.000  H
  H16      1.0000 0.01480  0.50000  0.84410  Biso   1.000  H
