data_image0
_cell_length_a       13.696
_cell_length_b       12.695
_cell_length_c       8.0211
_cell_angle_alpha    90
_cell_angle_beta     125.512
_cell_angle_gamma    90

_symmetry_space_group_name_H-M    "P 1"
_symmetry_int_tables_number       1

loop_
  _symmetry_equiv_pos_as_xyz
  'x, y, z'

loop_
  _atom_site_label
  _atom_site_occupancy
  _atom_site_fract_x
  _atom_site_fract_y
  _atom_site_fract_z
  _atom_site_thermal_displace_type
  _atom_site_B_iso_or_equiv
  _atom_site_type_symbol
  I1       1.0000 0.52148  0.50000  0.28563  Biso   1.000  I
  I2       1.0000 0.47852  0.50000  0.71437  Biso   1.000  I
  I3       1.0000 0.02148  0.00000  0.28563  Biso   1.000  I
  I4       1.0000 0.97852  0.00000  0.71437  Biso   1.000  I
  Cu1      1.0000 0.50000  0.31100  0.50000  Biso   1.000  Cu
  Cu2      1.0000 0.00000  0.81100  0.50000  Biso   1.000  Cu
  Cu3      1.0000 0.50000  0.68900  0.50000  Biso   1.000  Cu
  Cu4      1.0000 0.00000  0.18900  0.50000  Biso   1.000  Cu
  Cu5      1.0000 0.50000  0.36858  0.00000  Biso   1.000  Cu
  Cu6      1.0000 0.00000  0.86858  0.00000  Biso   1.000  Cu
  Cu7      1.0000 0.50000  0.63142  0.00000  Biso   1.000  Cu
  Cu8      1.0000 0.00000  0.13142  0.00000  Biso   1.000  Cu
  Cu9      1.0000 0.29530  0.50000  0.19945  Biso   1.000  Cu
  Cu10     1.0000 0.70470  0.50000  0.80055  Biso   1.000  Cu
  Cu11     1.0000 0.79530  0.00000  0.19945  Biso   1.000  Cu
  Cu12     1.0000 0.20470  0.00000  0.80055  Biso   1.000  Cu
  N1       1.0000 0.66730  0.28230  0.68130  Biso   1.000  N
  N2       1.0000 0.33270  0.28230  0.31870  Biso   1.000  N
  N3       1.0000 0.16730  0.78230  0.68130  Biso   1.000  N
  N4       1.0000 0.83270  0.78230  0.31870  Biso   1.000  N
  N5       1.0000 0.33270  0.71770  0.31870  Biso   1.000  N
  N6       1.0000 0.66730  0.71770  0.68130  Biso   1.000  N
  N7       1.0000 0.83270  0.21770  0.31870  Biso   1.000  N
  N8       1.0000 0.16730  0.21770  0.68130  Biso   1.000  N
  N9       1.0000 0.74710  0.35430  0.81690  Biso   1.000  N
  N10      1.0000 0.25290  0.35430  0.18310  Biso   1.000  N
  N11      1.0000 0.24710  0.85430  0.81690  Biso   1.000  N
  N12      1.0000 0.75290  0.85430  0.18310  Biso   1.000  N
  N13      1.0000 0.25290  0.64570  0.18310  Biso   1.000  N
  N14      1.0000 0.74710  0.64570  0.81690  Biso   1.000  N
  N15      1.0000 0.75290  0.14570  0.18310  Biso   1.000  N
  N16      1.0000 0.24710  0.14570  0.81690  Biso   1.000  N
  N17      1.0000 0.85360  0.31300  0.93180  Biso   1.000  N
  N18      1.0000 0.14640  0.31300  0.06820  Biso   1.000  N
  N19      1.0000 0.35360  0.81300  0.93180  Biso   1.000  N
  N20      1.0000 0.64640  0.81300  0.06820  Biso   1.000  N
  N21      1.0000 0.14640  0.68700  0.06820  Biso   1.000  N
  N22      1.0000 0.85360  0.68700  0.93180  Biso   1.000  N
  N23      1.0000 0.64640  0.18700  0.06820  Biso   1.000  N
  N24      1.0000 0.35360  0.18700  0.93180  Biso   1.000  N
  N25      1.0000 0.84630  0.21160  0.87400  Biso   1.000  N
  N26      1.0000 0.15370  0.21160  0.12600  Biso   1.000  N
  N27      1.0000 0.34630  0.71160  0.87400  Biso   1.000  N
  N28      1.0000 0.65370  0.71160  0.12600  Biso   1.000  N
  N29      1.0000 0.15370  0.78840  0.12600  Biso   1.000  N
  N30      1.0000 0.84630  0.78840  0.87400  Biso   1.000  N
  N31      1.0000 0.65370  0.28840  0.12600  Biso   1.000  N
  N32      1.0000 0.34630  0.28840  0.87400  Biso   1.000  N
  C1       1.0000 0.73030  0.19480  0.71890  Biso   1.000  C
  C2       1.0000 0.26970  0.19480  0.28110  Biso   1.000  C
  C3       1.0000 0.23030  0.69480  0.71890  Biso   1.000  C
  C4       1.0000 0.76970  0.69480  0.28110  Biso   1.000  C
  C5       1.0000 0.26970  0.80520  0.28110  Biso   1.000  C
  C6       1.0000 0.73030  0.80520  0.71890  Biso   1.000  C
  C7       1.0000 0.76970  0.30520  0.28110  Biso   1.000  C
  C8       1.0000 0.23030  0.30520  0.71890  Biso   1.000  C
  C9       1.0000 0.68100  0.09510  0.60840  Biso   1.000  C
  C10      1.0000 0.31900  0.09510  0.39160  Biso   1.000  C
  C11      1.0000 0.18100  0.59510  0.60840  Biso   1.000  C
  C12      1.0000 0.81900  0.59510  0.39160  Biso   1.000  C
  C13      1.0000 0.31900  0.90490  0.39160  Biso   1.000  C
  C14      1.0000 0.68100  0.90490  0.60840  Biso   1.000  C
  C15      1.0000 0.81900  0.40490  0.39160  Biso   1.000  C
  C16      1.0000 0.18100  0.40490  0.60840  Biso   1.000  C
  C17      1.0000 0.72570  0.00000  0.71200  Biso   1.000  C
  C18      1.0000 0.27430  0.00000  0.28800  Biso   1.000  C
  C19      1.0000 0.22570  0.50000  0.71200  Biso   1.000  C
  C20      1.0000 0.77430  0.50000  0.28800  Biso   1.000  C
  H1       1.0000 0.78610  0.00000  0.85190  Biso   1.000  H
  H2       1.0000 0.21390  0.00000  0.14810  Biso   1.000  H
  H3       1.0000 0.28610  0.50000  0.85190  Biso   1.000  H
  H4       1.0000 0.71390  0.50000  0.14810  Biso   1.000  H
  C21      1.0000 0.58920  0.09480  0.39710  Biso   1.000  C
  C22      1.0000 0.41080  0.09480  0.60290  Biso   1.000  C
  C23      1.0000 0.08920  0.59480  0.39710  Biso   1.000  C
  C24      1.0000 0.91080  0.59480  0.60290  Biso   1.000  C
  C25      1.0000 0.41080  0.90520  0.60290  Biso   1.000  C
  C26      1.0000 0.58920  0.90520  0.39710  Biso   1.000  C
  C27      1.0000 0.91080  0.40520  0.60290  Biso   1.000  C
  C28      1.0000 0.08920  0.40520  0.39710  Biso   1.000  C
  H5       1.0000 0.55880  0.15800  0.32660  Biso   1.000  H
  H6       1.0000 0.44120  0.15800  0.67340  Biso   1.000  H
  H7       1.0000 0.05880  0.65800  0.32660  Biso   1.000  H
  H8       1.0000 0.94120  0.65800  0.67340  Biso   1.000  H
  H9       1.0000 0.44120  0.84200  0.67340  Biso   1.000  H
  H10      1.0000 0.55880  0.84200  0.32660  Biso   1.000  H
  H11      1.0000 0.94120  0.34200  0.67340  Biso   1.000  H
  H12      1.0000 0.05880  0.34200  0.32660  Biso   1.000  H
  C29      1.0000 0.54430  0.00000  0.29440  Biso   1.000  C
  C30      1.0000 0.45570  0.00000  0.70560  Biso   1.000  C
  C31      1.0000 0.04430  0.50000  0.29440  Biso   1.000  C
  C32      1.0000 0.95570  0.50000  0.70560  Biso   1.000  C
  H13      1.0000 0.48330  0.00000  0.15480  Biso   1.000  H
  H14      1.0000 0.51670  0.00000  0.84520  Biso   1.000  H
  H15      1.0000 0.98330  0.50000  0.15480  Biso   1.000  H
  H16      1.0000 0.01670  0.50000  0.84520  Biso   1.000  H
