data_image0
_cell_length_a       13.79
_cell_length_b       12.7
_cell_length_c       8.1008
_cell_angle_alpha    90
_cell_angle_beta     125.962
_cell_angle_gamma    90

_symmetry_space_group_name_H-M    "P 1"
_symmetry_int_tables_number       1

loop_
  _symmetry_equiv_pos_as_xyz
  'x, y, z'

loop_
  _atom_site_label
  _atom_site_occupancy
  _atom_site_fract_x
  _atom_site_fract_y
  _atom_site_fract_z
  _atom_site_thermal_displace_type
  _atom_site_B_iso_or_equiv
  _atom_site_type_symbol
  I1       1.0000 0.47762  0.00000  0.24176  Biso   1.000  I
  I2       1.0000 0.52238  0.00000  0.75824  Biso   1.000  I
  I3       1.0000 0.97762  0.50000  0.24176  Biso   1.000  I
  I4       1.0000 0.02238  0.50000  0.75824  Biso   1.000  I
  Cu1      1.0000 0.50000  0.18854  0.50000  Biso   1.000  Cu
  Cu2      1.0000 0.00000  0.68854  0.50000  Biso   1.000  Cu
  Cu3      1.0000 0.50000  0.81146  0.50000  Biso   1.000  Cu
  Cu4      1.0000 0.00000  0.31146  0.50000  Biso   1.000  Cu
  Cu5      1.0000 0.50000  0.13266  0.00000  Biso   1.000  Cu
  Cu6      1.0000 0.00000  0.63266  0.00000  Biso   1.000  Cu
  Cu7      1.0000 0.50000  0.86734  0.00000  Biso   1.000  Cu
  Cu8      1.0000 0.00000  0.36734  0.00000  Biso   1.000  Cu
  Cu9      1.0000 0.70370  0.00000  0.61065  Biso   1.000  Cu
  Cu10     1.0000 0.29630  0.00000  0.38935  Biso   1.000  Cu
  Cu11     1.0000 0.20370  0.50000  0.61065  Biso   1.000  Cu
  Cu12     1.0000 0.79630  0.50000  0.38935  Biso   1.000  Cu
  N1       1.0000 0.33290  0.21800  0.34700  Biso   1.000  N
  N2       1.0000 0.66710  0.21800  0.65300  Biso   1.000  N
  N3       1.0000 0.83290  0.71800  0.34700  Biso   1.000  N
  N4       1.0000 0.16710  0.71800  0.65300  Biso   1.000  N
  N5       1.0000 0.66710  0.78200  0.65300  Biso   1.000  N
  N6       1.0000 0.33290  0.78200  0.34700  Biso   1.000  N
  N7       1.0000 0.16710  0.28200  0.65300  Biso   1.000  N
  N8       1.0000 0.83290  0.28200  0.34700  Biso   1.000  N
  N9       1.0000 0.25350  0.14540  0.32210  Biso   1.000  N
  N10      1.0000 0.74650  0.14540  0.67790  Biso   1.000  N
  N11      1.0000 0.75350  0.64540  0.32210  Biso   1.000  N
  N12      1.0000 0.24650  0.64540  0.67790  Biso   1.000  N
  N13      1.0000 0.74650  0.85460  0.67790  Biso   1.000  N
  N14      1.0000 0.25350  0.85460  0.32210  Biso   1.000  N
  N15      1.0000 0.24650  0.35460  0.67790  Biso   1.000  N
  N16      1.0000 0.75350  0.35460  0.32210  Biso   1.000  N
  N17      1.0000 0.14680  0.18680  0.22440  Biso   1.000  N
  N18      1.0000 0.85320  0.18680  0.77560  Biso   1.000  N
  N19      1.0000 0.64680  0.68680  0.22440  Biso   1.000  N
  N20      1.0000 0.35320  0.68680  0.77560  Biso   1.000  N
  N21      1.0000 0.85320  0.81320  0.77560  Biso   1.000  N
  N22      1.0000 0.14680  0.81320  0.22440  Biso   1.000  N
  N23      1.0000 0.35320  0.31320  0.77560  Biso   1.000  N
  N24      1.0000 0.64680  0.31320  0.22440  Biso   1.000  N
  N25      1.0000 0.15440  0.28770  0.18200  Biso   1.000  N
  N26      1.0000 0.84560  0.28770  0.81800  Biso   1.000  N
  N27      1.0000 0.65440  0.78770  0.18200  Biso   1.000  N
  N28      1.0000 0.34560  0.78770  0.81800  Biso   1.000  N
  N29      1.0000 0.84560  0.71230  0.81800  Biso   1.000  N
  N30      1.0000 0.15440  0.71230  0.18200  Biso   1.000  N
  N31      1.0000 0.34560  0.21230  0.81800  Biso   1.000  N
  N32      1.0000 0.65440  0.21230  0.18200  Biso   1.000  N
  C1       1.0000 0.26910  0.30520  0.25840  Biso   1.000  C
  C2       1.0000 0.73090  0.30520  0.74160  Biso   1.000  C
  C3       1.0000 0.76910  0.80520  0.25840  Biso   1.000  C
  C4       1.0000 0.23090  0.80520  0.74160  Biso   1.000  C
  C5       1.0000 0.73090  0.69480  0.74160  Biso   1.000  C
  C6       1.0000 0.26910  0.69480  0.25840  Biso   1.000  C
  C7       1.0000 0.23090  0.19480  0.74160  Biso   1.000  C
  C8       1.0000 0.76910  0.19480  0.25840  Biso   1.000  C
  C9       1.0000 0.31900  0.40510  0.24720  Biso   1.000  C
  C10      1.0000 0.68100  0.40510  0.75280  Biso   1.000  C
  C11      1.0000 0.81900  0.90510  0.24720  Biso   1.000  C
  C12      1.0000 0.18100  0.90510  0.75280  Biso   1.000  C
  C13      1.0000 0.68100  0.59490  0.75280  Biso   1.000  C
  C14      1.0000 0.31900  0.59490  0.24720  Biso   1.000  C
  C15      1.0000 0.18100  0.09490  0.75280  Biso   1.000  C
  C16      1.0000 0.81900  0.09490  0.24720  Biso   1.000  C
  C17      1.0000 0.27480  0.50000  0.26210  Biso   1.000  C
  C18      1.0000 0.72520  0.50000  0.73790  Biso   1.000  C
  C19      1.0000 0.77480  0.00000  0.26210  Biso   1.000  C
  C20      1.0000 0.22520  0.00000  0.73790  Biso   1.000  C
  H1       1.0000 0.21500  0.50000  0.28230  Biso   1.000  H
  H2       1.0000 0.78500  0.50000  0.71770  Biso   1.000  H
  H3       1.0000 0.71500  0.00000  0.28230  Biso   1.000  H
  H4       1.0000 0.28500  0.00000  0.71770  Biso   1.000  H
  C21      1.0000 0.40960  0.40570  0.21920  Biso   1.000  C
  C22      1.0000 0.59040  0.40570  0.78080  Biso   1.000  C
  C23      1.0000 0.90960  0.90570  0.21920  Biso   1.000  C
  C24      1.0000 0.09040  0.90570  0.78080  Biso   1.000  C
  C25      1.0000 0.59040  0.59430  0.78080  Biso   1.000  C
  C26      1.0000 0.40960  0.59430  0.21920  Biso   1.000  C
  C27      1.0000 0.09040  0.09430  0.78080  Biso   1.000  C
  C28      1.0000 0.90960  0.09430  0.21920  Biso   1.000  C
  H5       1.0000 0.44000  0.34250  0.20960  Biso   1.000  H
  H6       1.0000 0.56000  0.34250  0.79040  Biso   1.000  H
  H7       1.0000 0.94000  0.84250  0.20960  Biso   1.000  H
  H8       1.0000 0.06000  0.84250  0.79040  Biso   1.000  H
  H9       1.0000 0.56000  0.65750  0.79040  Biso   1.000  H
  H10      1.0000 0.44000  0.65750  0.20960  Biso   1.000  H
  H11      1.0000 0.06000  0.15750  0.79040  Biso   1.000  H
  H12      1.0000 0.94000  0.15750  0.20960  Biso   1.000  H
  C29      1.0000 0.45410  0.50000  0.20580  Biso   1.000  C
  C30      1.0000 0.54590  0.50000  0.79420  Biso   1.000  C
  C31      1.0000 0.95410  0.00000  0.20580  Biso   1.000  C
  C32      1.0000 0.04590  0.00000  0.79420  Biso   1.000  C
  H13      1.0000 0.51460  0.50000  0.18760  Biso   1.000  H
  H14      1.0000 0.48540  0.50000  0.81240  Biso   1.000  H
  H15      1.0000 0.01460  0.00000  0.18760  Biso   1.000  H
  H16      1.0000 0.98540  0.00000  0.81240  Biso   1.000  H
