data_image0
_cell_length_a       13.766
_cell_length_b       12.7157
_cell_length_c       8.075
_cell_angle_alpha    90
_cell_angle_beta     125.8
_cell_angle_gamma    90

_symmetry_space_group_name_H-M    "P 1"
_symmetry_int_tables_number       1

loop_
  _symmetry_equiv_pos_as_xyz
  'x, y, z'

loop_
  _atom_site_label
  _atom_site_occupancy
  _atom_site_fract_x
  _atom_site_fract_y
  _atom_site_fract_z
  _atom_site_thermal_displace_type
  _atom_site_B_iso_or_equiv
  _atom_site_type_symbol
  I1       1.0000 0.52202  0.00000  0.28615  Biso   1.000  I
  I2       1.0000 0.47798  0.00000  0.71385  Biso   1.000  I
  I3       1.0000 0.02202  0.50000  0.28615  Biso   1.000  I
  I4       1.0000 0.97798  0.50000  0.71385  Biso   1.000  I
  Cu1      1.0000 0.50000  0.18865  0.50000  Biso   1.000  Cu
  Cu2      1.0000 0.00000  0.68865  0.50000  Biso   1.000  Cu
  Cu3      1.0000 0.50000  0.81135  0.50000  Biso   1.000  Cu
  Cu4      1.0000 0.00000  0.31135  0.50000  Biso   1.000  Cu
  Cu5      1.0000 0.50000  0.13221  0.00000  Biso   1.000  Cu
  Cu6      1.0000 0.00000  0.63221  0.00000  Biso   1.000  Cu
  Cu7      1.0000 0.50000  0.86779  0.00000  Biso   1.000  Cu
  Cu8      1.0000 0.00000  0.36779  0.00000  Biso   1.000  Cu
  Cu9      1.0000 0.29587  0.00000  0.20183  Biso   1.000  Cu
  Cu10     1.0000 0.70413  0.00000  0.79817  Biso   1.000  Cu
  Cu11     1.0000 0.79587  0.50000  0.20183  Biso   1.000  Cu
  Cu12     1.0000 0.20413  0.50000  0.79817  Biso   1.000  Cu
  N1       1.0000 0.66720  0.21790  0.68140  Biso   1.000  N
  N2       1.0000 0.33280  0.21790  0.31860  Biso   1.000  N
  N3       1.0000 0.16720  0.71790  0.68140  Biso   1.000  N
  N4       1.0000 0.83280  0.71790  0.31860  Biso   1.000  N
  N5       1.0000 0.33280  0.78210  0.31860  Biso   1.000  N
  N6       1.0000 0.66720  0.78210  0.68140  Biso   1.000  N
  N7       1.0000 0.83280  0.28210  0.31860  Biso   1.000  N
  N8       1.0000 0.16720  0.28210  0.68140  Biso   1.000  N
  N9       1.0000 0.74640  0.14560  0.81550  Biso   1.000  N
  N10      1.0000 0.25360  0.14560  0.18450  Biso   1.000  N
  N11      1.0000 0.24640  0.64560  0.81550  Biso   1.000  N
  N12      1.0000 0.75360  0.64560  0.18450  Biso   1.000  N
  N13      1.0000 0.25360  0.85440  0.18450  Biso   1.000  N
  N14      1.0000 0.74640  0.85440  0.81550  Biso   1.000  N
  N15      1.0000 0.75360  0.35440  0.18450  Biso   1.000  N
  N16      1.0000 0.24640  0.35440  0.81550  Biso   1.000  N
  N17      1.0000 0.85350  0.18700  0.93160  Biso   1.000  N
  N18      1.0000 0.14650  0.18700  0.06840  Biso   1.000  N
  N19      1.0000 0.35350  0.68700  0.93160  Biso   1.000  N
  N20      1.0000 0.64650  0.68700  0.06840  Biso   1.000  N
  N21      1.0000 0.14650  0.81300  0.06840  Biso   1.000  N
  N22      1.0000 0.85350  0.81300  0.93160  Biso   1.000  N
  N23      1.0000 0.64650  0.31300  0.06840  Biso   1.000  N
  N24      1.0000 0.35350  0.31300  0.93160  Biso   1.000  N
  N25      1.0000 0.84580  0.28800  0.87340  Biso   1.000  N
  N26      1.0000 0.15420  0.28800  0.12660  Biso   1.000  N
  N27      1.0000 0.34580  0.78800  0.87340  Biso   1.000  N
  N28      1.0000 0.65420  0.78800  0.12660  Biso   1.000  N
  N29      1.0000 0.15420  0.71200  0.12660  Biso   1.000  N
  N30      1.0000 0.84580  0.71200  0.87340  Biso   1.000  N
  N31      1.0000 0.65420  0.21200  0.12660  Biso   1.000  N
  N32      1.0000 0.34580  0.21200  0.87340  Biso   1.000  N
  C1       1.0000 0.73090  0.30500  0.71990  Biso   1.000  C
  C2       1.0000 0.26910  0.30500  0.28010  Biso   1.000  C
  C3       1.0000 0.23090  0.80500  0.71990  Biso   1.000  C
  C4       1.0000 0.76910  0.80500  0.28010  Biso   1.000  C
  C5       1.0000 0.26910  0.69500  0.28010  Biso   1.000  C
  C6       1.0000 0.73090  0.69500  0.71990  Biso   1.000  C
  C7       1.0000 0.76910  0.19500  0.28010  Biso   1.000  C
  C8       1.0000 0.23090  0.19500  0.71990  Biso   1.000  C
  C9       1.0000 0.68070  0.40530  0.60820  Biso   1.000  C
  C10      1.0000 0.31930  0.40530  0.39180  Biso   1.000  C
  C11      1.0000 0.18070  0.90530  0.60820  Biso   1.000  C
  C12      1.0000 0.81930  0.90530  0.39180  Biso   1.000  C
  C13      1.0000 0.31930  0.59470  0.39180  Biso   1.000  C
  C14      1.0000 0.68070  0.59470  0.60820  Biso   1.000  C
  C15      1.0000 0.81930  0.09470  0.39180  Biso   1.000  C
  C16      1.0000 0.18070  0.09470  0.60820  Biso   1.000  C
  C17      1.0000 0.72530  0.50000  0.71220  Biso   1.000  C
  C18      1.0000 0.27470  0.50000  0.28780  Biso   1.000  C
  C19      1.0000 0.22530  0.00000  0.71220  Biso   1.000  C
  C20      1.0000 0.77470  0.00000  0.28780  Biso   1.000  C
  H1       1.0000 0.78520  0.50000  0.85200  Biso   1.000  H
  H2       1.0000 0.21480  0.50000  0.14800  Biso   1.000  H
  H3       1.0000 0.28520  0.00000  0.85200  Biso   1.000  H
  H4       1.0000 0.71480  0.00000  0.14800  Biso   1.000  H
  C21      1.0000 0.59030  0.40530  0.39980  Biso   1.000  C
  C22      1.0000 0.40970  0.40530  0.60020  Biso   1.000  C
  C23      1.0000 0.09030  0.90530  0.39980  Biso   1.000  C
  C24      1.0000 0.90970  0.90530  0.60020  Biso   1.000  C
  C25      1.0000 0.40970  0.59470  0.60020  Biso   1.000  C
  C26      1.0000 0.59030  0.59470  0.39980  Biso   1.000  C
  C27      1.0000 0.90970  0.09470  0.60020  Biso   1.000  C
  C28      1.0000 0.09030  0.09470  0.39980  Biso   1.000  C
  H5       1.0000 0.56010  0.34200  0.33000  Biso   1.000  H
  H6       1.0000 0.43990  0.34200  0.67000  Biso   1.000  H
  H7       1.0000 0.06010  0.84200  0.33000  Biso   1.000  H
  H8       1.0000 0.93990  0.84200  0.67000  Biso   1.000  H
  H9       1.0000 0.43990  0.65800  0.67000  Biso   1.000  H
  H10      1.0000 0.56010  0.65800  0.33000  Biso   1.000  H
  H11      1.0000 0.93990  0.15800  0.67000  Biso   1.000  H
  H12      1.0000 0.06010  0.15800  0.33000  Biso   1.000  H
  C29      1.0000 0.54510  0.50000  0.29570  Biso   1.000  C
  C30      1.0000 0.45490  0.50000  0.70430  Biso   1.000  C
  C31      1.0000 0.04510  0.00000  0.29570  Biso   1.000  C
  C32      1.0000 0.95490  0.00000  0.70430  Biso   1.000  C
  H13      1.0000 0.48460  0.50000  0.15620  Biso   1.000  H
  H14      1.0000 0.51540  0.50000  0.84380  Biso   1.000  H
  H15      1.0000 0.98460  0.00000  0.15620  Biso   1.000  H
  H16      1.0000 0.01540  0.00000  0.84380  Biso   1.000  H
