data_image0
_cell_length_a       4.0832
_cell_length_b       9.4441
_cell_length_c       13.0763
_cell_angle_alpha    96.403
_cell_angle_beta     95.736
_cell_angle_gamma    101.544

_symmetry_space_group_name_H-M    "P 1"
_symmetry_int_tables_number       1

loop_
  _symmetry_equiv_pos_as_xyz
  'x, y, z'

loop_
  _atom_site_label
  _atom_site_occupancy
  _atom_site_fract_x
  _atom_site_fract_y
  _atom_site_fract_z
  _atom_site_thermal_displace_type
  _atom_site_B_iso_or_equiv
  _atom_site_type_symbol
  I1       1.0000 0.70522  0.85645  0.60234  Biso   1.000  I
  I2       1.0000 0.29478  0.14355  0.39766  Biso   1.000  I
  Cu1      1.0000 0.80580  0.09941  0.51993  Biso   1.000  Cu
  Cu2      1.0000 0.19420  0.90059  0.48007  Biso   1.000  Cu
  N1       1.0000 0.96600  0.26930  0.63830  Biso   1.000  N
  N2       1.0000 0.03400  0.73070  0.36170  Biso   1.000  N
  C1       1.0000 0.28600  0.36970  0.80190  Biso   1.000  C
  C2       1.0000 0.71400  0.63030  0.19810  Biso   1.000  C
  H1       1.0000 0.41000  0.35410  0.86360  Biso   1.000  H
  H2       1.0000 0.59000  0.64590  0.13640  Biso   1.000  H
  C3       1.0000 0.14900  0.25350  0.72630  Biso   1.000  C
  C4       1.0000 0.85100  0.74650  0.27370  Biso   1.000  C
  H3       1.0000 0.18430  0.15930  0.73650  Biso   1.000  H
  H4       1.0000 0.81570  0.84070  0.26350  Biso   1.000  H
  C5       1.0000 0.92400  0.40250  0.62480  Biso   1.000  C
  C6       1.0000 0.07600  0.59750  0.37520  Biso   1.000  C
  H5       1.0000 0.79710  0.41470  0.56260  Biso   1.000  H
  H6       1.0000 0.20290  0.58530  0.43740  Biso   1.000  H
  O1       1.0000 0.28100  0.75310  0.85580  Biso   1.000  O
  O2       1.0000 0.71900  0.24690  0.14420  Biso   1.000  O
  O3       1.0000 0.61100  0.62590  0.94020  Biso   1.000  O
  O4       1.0000 0.38900  0.37410  0.05980  Biso   1.000  O
  C7       1.0000 0.05600  0.52440  0.69760  Biso   1.000  C
  C8       1.0000 0.94400  0.47560  0.30240  Biso   1.000  C
  H7       1.0000 0.01830  0.61740  0.68540  Biso   1.000  H
  H8       1.0000 0.98170  0.38260  0.31460  Biso   1.000  H
  C9       1.0000 0.24600  0.50900  0.78890  Biso   1.000  C
  C10      1.0000 0.75400  0.49100  0.21110  Biso   1.000  C
  C11      1.0000 0.39900  0.63120  0.86990  Biso   1.000  C
  C12      1.0000 0.60100  0.36880  0.13010  Biso   1.000  C
  C13      1.0000 0.59800  0.99750  0.90090  Biso   1.000  C
  C14      1.0000 0.40200  0.00250  0.09910  Biso   1.000  C
  H9       1.0000 0.65960  0.99440  0.83260  Biso   1.000  H
  H10      1.0000 0.34040  0.00560  0.16740  Biso   1.000  H
  C15      1.0000 0.39600  0.87560  0.93060  Biso   1.000  C
  C16      1.0000 0.60400  0.12440  0.06940  Biso   1.000  C
  C17      1.0000 0.29200  0.87670  0.02870  Biso   1.000  C
  C18      1.0000 0.70800  0.12330  0.97130  Biso   1.000  C
  H11      1.0000 0.14930  0.79340  0.04700  Biso   1.000  H
  H12      1.0000 0.85070  0.20660  0.95300  Biso   1.000  H
