data_image0
_cell_length_a       16.4
_cell_length_b       16.4
_cell_length_c       12.0057
_cell_angle_alpha    90
_cell_angle_beta     90
_cell_angle_gamma    90

_symmetry_space_group_name_H-M    "P 1"
_symmetry_int_tables_number       1

loop_
  _symmetry_equiv_pos_as_xyz
  'x, y, z'

loop_
  _atom_site_label
  _atom_site_occupancy
  _atom_site_fract_x
  _atom_site_fract_y
  _atom_site_fract_z
  _atom_site_thermal_displace_type
  _atom_site_B_iso_or_equiv
  _atom_site_type_symbol
  I1       1.0000 0.44103  0.62383  0.49304  Biso   1.000  I
  I2       1.0000 0.05897  0.37617  0.99304  Biso   1.000  I
  I3       1.0000 0.12617  0.69103  0.74304  Biso   1.000  I
  I4       1.0000 0.37383  0.30897  0.24304  Biso   1.000  I
  I5       1.0000 0.94103  0.12383  0.99304  Biso   1.000  I
  I6       1.0000 0.55897  0.87617  0.49304  Biso   1.000  I
  I7       1.0000 0.62617  0.19103  0.24304  Biso   1.000  I
  I8       1.0000 0.87383  0.80897  0.74304  Biso   1.000  I
  I9       1.0000 0.55897  0.37617  0.50696  Biso   1.000  I
  I10      1.0000 0.94103  0.62383  0.00696  Biso   1.000  I
  I11      1.0000 0.37383  0.80897  0.75696  Biso   1.000  I
  I12      1.0000 0.12617  0.19103  0.25696  Biso   1.000  I
  I13      1.0000 0.05897  0.87617  0.00696  Biso   1.000  I
  I14      1.0000 0.44103  0.12383  0.50696  Biso   1.000  I
  I15      1.0000 0.87383  0.30897  0.25696  Biso   1.000  I
  I16      1.0000 0.62617  0.69103  0.75696  Biso   1.000  I
  Cu1      1.0000 0.57133  0.71288  0.54534  Biso   1.000  Cu
  Cu2      1.0000 0.92867  0.28712  0.04534  Biso   1.000  Cu
  Cu3      1.0000 0.03712  0.82133  0.79534  Biso   1.000  Cu
  Cu4      1.0000 0.46288  0.17867  0.29534  Biso   1.000  Cu
  Cu5      1.0000 0.07133  0.21288  0.04534  Biso   1.000  Cu
  Cu6      1.0000 0.42867  0.78712  0.54534  Biso   1.000  Cu
  Cu7      1.0000 0.53712  0.32133  0.29534  Biso   1.000  Cu
  Cu8      1.0000 0.96288  0.67867  0.79534  Biso   1.000  Cu
  Cu9      1.0000 0.42867  0.28712  0.45466  Biso   1.000  Cu
  Cu10     1.0000 0.07133  0.71288  0.95466  Biso   1.000  Cu
  Cu11     1.0000 0.46288  0.67867  0.70466  Biso   1.000  Cu
  Cu12     1.0000 0.03712  0.32133  0.20466  Biso   1.000  Cu
  Cu13     1.0000 0.92867  0.78712  0.95466  Biso   1.000  Cu
  Cu14     1.0000 0.57133  0.21288  0.45466  Biso   1.000  Cu
  Cu15     1.0000 0.96288  0.17867  0.20466  Biso   1.000  Cu
  Cu16     1.0000 0.53712  0.82133  0.70466  Biso   1.000  Cu
  N1       1.0000 0.66650  0.67480  0.44980  Biso   1.000  N
  N2       1.0000 0.83350  0.32520  0.94980  Biso   1.000  N
  N3       1.0000 0.07520  0.91650  0.69980  Biso   1.000  N
  N4       1.0000 0.42480  0.08350  0.19980  Biso   1.000  N
  N5       1.0000 0.16650  0.17480  0.94980  Biso   1.000  N
  N6       1.0000 0.33350  0.82520  0.44980  Biso   1.000  N
  N7       1.0000 0.57520  0.41650  0.19980  Biso   1.000  N
  N8       1.0000 0.92480  0.58350  0.69980  Biso   1.000  N
  N9       1.0000 0.33350  0.32520  0.55020  Biso   1.000  N
  N10      1.0000 0.16650  0.67480  0.05020  Biso   1.000  N
  N11      1.0000 0.42480  0.58350  0.80020  Biso   1.000  N
  N12      1.0000 0.07520  0.41650  0.30020  Biso   1.000  N
  N13      1.0000 0.83350  0.82520  0.05020  Biso   1.000  N
  N14      1.0000 0.66650  0.17480  0.55020  Biso   1.000  N
  N15      1.0000 0.92480  0.08350  0.30020  Biso   1.000  N
  N16      1.0000 0.57520  0.91650  0.80020  Biso   1.000  N
  C1       1.0000 0.66830  0.60220  0.39900  Biso   1.000  C
  C2       1.0000 0.83170  0.39780  0.89900  Biso   1.000  C
  C3       1.0000 0.14780  0.91830  0.64900  Biso   1.000  C
  C4       1.0000 0.35220  0.08170  0.14900  Biso   1.000  C
  C5       1.0000 0.16830  0.10220  0.89900  Biso   1.000  C
  C6       1.0000 0.33170  0.89780  0.39900  Biso   1.000  C
  C7       1.0000 0.64780  0.41830  0.14900  Biso   1.000  C
  C8       1.0000 0.85220  0.58170  0.64900  Biso   1.000  C
  C9       1.0000 0.33170  0.39780  0.60100  Biso   1.000  C
  C10      1.0000 0.16830  0.60220  0.10100  Biso   1.000  C
  C11      1.0000 0.35220  0.58170  0.85100  Biso   1.000  C
  C12      1.0000 0.14780  0.41830  0.35100  Biso   1.000  C
  C13      1.0000 0.83170  0.89780  0.10100  Biso   1.000  C
  C14      1.0000 0.66830  0.10220  0.60100  Biso   1.000  C
  C15      1.0000 0.85220  0.08170  0.35100  Biso   1.000  C
  C16      1.0000 0.64780  0.91830  0.85100  Biso   1.000  C
  H1       1.0000 0.62480  0.56650  0.40880  Biso   1.000  H
  H2       1.0000 0.87520  0.43350  0.90880  Biso   1.000  H
  H3       1.0000 0.18350  0.87480  0.65880  Biso   1.000  H
  H4       1.0000 0.31650  0.12520  0.15880  Biso   1.000  H
  H5       1.0000 0.12480  0.06650  0.90880  Biso   1.000  H
  H6       1.0000 0.37520  0.93350  0.40880  Biso   1.000  H
  H7       1.0000 0.68350  0.37480  0.15880  Biso   1.000  H
  H8       1.0000 0.81650  0.62520  0.65880  Biso   1.000  H
  H9       1.0000 0.37520  0.43350  0.59120  Biso   1.000  H
  H10      1.0000 0.12480  0.56650  0.09120  Biso   1.000  H
  H11      1.0000 0.31650  0.62520  0.84120  Biso   1.000  H
  H12      1.0000 0.18350  0.37480  0.34120  Biso   1.000  H
  H13      1.0000 0.87520  0.93350  0.09120  Biso   1.000  H
  H14      1.0000 0.62480  0.06650  0.59120  Biso   1.000  H
  H15      1.0000 0.81650  0.12520  0.34120  Biso   1.000  H
  H16      1.0000 0.68350  0.87480  0.84120  Biso   1.000  H
  C17      1.0000 0.72940  0.72470  0.43440  Biso   1.000  C
  C18      1.0000 0.77060  0.27530  0.93440  Biso   1.000  C
  C19      1.0000 0.02530  0.97940  0.68440  Biso   1.000  C
  C20      1.0000 0.47470  0.02060  0.18440  Biso   1.000  C
  C21      1.0000 0.22940  0.22470  0.93440  Biso   1.000  C
  C22      1.0000 0.27060  0.77530  0.43440  Biso   1.000  C
  C23      1.0000 0.52530  0.47940  0.18440  Biso   1.000  C
  C24      1.0000 0.97470  0.52060  0.68440  Biso   1.000  C
  C25      1.0000 0.27060  0.27530  0.56560  Biso   1.000  C
  C26      1.0000 0.22940  0.72470  0.06560  Biso   1.000  C
  C27      1.0000 0.47470  0.52060  0.81560  Biso   1.000  C
  C28      1.0000 0.02530  0.47940  0.31560  Biso   1.000  C
  C29      1.0000 0.77060  0.77530  0.06560  Biso   1.000  C
  C30      1.0000 0.72940  0.22470  0.56560  Biso   1.000  C
  C31      1.0000 0.97470  0.02060  0.31560  Biso   1.000  C
  C32      1.0000 0.52530  0.97940  0.81560  Biso   1.000  C
  H17      1.0000 0.72860  0.77520  0.46960  Biso   1.000  H
  H18      1.0000 0.77140  0.22480  0.96960  Biso   1.000  H
  H19      1.0000 0.97480  0.97860  0.71960  Biso   1.000  H
  H20      1.0000 0.52520  0.02140  0.21960  Biso   1.000  H
  H21      1.0000 0.22860  0.27520  0.96960  Biso   1.000  H
  H22      1.0000 0.27140  0.72480  0.46960  Biso   1.000  H
  H23      1.0000 0.47480  0.47860  0.21960  Biso   1.000  H
  H24      1.0000 0.02520  0.52140  0.71960  Biso   1.000  H
  H25      1.0000 0.27140  0.22480  0.53040  Biso   1.000  H
  H26      1.0000 0.22860  0.77520  0.03040  Biso   1.000  H
  H27      1.0000 0.52520  0.52140  0.78040  Biso   1.000  H
  H28      1.0000 0.97480  0.47860  0.28040  Biso   1.000  H
  H29      1.0000 0.77140  0.72480  0.03040  Biso   1.000  H
  H30      1.0000 0.72860  0.27520  0.53040  Biso   1.000  H
  H31      1.0000 0.02520  0.02140  0.28040  Biso   1.000  H
  H32      1.0000 0.47480  0.97860  0.78040  Biso   1.000  H
  C33      1.0000 0.79620  0.70540  0.36850  Biso   1.000  C
  C34      1.0000 0.70380  0.29460  0.86850  Biso   1.000  C
  C35      1.0000 0.04460  0.04620  0.61850  Biso   1.000  C
  C36      1.0000 0.45540  0.95380  0.11850  Biso   1.000  C
  C37      1.0000 0.29620  0.20540  0.86850  Biso   1.000  C
  C38      1.0000 0.20380  0.79460  0.36850  Biso   1.000  C
  C39      1.0000 0.54460  0.54620  0.11850  Biso   1.000  C
  C40      1.0000 0.95540  0.45380  0.61850  Biso   1.000  C
  C41      1.0000 0.20380  0.29460  0.63150  Biso   1.000  C
  C42      1.0000 0.29620  0.70540  0.13150  Biso   1.000  C
  C43      1.0000 0.45540  0.45380  0.88150  Biso   1.000  C
  C44      1.0000 0.04460  0.54620  0.38150  Biso   1.000  C
  C45      1.0000 0.70380  0.79460  0.13150  Biso   1.000  C
  C46      1.0000 0.79620  0.20540  0.63150  Biso   1.000  C
  C47      1.0000 0.95540  0.95380  0.38150  Biso   1.000  C
  C48      1.0000 0.54460  0.04620  0.88150  Biso   1.000  C
  C49      1.0000 0.73310  0.57870  0.33240  Biso   1.000  C
  C50      1.0000 0.76690  0.42130  0.83240  Biso   1.000  C
  C51      1.0000 0.17130  0.98310  0.58240  Biso   1.000  C
  C52      1.0000 0.32870  0.01690  0.08240  Biso   1.000  C
  C53      1.0000 0.23310  0.07870  0.83240  Biso   1.000  C
  C54      1.0000 0.26690  0.92130  0.33240  Biso   1.000  C
  C55      1.0000 0.67130  0.48310  0.08240  Biso   1.000  C
  C56      1.0000 0.82870  0.51690  0.58240  Biso   1.000  C
  C57      1.0000 0.26690  0.42130  0.66760  Biso   1.000  C
  C58      1.0000 0.23310  0.57870  0.16760  Biso   1.000  C
  C59      1.0000 0.32870  0.51690  0.91760  Biso   1.000  C
  C60      1.0000 0.17130  0.48310  0.41760  Biso   1.000  C
  C61      1.0000 0.76690  0.92130  0.16760  Biso   1.000  C
  C62      1.0000 0.73310  0.07870  0.66760  Biso   1.000  C
  C63      1.0000 0.82870  0.01690  0.41760  Biso   1.000  C
  C64      1.0000 0.67130  0.98310  0.91760  Biso   1.000  C
  H33      1.0000 0.73270  0.52770  0.29840  Biso   1.000  H
  H34      1.0000 0.76730  0.47230  0.79840  Biso   1.000  H
  H35      1.0000 0.22230  0.98270  0.54840  Biso   1.000  H
  H36      1.0000 0.27770  0.01730  0.04840  Biso   1.000  H
  H37      1.0000 0.23270  0.02770  0.79840  Biso   1.000  H
  H38      1.0000 0.26730  0.97230  0.29840  Biso   1.000  H
  H39      1.0000 0.72230  0.48270  0.04840  Biso   1.000  H
  H40      1.0000 0.77770  0.51730  0.54840  Biso   1.000  H
  H41      1.0000 0.26730  0.47230  0.70160  Biso   1.000  H
  H42      1.0000 0.23270  0.52770  0.20160  Biso   1.000  H
  H43      1.0000 0.27770  0.51730  0.95160  Biso   1.000  H
  H44      1.0000 0.22230  0.48270  0.45160  Biso   1.000  H
  H45      1.0000 0.76730  0.97230  0.20160  Biso   1.000  H
  H46      1.0000 0.73270  0.02770  0.70160  Biso   1.000  H
  H47      1.0000 0.77770  0.01730  0.45160  Biso   1.000  H
  H48      1.0000 0.72230  0.98270  0.95160  Biso   1.000  H
  O1       1.0000 0.85305  0.76570  0.36220  Biso   1.000  O
  O2       1.0000 0.64695  0.23430  0.86220  Biso   1.000  O
  O3       1.0000 0.98430  0.10305  0.61220  Biso   1.000  O
  O4       1.0000 0.51570  0.89695  0.11220  Biso   1.000  O
  O5       1.0000 0.35305  0.26570  0.86220  Biso   1.000  O
  O6       1.0000 0.14695  0.73430  0.36220  Biso   1.000  O
  O7       1.0000 0.48430  0.60305  0.11220  Biso   1.000  O
  O8       1.0000 0.01570  0.39695  0.61220  Biso   1.000  O
  O9       1.0000 0.14695  0.23430  0.63780  Biso   1.000  O
  O10      1.0000 0.35305  0.76570  0.13780  Biso   1.000  O
  O11      1.0000 0.51570  0.39695  0.88780  Biso   1.000  O
  O12      1.0000 0.98430  0.60305  0.38780  Biso   1.000  O
  O13      1.0000 0.64695  0.73430  0.13780  Biso   1.000  O
  O14      1.0000 0.85305  0.26570  0.63780  Biso   1.000  O
  O15      1.0000 0.01570  0.89695  0.38780  Biso   1.000  O
  O16      1.0000 0.48430  0.10305  0.88780  Biso   1.000  O
  C65      1.0000 0.00000  0.75000  0.37500  Biso   1.000  C
  C66      1.0000 0.50000  0.25000  0.87500  Biso   1.000  C
  C67      1.0000 0.00000  0.25000  0.62500  Biso   1.000  C
  C68      1.0000 0.50000  0.75000  0.12500  Biso   1.000  C
  C69      1.0000 0.92510  0.75600  0.29800  Biso   1.000  C
  C70      1.0000 0.57490  0.24400  0.79800  Biso   1.000  C
  C71      1.0000 0.99400  0.17510  0.54800  Biso   1.000  C
  C72      1.0000 0.50600  0.82490  0.04800  Biso   1.000  C
  C73      1.0000 0.42510  0.25600  0.79800  Biso   1.000  C
  C74      1.0000 0.07490  0.74400  0.29800  Biso   1.000  C
  C75      1.0000 0.49400  0.67510  0.04800  Biso   1.000  C
  C76      1.0000 0.00600  0.32490  0.54800  Biso   1.000  C
  C77      1.0000 0.07490  0.24400  0.70200  Biso   1.000  C
  C78      1.0000 0.42510  0.75600  0.20200  Biso   1.000  C
  C79      1.0000 0.50600  0.32490  0.95200  Biso   1.000  C
  C80      1.0000 0.99400  0.67510  0.45200  Biso   1.000  C
  C81      1.0000 0.57490  0.74400  0.20200  Biso   1.000  C
  C82      1.0000 0.92510  0.25600  0.70200  Biso   1.000  C
  C83      1.0000 0.00600  0.82490  0.45200  Biso   1.000  C
  C84      1.0000 0.49400  0.17510  0.95200  Biso   1.000  C
  H49      1.0000 0.93140  0.80220  0.24820  Biso   1.000  H
  H50      1.0000 0.56860  0.19780  0.74820  Biso   1.000  H
  H51      1.0000 0.94780  0.18140  0.49820  Biso   1.000  H
  H52      1.0000 0.55220  0.81860  0.99820  Biso   1.000  H
  H53      1.0000 0.43140  0.30220  0.74820  Biso   1.000  H
  H54      1.0000 0.06860  0.69780  0.24820  Biso   1.000  H
  H55      1.0000 0.44780  0.68140  0.99820  Biso   1.000  H
  H56      1.0000 0.05220  0.31860  0.49820  Biso   1.000  H
  H57      1.0000 0.06860  0.19780  0.75180  Biso   1.000  H
  H58      1.0000 0.43140  0.80220  0.25180  Biso   1.000  H
  H59      1.0000 0.55220  0.31860  0.00180  Biso   1.000  H
  H60      1.0000 0.94780  0.68140  0.50180  Biso   1.000  H
  H61      1.0000 0.56860  0.69780  0.25180  Biso   1.000  H
  H62      1.0000 0.93140  0.30220  0.75180  Biso   1.000  H
  H63      1.0000 0.05220  0.81860  0.50180  Biso   1.000  H
  H64      1.0000 0.44780  0.18140  0.00180  Biso   1.000  H
  H65      1.0000 0.92100  0.70700  0.25310  Biso   1.000  H
  H66      1.0000 0.57900  0.29300  0.75310  Biso   1.000  H
  H67      1.0000 0.04300  0.17100  0.50310  Biso   1.000  H
  H68      1.0000 0.45700  0.82900  0.00310  Biso   1.000  H
  H69      1.0000 0.42100  0.20700  0.75310  Biso   1.000  H
  H70      1.0000 0.07900  0.79300  0.25310  Biso   1.000  H
  H71      1.0000 0.54300  0.67100  0.00310  Biso   1.000  H
  H72      1.0000 0.95700  0.32900  0.50310  Biso   1.000  H
  H73      1.0000 0.07900  0.29300  0.74690  Biso   1.000  H
  H74      1.0000 0.42100  0.70700  0.24690  Biso   1.000  H
  H75      1.0000 0.45700  0.32900  0.99690  Biso   1.000  H
  H76      1.0000 0.04300  0.67100  0.49690  Biso   1.000  H
  H77      1.0000 0.57900  0.79300  0.24690  Biso   1.000  H
  H78      1.0000 0.92100  0.20700  0.74690  Biso   1.000  H
  H79      1.0000 0.95700  0.82900  0.49690  Biso   1.000  H
  H80      1.0000 0.54300  0.17100  0.99690  Biso   1.000  H
  C85      1.0000 0.79730  0.62990  0.31660  Biso   1.000  C
  C86      1.0000 0.70270  0.37010  0.81660  Biso   1.000  C
  C87      1.0000 0.12010  0.04730  0.56660  Biso   1.000  C
  C88      1.0000 0.37990  0.95270  0.06660  Biso   1.000  C
  C89      1.0000 0.29730  0.12990  0.81660  Biso   1.000  C
  C90      1.0000 0.20270  0.87010  0.31660  Biso   1.000  C
  C91      1.0000 0.62010  0.54730  0.06660  Biso   1.000  C
  C92      1.0000 0.87990  0.45270  0.56660  Biso   1.000  C
  C93      1.0000 0.20270  0.37010  0.68340  Biso   1.000  C
  C94      1.0000 0.29730  0.62990  0.18340  Biso   1.000  C
  C95      1.0000 0.37990  0.45270  0.93340  Biso   1.000  C
  C96      1.0000 0.12010  0.54730  0.43340  Biso   1.000  C
  C97      1.0000 0.70270  0.87010  0.18340  Biso   1.000  C
  C98      1.0000 0.79730  0.12990  0.68340  Biso   1.000  C
  C99      1.0000 0.87990  0.95270  0.43340  Biso   1.000  C
  C100     1.0000 0.62010  0.04730  0.93340  Biso   1.000  C
  H81      1.0000 0.84110  0.61470  0.27190  Biso   1.000  H
  H82      1.0000 0.65890  0.38530  0.77190  Biso   1.000  H
  H83      1.0000 0.13530  0.09110  0.52190  Biso   1.000  H
  H84      1.0000 0.36470  0.90890  0.02190  Biso   1.000  H
  H85      1.0000 0.34110  0.11470  0.77190  Biso   1.000  H
  H86      1.0000 0.15890  0.88530  0.27190  Biso   1.000  H
  H87      1.0000 0.63530  0.59110  0.02190  Biso   1.000  H
  H88      1.0000 0.86470  0.40890  0.52190  Biso   1.000  H
  H89      1.0000 0.15890  0.38530  0.72810  Biso   1.000  H
  H90      1.0000 0.34110  0.61470  0.22810  Biso   1.000  H
  H91      1.0000 0.36470  0.40890  0.97810  Biso   1.000  H
  H92      1.0000 0.13530  0.59110  0.47810  Biso   1.000  H
  H93      1.0000 0.65890  0.88530  0.22810  Biso   1.000  H
  H94      1.0000 0.84110  0.11470  0.72810  Biso   1.000  H
  H95      1.0000 0.86470  0.90890  0.47810  Biso   1.000  H
  H96      1.0000 0.63530  0.09110  0.97810  Biso   1.000  H
