data_image0
_cell_length_a       13.4481
_cell_length_b       13.4481
_cell_length_c       10.7237
_cell_angle_alpha    90
_cell_angle_beta     90
_cell_angle_gamma    90

_symmetry_space_group_name_H-M    "P 1"
_symmetry_int_tables_number       1

loop_
  _symmetry_equiv_pos_as_xyz
  'x, y, z'

loop_
  _atom_site_label
  _atom_site_occupancy
  _atom_site_fract_x
  _atom_site_fract_y
  _atom_site_fract_z
  _atom_site_thermal_displace_type
  _atom_site_B_iso_or_equiv
  _atom_site_type_symbol
  C1       1.0000 0.71170  0.12460  0.45790  Biso   1.000  C
  C2       1.0000 0.78830  0.37540  0.45790  Biso   1.000  C
  C3       1.0000 0.87540  0.21170  0.95790  Biso   1.000  C
  C4       1.0000 0.62460  0.28830  0.95790  Biso   1.000  C
  C5       1.0000 0.28830  0.87540  0.54210  Biso   1.000  C
  C6       1.0000 0.21170  0.62460  0.54210  Biso   1.000  C
  C7       1.0000 0.12460  0.78830  0.04210  Biso   1.000  C
  C8       1.0000 0.37540  0.71170  0.04210  Biso   1.000  C
  C9       1.0000 0.49190  0.29030  0.43820  Biso   1.000  C
  C10      1.0000 0.00810  0.20970  0.43820  Biso   1.000  C
  C11      1.0000 0.70970  0.99190  0.93820  Biso   1.000  C
  C12      1.0000 0.79030  0.50810  0.93820  Biso   1.000  C
  C13      1.0000 0.50810  0.70970  0.56180  Biso   1.000  C
  C14      1.0000 0.99190  0.79030  0.56180  Biso   1.000  C
  C15      1.0000 0.29030  0.00810  0.06180  Biso   1.000  C
  C16      1.0000 0.20970  0.49190  0.06180  Biso   1.000  C
  H1       1.0000 0.51640  0.23060  0.46940  Biso   1.000  H
  H2       1.0000 0.98360  0.26940  0.46940  Biso   1.000  H
  H3       1.0000 0.76940  0.01640  0.96940  Biso   1.000  H
  H4       1.0000 0.73060  0.48360  0.96940  Biso   1.000  H
  H5       1.0000 0.48360  0.76940  0.53060  Biso   1.000  H
  H6       1.0000 0.01640  0.73060  0.53060  Biso   1.000  H
  H7       1.0000 0.23060  0.98360  0.03060  Biso   1.000  H
  H8       1.0000 0.26940  0.51640  0.03060  Biso   1.000  H
  C17      1.0000 0.41210  0.33380  0.49810  Biso   1.000  C
  C18      1.0000 0.08790  0.16620  0.49810  Biso   1.000  C
  C19      1.0000 0.66620  0.91210  0.99810  Biso   1.000  C
  C20      1.0000 0.83380  0.58790  0.99810  Biso   1.000  C
  C21      1.0000 0.58790  0.66620  0.50190  Biso   1.000  C
  C22      1.0000 0.91210  0.83380  0.50190  Biso   1.000  C
  C23      1.0000 0.33380  0.08790  0.00190  Biso   1.000  C
  C24      1.0000 0.16620  0.41210  0.00190  Biso   1.000  C
  C25      1.0000 0.37850  0.42370  0.45610  Biso   1.000  C
  C26      1.0000 0.12150  0.07630  0.45610  Biso   1.000  C
  C27      1.0000 0.57630  0.87850  0.95610  Biso   1.000  C
  C28      1.0000 0.92370  0.62150  0.95610  Biso   1.000  C
  C29      1.0000 0.62150  0.57630  0.54390  Biso   1.000  C
  C30      1.0000 0.87850  0.92370  0.54390  Biso   1.000  C
  C31      1.0000 0.42370  0.12150  0.04390  Biso   1.000  C
  C32      1.0000 0.07630  0.37850  0.04390  Biso   1.000  C
  H9       1.0000 0.32570  0.45600  0.49480  Biso   1.000  H
  H10      1.0000 0.17430  0.04400  0.49480  Biso   1.000  H
  H11      1.0000 0.54400  0.82570  0.99480  Biso   1.000  H
  H12      1.0000 0.95600  0.67430  0.99480  Biso   1.000  H
  H13      1.0000 0.67430  0.54400  0.50520  Biso   1.000  H
  H14      1.0000 0.82570  0.95600  0.50520  Biso   1.000  H
  H15      1.0000 0.45600  0.17430  0.00520  Biso   1.000  H
  H16      1.0000 0.04400  0.32570  0.00520  Biso   1.000  H
  C33      1.0000 0.42560  0.46480  0.35460  Biso   1.000  C
  C34      1.0000 0.07440  0.03520  0.35460  Biso   1.000  C
  C35      1.0000 0.53520  0.92560  0.85460  Biso   1.000  C
  C36      1.0000 0.96480  0.57440  0.85460  Biso   1.000  C
  C37      1.0000 0.57440  0.53520  0.64540  Biso   1.000  C
  C38      1.0000 0.92560  0.96480  0.64540  Biso   1.000  C
  C39      1.0000 0.46480  0.07440  0.14540  Biso   1.000  C
  C40      1.0000 0.03520  0.42560  0.14540  Biso   1.000  C
  H17      1.0000 0.40540  0.52670  0.32510  Biso   1.000  H
  H18      1.0000 0.09460  0.97330  0.32510  Biso   1.000  H
  H19      1.0000 0.47330  0.90540  0.82510  Biso   1.000  H
  H20      1.0000 0.02670  0.59460  0.82510  Biso   1.000  H
  H21      1.0000 0.59460  0.47330  0.67490  Biso   1.000  H
  H22      1.0000 0.90540  0.02670  0.67490  Biso   1.000  H
  H23      1.0000 0.52670  0.09460  0.17490  Biso   1.000  H
  H24      1.0000 0.97330  0.40540  0.17490  Biso   1.000  H
  C41      1.0000 0.50140  0.41590  0.29660  Biso   1.000  C
  C42      1.0000 0.99860  0.08410  0.29660  Biso   1.000  C
  C43      1.0000 0.58410  0.00140  0.79660  Biso   1.000  C
  C44      1.0000 0.91590  0.49860  0.79660  Biso   1.000  C
  C45      1.0000 0.49860  0.58410  0.70340  Biso   1.000  C
  C46      1.0000 0.00140  0.91590  0.70340  Biso   1.000  C
  C47      1.0000 0.41590  0.99860  0.20340  Biso   1.000  C
  C48      1.0000 0.08410  0.50140  0.20340  Biso   1.000  C
  H25      1.0000 0.53000  0.44400  0.22590  Biso   1.000  H
  H26      1.0000 0.97000  0.05600  0.22590  Biso   1.000  H
  H27      1.0000 0.55600  0.03000  0.72590  Biso   1.000  H
  H28      1.0000 0.94400  0.47000  0.72590  Biso   1.000  H
  H29      1.0000 0.47000  0.55600  0.77410  Biso   1.000  H
  H30      1.0000 0.03000  0.94400  0.77410  Biso   1.000  H
  H31      1.0000 0.44400  0.97000  0.27410  Biso   1.000  H
  H32      1.0000 0.05600  0.53000  0.27410  Biso   1.000  H
  C49      1.0000 0.29850  0.32950  0.66920  Biso   1.000  C
  C50      1.0000 0.20150  0.17050  0.66920  Biso   1.000  C
  C51      1.0000 0.67050  0.79850  0.16920  Biso   1.000  C
  C52      1.0000 0.82950  0.70150  0.16920  Biso   1.000  C
  C53      1.0000 0.70150  0.67050  0.33080  Biso   1.000  C
  C54      1.0000 0.79850  0.82950  0.33080  Biso   1.000  C
  C55      1.0000 0.32950  0.20150  0.83080  Biso   1.000  C
  C56      1.0000 0.17050  0.29850  0.83080  Biso   1.000  C
  H33      1.0000 0.24930  0.36030  0.61560  Biso   1.000  H
  H34      1.0000 0.25070  0.13970  0.61560  Biso   1.000  H
  H35      1.0000 0.63970  0.74930  0.11560  Biso   1.000  H
  H36      1.0000 0.86030  0.75070  0.11560  Biso   1.000  H
  H37      1.0000 0.75070  0.63970  0.38440  Biso   1.000  H
  H38      1.0000 0.74930  0.86030  0.38440  Biso   1.000  H
  H39      1.0000 0.36030  0.25070  0.88440  Biso   1.000  H
  H40      1.0000 0.13970  0.24930  0.88440  Biso   1.000  H
  H41      1.0000 0.32790  0.38070  0.72130  Biso   1.000  H
  H42      1.0000 0.17210  0.11930  0.72130  Biso   1.000  H
  H43      1.0000 0.61930  0.82790  0.22130  Biso   1.000  H
  H44      1.0000 0.88070  0.67210  0.22130  Biso   1.000  H
  H45      1.0000 0.67210  0.61930  0.27870  Biso   1.000  H
  H46      1.0000 0.82790  0.88070  0.27870  Biso   1.000  H
  H47      1.0000 0.38070  0.17210  0.77870  Biso   1.000  H
  H48      1.0000 0.11930  0.32790  0.77870  Biso   1.000  H
  C57      1.0000 0.25000  0.25000  0.75000  Biso   1.000  C
  C58      1.0000 0.75000  0.75000  0.25000  Biso   1.000  C
  Cu1      1.0000 0.65289  0.27122  0.24289  Biso   1.000  Cu
  Cu2      1.0000 0.84711  0.22878  0.24289  Biso   1.000  Cu
  Cu3      1.0000 0.72878  0.15289  0.74289  Biso   1.000  Cu
  Cu4      1.0000 0.77122  0.34711  0.74289  Biso   1.000  Cu
  Cu5      1.0000 0.34711  0.72878  0.75711  Biso   1.000  Cu
  Cu6      1.0000 0.15289  0.77122  0.75711  Biso   1.000  Cu
  Cu7      1.0000 0.27122  0.84711  0.25711  Biso   1.000  Cu
  Cu8      1.0000 0.22878  0.65289  0.25711  Biso   1.000  Cu
  N1       1.0000 0.71490  0.13070  0.56440  Biso   1.000  N
  N2       1.0000 0.78510  0.36930  0.56440  Biso   1.000  N
  N3       1.0000 0.86930  0.21490  0.06440  Biso   1.000  N
  N4       1.0000 0.63070  0.28510  0.06440  Biso   1.000  N
  N5       1.0000 0.28510  0.86930  0.43560  Biso   1.000  N
  N6       1.0000 0.21490  0.63070  0.43560  Biso   1.000  N
  N7       1.0000 0.13070  0.78510  0.93560  Biso   1.000  N
  N8       1.0000 0.36930  0.71490  0.93560  Biso   1.000  N
  N9       1.0000 0.53550  0.32940  0.33820  Biso   1.000  N
  N10      1.0000 0.96450  0.17060  0.33820  Biso   1.000  N
  N11      1.0000 0.67060  0.03550  0.83820  Biso   1.000  N
  N12      1.0000 0.82940  0.46450  0.83820  Biso   1.000  N
  N13      1.0000 0.46450  0.67060  0.66180  Biso   1.000  N
  N14      1.0000 0.03550  0.82940  0.66180  Biso   1.000  N
  N15      1.0000 0.32940  0.96450  0.16180  Biso   1.000  N
  N16      1.0000 0.17060  0.53550  0.16180  Biso   1.000  N
  O1       1.0000 0.37360  0.28250  0.59570  Biso   1.000  O
  O2       1.0000 0.12640  0.21750  0.59570  Biso   1.000  O
  O3       1.0000 0.71750  0.87360  0.09570  Biso   1.000  O
  O4       1.0000 0.78250  0.62640  0.09570  Biso   1.000  O
  O5       1.0000 0.62640  0.71750  0.40430  Biso   1.000  O
  O6       1.0000 0.87360  0.78250  0.40430  Biso   1.000  O
  O7       1.0000 0.28250  0.12640  0.90430  Biso   1.000  O
  O8       1.0000 0.21750  0.37360  0.90430  Biso   1.000  O
  S1       1.0000 0.70832  0.11294  0.30344  Biso   1.000  S
  S2       1.0000 0.79168  0.38706  0.30344  Biso   1.000  S
  S3       1.0000 0.88706  0.20832  0.80344  Biso   1.000  S
  S4       1.0000 0.61294  0.29168  0.80344  Biso   1.000  S
  S5       1.0000 0.29168  0.88706  0.69656  Biso   1.000  S
  S6       1.0000 0.20832  0.61294  0.69656  Biso   1.000  S
  S7       1.0000 0.11294  0.79168  0.19656  Biso   1.000  S
  S8       1.0000 0.38706  0.70832  0.19656  Biso   1.000  S
  O9       1.0000 0.00000  0.00000  0.00000  Biso   1.000  O
  O10      1.0000 0.50000  0.50000  0.00000  Biso   1.000  O
  O11      1.0000 0.00000  0.50000  0.50000  Biso   1.000  O
  O12      1.0000 0.50000  0.00000  0.50000  Biso   1.000  O
  H49      1.0000 0.96340  0.04670  0.97280  Biso   1.000  H
  H50      1.0000 0.53660  0.45330  0.97280  Biso   1.000  H
  H51      1.0000 0.95330  0.46340  0.47280  Biso   1.000  H
  H52      1.0000 0.54670  0.03660  0.47280  Biso   1.000  H
  H53      1.0000 0.03660  0.95330  0.02720  Biso   1.000  H
  H54      1.0000 0.46340  0.54670  0.02720  Biso   1.000  H
  H55      1.0000 0.04670  0.53660  0.52720  Biso   1.000  H
  H56      1.0000 0.45330  0.96340  0.52720  Biso   1.000  H
  O13      1.0000 0.25000  0.25000  0.25000  Biso   1.000  O
  O14      1.0000 0.75000  0.75000  0.75000  Biso   1.000  O
  H57      1.0000 0.22570  0.30580  0.22860  Biso   1.000  H
  H58      1.0000 0.27430  0.19420  0.22860  Biso   1.000  H
  H59      1.0000 0.69420  0.72570  0.72860  Biso   1.000  H
  H60      1.0000 0.80580  0.77430  0.72860  Biso   1.000  H
  H61      1.0000 0.77430  0.69420  0.77140  Biso   1.000  H
  H62      1.0000 0.72570  0.80580  0.77140  Biso   1.000  H
  H63      1.0000 0.30580  0.27430  0.27140  Biso   1.000  H
  H64      1.0000 0.19420  0.22570  0.27140  Biso   1.000  H
  H65      1.0000 0.05630  0.02340  0.02090  Biso   1.000  H
  H66      1.0000 0.44370  0.47660  0.02090  Biso   1.000  H
  H67      1.0000 0.97660  0.55630  0.52090  Biso   1.000  H
  H68      1.0000 0.52340  0.94370  0.52090  Biso   1.000  H
  H69      1.0000 0.94370  0.97660  0.97910  Biso   1.000  H
  H70      1.0000 0.55630  0.52340  0.97910  Biso   1.000  H
  H71      1.0000 0.02340  0.44370  0.47910  Biso   1.000  H
  H72      1.0000 0.47660  0.05630  0.47910  Biso   1.000  H
  H73      1.0000 0.31310  0.25330  0.24890  Biso   1.000  H
  H74      1.0000 0.18690  0.24670  0.24890  Biso   1.000  H
  H75      1.0000 0.74670  0.81310  0.74890  Biso   1.000  H
  H76      1.0000 0.75330  0.68690  0.74890  Biso   1.000  H
  H77      1.0000 0.68690  0.74670  0.75110  Biso   1.000  H
  H78      1.0000 0.81310  0.75330  0.75110  Biso   1.000  H
  H79      1.0000 0.25330  0.18690  0.25110  Biso   1.000  H
  H80      1.0000 0.24670  0.31310  0.25110  Biso   1.000  H
