data_image0
_cell_length_a       22.072
_cell_length_b       11.3511
_cell_length_c       11.2808
_cell_angle_alpha    90
_cell_angle_beta     106.262
_cell_angle_gamma    90

_symmetry_space_group_name_H-M    "P 1"
_symmetry_int_tables_number       1

loop_
  _symmetry_equiv_pos_as_xyz
  'x, y, z'

loop_
  _atom_site_label
  _atom_site_occupancy
  _atom_site_fract_x
  _atom_site_fract_y
  _atom_site_fract_z
  _atom_site_thermal_displace_type
  _atom_site_B_iso_or_equiv
  _atom_site_type_symbol
  Cu1      1.0000 0.95423  0.09005  0.41071  Biso   1.000  Cu
  Cu2      1.0000 0.45423  0.59005  0.41071  Biso   1.000  Cu
  Cu3      1.0000 0.04577  0.09005  0.08929  Biso   1.000  Cu
  Cu4      1.0000 0.54577  0.59005  0.08929  Biso   1.000  Cu
  Cu5      1.0000 0.04577  0.90995  0.58929  Biso   1.000  Cu
  Cu6      1.0000 0.54577  0.40995  0.58929  Biso   1.000  Cu
  Cu7      1.0000 0.95423  0.90995  0.91071  Biso   1.000  Cu
  Cu8      1.0000 0.45423  0.40995  0.91071  Biso   1.000  Cu
  S1       1.0000 0.85888  0.15808  0.42910  Biso   1.000  S
  S2       1.0000 0.35888  0.65808  0.42910  Biso   1.000  S
  S3       1.0000 0.14112  0.15808  0.07090  Biso   1.000  S
  S4       1.0000 0.64112  0.65808  0.07090  Biso   1.000  S
  S5       1.0000 0.14112  0.84192  0.57090  Biso   1.000  S
  S6       1.0000 0.64112  0.34192  0.57090  Biso   1.000  S
  S7       1.0000 0.85888  0.84192  0.92910  Biso   1.000  S
  S8       1.0000 0.35888  0.34192  0.92910  Biso   1.000  S
  O1       1.0000 0.78880  0.96580  0.30500  Biso   1.000  O
  O2       1.0000 0.28880  0.46580  0.30500  Biso   1.000  O
  O3       1.0000 0.21120  0.96580  0.19500  Biso   1.000  O
  O4       1.0000 0.71120  0.46580  0.19500  Biso   1.000  O
  O5       1.0000 0.21120  0.03420  0.69500  Biso   1.000  O
  O6       1.0000 0.71120  0.53420  0.69500  Biso   1.000  O
  O7       1.0000 0.78880  0.03420  0.80500  Biso   1.000  O
  O8       1.0000 0.28880  0.53420  0.80500  Biso   1.000  O
  N1       1.0000 0.78030  0.84750  0.46150  Biso   1.000  N
  N2       1.0000 0.28030  0.34750  0.46150  Biso   1.000  N
  N3       1.0000 0.21970  0.84750  0.03850  Biso   1.000  N
  N4       1.0000 0.71970  0.34750  0.03850  Biso   1.000  N
  N5       1.0000 0.21970  0.15250  0.53850  Biso   1.000  N
  N6       1.0000 0.71970  0.65250  0.53850  Biso   1.000  N
  N7       1.0000 0.78030  0.15250  0.96150  Biso   1.000  N
  N8       1.0000 0.28030  0.65250  0.96150  Biso   1.000  N
  C1       1.0000 0.88490  0.27360  0.54660  Biso   1.000  C
  C2       1.0000 0.38490  0.77360  0.54660  Biso   1.000  C
  C3       1.0000 0.11510  0.27360  0.95340  Biso   1.000  C
  C4       1.0000 0.61510  0.77360  0.95340  Biso   1.000  C
  C5       1.0000 0.11510  0.72640  0.45340  Biso   1.000  C
  C6       1.0000 0.61510  0.22640  0.45340  Biso   1.000  C
  C7       1.0000 0.88490  0.72640  0.04660  Biso   1.000  C
  C8       1.0000 0.38490  0.22640  0.04660  Biso   1.000  C
  H1       1.0000 0.92160  0.24330  0.61350  Biso   1.000  H
  H2       1.0000 0.42160  0.74330  0.61350  Biso   1.000  H
  H3       1.0000 0.07840  0.24330  0.88650  Biso   1.000  H
  H4       1.0000 0.57840  0.74330  0.88650  Biso   1.000  H
  H5       1.0000 0.07840  0.75670  0.38650  Biso   1.000  H
  H6       1.0000 0.57840  0.25670  0.38650  Biso   1.000  H
  H7       1.0000 0.92160  0.75670  0.11350  Biso   1.000  H
  H8       1.0000 0.42160  0.25670  0.11350  Biso   1.000  H
  C9       1.0000 0.90720  0.37600  0.48220  Biso   1.000  C
  C10      1.0000 0.40720  0.87600  0.48220  Biso   1.000  C
  C11      1.0000 0.09280  0.37600  0.01780  Biso   1.000  C
  C12      1.0000 0.59280  0.87600  0.01780  Biso   1.000  C
  C13      1.0000 0.09280  0.62400  0.51780  Biso   1.000  C
  C14      1.0000 0.59280  0.12400  0.51780  Biso   1.000  C
  C15      1.0000 0.90720  0.62400  0.98220  Biso   1.000  C
  C16      1.0000 0.40720  0.12400  0.98220  Biso   1.000  C
  H9       1.0000 0.94170  0.34900  0.44850  Biso   1.000  H
  H10      1.0000 0.44170  0.84900  0.44850  Biso   1.000  H
  H11      1.0000 0.05830  0.34900  0.05150  Biso   1.000  H
  H12      1.0000 0.55830  0.84900  0.05150  Biso   1.000  H
  H13      1.0000 0.05830  0.65100  0.55150  Biso   1.000  H
  H14      1.0000 0.55830  0.15100  0.55150  Biso   1.000  H
  H15      1.0000 0.94170  0.65100  0.94850  Biso   1.000  H
  H16      1.0000 0.44170  0.15100  0.94850  Biso   1.000  H
  H17      1.0000 0.87190  0.40340  0.41240  Biso   1.000  H
  H18      1.0000 0.37190  0.90340  0.41240  Biso   1.000  H
  H19      1.0000 0.12810  0.40340  0.08760  Biso   1.000  H
  H20      1.0000 0.62810  0.90340  0.08760  Biso   1.000  H
  H21      1.0000 0.12810  0.59660  0.58760  Biso   1.000  H
  H22      1.0000 0.62810  0.09660  0.58760  Biso   1.000  H
  H23      1.0000 0.87190  0.59660  0.91240  Biso   1.000  H
  H24      1.0000 0.37190  0.09660  0.91240  Biso   1.000  H
  C17      1.0000 0.93060  0.47760  0.57100  Biso   1.000  C
  C18      1.0000 0.43060  0.97760  0.57100  Biso   1.000  C
  C19      1.0000 0.06940  0.47760  0.92900  Biso   1.000  C
  C20      1.0000 0.56940  0.97760  0.92900  Biso   1.000  C
  C21      1.0000 0.06940  0.52240  0.42900  Biso   1.000  C
  C22      1.0000 0.56940  0.02240  0.42900  Biso   1.000  C
  C23      1.0000 0.93060  0.52240  0.07100  Biso   1.000  C
  C24      1.0000 0.43060  0.02240  0.07100  Biso   1.000  C
  H25      1.0000 0.94190  0.54480  0.52560  Biso   1.000  H
  H26      1.0000 0.44190  0.04480  0.52560  Biso   1.000  H
  H27      1.0000 0.05810  0.54480  0.97440  Biso   1.000  H
  H28      1.0000 0.55810  0.04480  0.97440  Biso   1.000  H
  H29      1.0000 0.05810  0.45520  0.47440  Biso   1.000  H
  H30      1.0000 0.55810  0.95520  0.47440  Biso   1.000  H
  H31      1.0000 0.94190  0.45520  0.02560  Biso   1.000  H
  H32      1.0000 0.44190  0.95520  0.02560  Biso   1.000  H
  H33      1.0000 0.96900  0.45290  0.63550  Biso   1.000  H
  H34      1.0000 0.46900  0.95290  0.63550  Biso   1.000  H
  H35      1.0000 0.03100  0.45290  0.86450  Biso   1.000  H
  H36      1.0000 0.53100  0.95290  0.86450  Biso   1.000  H
  H37      1.0000 0.03100  0.54710  0.36450  Biso   1.000  H
  H38      1.0000 0.53100  0.04710  0.36450  Biso   1.000  H
  H39      1.0000 0.96900  0.54710  0.13550  Biso   1.000  H
  H40      1.0000 0.46900  0.04710  0.13550  Biso   1.000  H
  C25      1.0000 0.88010  0.51610  0.63180  Biso   1.000  C
  C26      1.0000 0.38010  0.01610  0.63180  Biso   1.000  C
  C27      1.0000 0.11990  0.51610  0.86820  Biso   1.000  C
  C28      1.0000 0.61990  0.01610  0.86820  Biso   1.000  C
  C29      1.0000 0.11990  0.48390  0.36820  Biso   1.000  C
  C30      1.0000 0.61990  0.98390  0.36820  Biso   1.000  C
  C31      1.0000 0.88010  0.48390  0.13180  Biso   1.000  C
  C32      1.0000 0.38010  0.98390  0.13180  Biso   1.000  C
  H41      1.0000 0.89780  0.57770  0.69410  Biso   1.000  H
  H42      1.0000 0.39780  0.07770  0.69410  Biso   1.000  H
  H43      1.0000 0.10220  0.57770  0.80590  Biso   1.000  H
  H44      1.0000 0.60220  0.07770  0.80590  Biso   1.000  H
  H45      1.0000 0.10220  0.42230  0.30590  Biso   1.000  H
  H46      1.0000 0.60220  0.92230  0.30590  Biso   1.000  H
  H47      1.0000 0.89780  0.42230  0.19410  Biso   1.000  H
  H48      1.0000 0.39780  0.92230  0.19410  Biso   1.000  H
  H49      1.0000 0.84410  0.55100  0.56850  Biso   1.000  H
  H50      1.0000 0.34410  0.05100  0.56850  Biso   1.000  H
  H51      1.0000 0.15590  0.55100  0.93150  Biso   1.000  H
  H52      1.0000 0.65590  0.05100  0.93150  Biso   1.000  H
  H53      1.0000 0.15590  0.44900  0.43150  Biso   1.000  H
  H54      1.0000 0.65590  0.94900  0.43150  Biso   1.000  H
  H55      1.0000 0.84410  0.44900  0.06850  Biso   1.000  H
  H56      1.0000 0.34410  0.94900  0.06850  Biso   1.000  H
  C33      1.0000 0.85660  0.41400  0.69380  Biso   1.000  C
  C34      1.0000 0.35660  0.91400  0.69380  Biso   1.000  C
  C35      1.0000 0.14340  0.41400  0.80620  Biso   1.000  C
  C36      1.0000 0.64340  0.91400  0.80620  Biso   1.000  C
  C37      1.0000 0.14340  0.58600  0.30620  Biso   1.000  C
  C38      1.0000 0.64340  0.08600  0.30620  Biso   1.000  C
  C39      1.0000 0.85660  0.58600  0.19380  Biso   1.000  C
  C40      1.0000 0.35660  0.08600  0.19380  Biso   1.000  C
  H57      1.0000 0.82220  0.44180  0.72720  Biso   1.000  H
  H58      1.0000 0.32220  0.94180  0.72720  Biso   1.000  H
  H59      1.0000 0.17780  0.44180  0.77280  Biso   1.000  H
  H60      1.0000 0.67780  0.94180  0.77280  Biso   1.000  H
  H61      1.0000 0.17780  0.55820  0.27280  Biso   1.000  H
  H62      1.0000 0.67780  0.05820  0.27280  Biso   1.000  H
  H63      1.0000 0.82220  0.55820  0.22720  Biso   1.000  H
  H64      1.0000 0.32220  0.05820  0.22720  Biso   1.000  H
  H65      1.0000 0.89140  0.38550  0.76400  Biso   1.000  H
  H66      1.0000 0.39140  0.88550  0.76400  Biso   1.000  H
  H67      1.0000 0.10860  0.38550  0.73600  Biso   1.000  H
  H68      1.0000 0.60860  0.88550  0.73600  Biso   1.000  H
  H69      1.0000 0.10860  0.61450  0.23600  Biso   1.000  H
  H70      1.0000 0.60860  0.11450  0.23600  Biso   1.000  H
  H71      1.0000 0.89140  0.61450  0.26400  Biso   1.000  H
  H72      1.0000 0.39140  0.11450  0.26400  Biso   1.000  H
  C41      1.0000 0.83240  0.31160  0.60430  Biso   1.000  C
  C42      1.0000 0.33240  0.81160  0.60430  Biso   1.000  C
  C43      1.0000 0.16760  0.31160  0.89570  Biso   1.000  C
  C44      1.0000 0.66760  0.81160  0.89570  Biso   1.000  C
  C45      1.0000 0.16760  0.68840  0.39570  Biso   1.000  C
  C46      1.0000 0.66760  0.18840  0.39570  Biso   1.000  C
  C47      1.0000 0.83240  0.68840  0.10430  Biso   1.000  C
  C48      1.0000 0.33240  0.18840  0.10430  Biso   1.000  C
  H73      1.0000 0.79460  0.33670  0.53870  Biso   1.000  H
  H74      1.0000 0.29460  0.83670  0.53870  Biso   1.000  H
  H75      1.0000 0.20540  0.33670  0.96130  Biso   1.000  H
  H76      1.0000 0.70540  0.83670  0.96130  Biso   1.000  H
  H77      1.0000 0.20540  0.66330  0.46130  Biso   1.000  H
  H78      1.0000 0.70540  0.16330  0.46130  Biso   1.000  H
  H79      1.0000 0.79460  0.66330  0.03870  Biso   1.000  H
  H80      1.0000 0.29460  0.16330  0.03870  Biso   1.000  H
  H81      1.0000 0.82040  0.24450  0.64920  Biso   1.000  H
  H82      1.0000 0.32040  0.74450  0.64920  Biso   1.000  H
  H83      1.0000 0.17960  0.24450  0.85080  Biso   1.000  H
  H84      1.0000 0.67960  0.74450  0.85080  Biso   1.000  H
  H85      1.0000 0.17960  0.75550  0.35080  Biso   1.000  H
  H86      1.0000 0.67960  0.25550  0.35080  Biso   1.000  H
  H87      1.0000 0.82040  0.75550  0.14920  Biso   1.000  H
  H88      1.0000 0.32040  0.25550  0.14920  Biso   1.000  H
  C49      1.0000 0.83340  0.03840  0.51210  Biso   1.000  C
  C50      1.0000 0.33340  0.53840  0.51210  Biso   1.000  C
  C51      1.0000 0.16660  0.03840  0.98790  Biso   1.000  C
  C52      1.0000 0.66660  0.53840  0.98790  Biso   1.000  C
  C53      1.0000 0.16660  0.96160  0.48790  Biso   1.000  C
  C54      1.0000 0.66660  0.46160  0.48790  Biso   1.000  C
  C55      1.0000 0.83340  0.96160  0.01210  Biso   1.000  C
  C56      1.0000 0.33340  0.46160  0.01210  Biso   1.000  C
  H89      1.0000 0.87040  0.00200  0.57160  Biso   1.000  H
  H90      1.0000 0.37040  0.50200  0.57160  Biso   1.000  H
  H91      1.0000 0.12960  0.00200  0.92840  Biso   1.000  H
  H92      1.0000 0.62960  0.50200  0.92840  Biso   1.000  H
  H93      1.0000 0.12960  0.99800  0.42840  Biso   1.000  H
  H94      1.0000 0.62960  0.49800  0.42840  Biso   1.000  H
  H95      1.0000 0.87040  0.99800  0.07160  Biso   1.000  H
  H96      1.0000 0.37040  0.49800  0.07160  Biso   1.000  H
  H97      1.0000 0.80460  0.06890  0.55830  Biso   1.000  H
  H98      1.0000 0.30460  0.56890  0.55830  Biso   1.000  H
  H99      1.0000 0.19540  0.06890  0.94170  Biso   1.000  H
  H100     1.0000 0.69540  0.56890  0.94170  Biso   1.000  H
  H101     1.0000 0.19540  0.93110  0.44170  Biso   1.000  H
  H102     1.0000 0.69540  0.43110  0.44170  Biso   1.000  H
  H103     1.0000 0.80460  0.93110  0.05830  Biso   1.000  H
  H104     1.0000 0.30460  0.43110  0.05830  Biso   1.000  H
  C57      1.0000 0.79930  0.94730  0.41610  Biso   1.000  C
  C58      1.0000 0.29930  0.44730  0.41610  Biso   1.000  C
  C59      1.0000 0.20070  0.94730  0.08390  Biso   1.000  C
  C60      1.0000 0.70070  0.44730  0.08390  Biso   1.000  C
  C61      1.0000 0.20070  0.05270  0.58390  Biso   1.000  C
  C62      1.0000 0.70070  0.55270  0.58390  Biso   1.000  C
  C63      1.0000 0.79930  0.05270  0.91610  Biso   1.000  C
  C64      1.0000 0.29930  0.55270  0.91610  Biso   1.000  C
  C65      1.0000 0.75790  0.74830  0.37900  Biso   1.000  C
  C66      1.0000 0.25790  0.24830  0.37900  Biso   1.000  C
  C67      1.0000 0.24210  0.74830  0.12100  Biso   1.000  C
  C68      1.0000 0.74210  0.24830  0.12100  Biso   1.000  C
  C69      1.0000 0.24210  0.25170  0.62100  Biso   1.000  C
  C70      1.0000 0.74210  0.75170  0.62100  Biso   1.000  C
  C71      1.0000 0.75790  0.25170  0.87900  Biso   1.000  C
  C72      1.0000 0.25790  0.75170  0.87900  Biso   1.000  C
  H105     1.0000 0.79320  0.69240  0.38590  Biso   1.000  H
  H106     1.0000 0.29320  0.19240  0.38590  Biso   1.000  H
  H107     1.0000 0.20680  0.69240  0.11410  Biso   1.000  H
  H108     1.0000 0.70680  0.19240  0.11410  Biso   1.000  H
  H109     1.0000 0.20680  0.30760  0.61410  Biso   1.000  H
  H110     1.0000 0.70680  0.80760  0.61410  Biso   1.000  H
  H111     1.0000 0.79320  0.30760  0.88590  Biso   1.000  H
  H112     1.0000 0.29320  0.80760  0.88590  Biso   1.000  H
  H113     1.0000 0.74440  0.77720  0.29280  Biso   1.000  H
  H114     1.0000 0.24440  0.27720  0.29280  Biso   1.000  H
  H115     1.0000 0.25560  0.77720  0.20720  Biso   1.000  H
  H116     1.0000 0.75560  0.27720  0.20720  Biso   1.000  H
  H117     1.0000 0.25560  0.22280  0.70720  Biso   1.000  H
  H118     1.0000 0.75560  0.72280  0.70720  Biso   1.000  H
  H119     1.0000 0.74440  0.22280  0.79280  Biso   1.000  H
  H120     1.0000 0.24440  0.72280  0.79280  Biso   1.000  H
  C73      1.0000 0.79630  0.81600  0.59340  Biso   1.000  C
  C74      1.0000 0.29630  0.31600  0.59340  Biso   1.000  C
  C75      1.0000 0.20370  0.81600  0.90660  Biso   1.000  C
  C76      1.0000 0.70370  0.31600  0.90660  Biso   1.000  C
  C77      1.0000 0.20370  0.18400  0.40660  Biso   1.000  C
  C78      1.0000 0.70370  0.68400  0.40660  Biso   1.000  C
  C79      1.0000 0.79630  0.18400  0.09340  Biso   1.000  C
  C80      1.0000 0.29630  0.68400  0.09340  Biso   1.000  C
  H121     1.0000 0.80590  0.88840  0.64420  Biso   1.000  H
  H122     1.0000 0.30590  0.38840  0.64420  Biso   1.000  H
  H123     1.0000 0.19410  0.88840  0.85580  Biso   1.000  H
  H124     1.0000 0.69410  0.38840  0.85580  Biso   1.000  H
  H125     1.0000 0.19410  0.11160  0.35580  Biso   1.000  H
  H126     1.0000 0.69410  0.61160  0.35580  Biso   1.000  H
  H127     1.0000 0.80590  0.11160  0.14420  Biso   1.000  H
  H128     1.0000 0.30590  0.61160  0.14420  Biso   1.000  H
  H129     1.0000 0.83430  0.76540  0.61500  Biso   1.000  H
  H130     1.0000 0.33430  0.26540  0.61500  Biso   1.000  H
  H131     1.0000 0.16570  0.76540  0.88500  Biso   1.000  H
  H132     1.0000 0.66570  0.26540  0.88500  Biso   1.000  H
  H133     1.0000 0.16570  0.23460  0.38500  Biso   1.000  H
  H134     1.0000 0.66570  0.73460  0.38500  Biso   1.000  H
  H135     1.0000 0.83430  0.23460  0.11500  Biso   1.000  H
  H136     1.0000 0.33430  0.73460  0.11500  Biso   1.000  H
  Cu9      1.0000 0.00000  0.98150  0.25000  Biso   1.000  Cu
  Cu10     1.0000 0.50000  0.48150  0.25000  Biso   1.000  Cu
  Cu11     1.0000 0.00000  0.01850  0.75000  Biso   1.000  Cu
  Cu12     1.0000 0.50000  0.51850  0.75000  Biso   1.000  Cu
  I1       1.0000 0.94977  0.85823  0.38647  Biso   1.000  I
  I2       1.0000 0.44977  0.35823  0.38647  Biso   1.000  I
  I3       1.0000 0.05023  0.85823  0.11353  Biso   1.000  I
  I4       1.0000 0.55023  0.35823  0.11353  Biso   1.000  I
  I5       1.0000 0.05023  0.14177  0.61353  Biso   1.000  I
  I6       1.0000 0.55023  0.64177  0.61353  Biso   1.000  I
  I7       1.0000 0.94977  0.14177  0.88647  Biso   1.000  I
  I8       1.0000 0.44977  0.64177  0.88647  Biso   1.000  I
  I9       1.0000 0.00000  0.20686  0.25000  Biso   1.000  I
  I10      1.0000 0.50000  0.70686  0.25000  Biso   1.000  I
  I11      1.0000 0.00000  0.79314  0.75000  Biso   1.000  I
  I12      1.0000 0.50000  0.29314  0.75000  Biso   1.000  I
