data_image0
_cell_length_a       8.159
_cell_length_b       9.621
_cell_length_c       9.767
_cell_angle_alpha    74.063
_cell_angle_beta     74.037
_cell_angle_gamma    67.125

_symmetry_space_group_name_H-M    "P 1"
_symmetry_int_tables_number       1

loop_
  _symmetry_equiv_pos_as_xyz
  'x, y, z'

loop_
  _atom_site_label
  _atom_site_occupancy
  _atom_site_fract_x
  _atom_site_fract_y
  _atom_site_fract_z
  _atom_site_thermal_displace_type
  _atom_site_B_iso_or_equiv
  _atom_site_type_symbol
  Cu1      1.0000 0.23769  0.13056  0.15378  Biso   1.000  Cu
  Cu2      1.0000 0.76231  0.86944  0.84622  Biso   1.000  Cu
  Cl1      1.0000 0.47662  0.22262  0.13040  Biso   1.000  Cl
  Cl2      1.0000 0.52338  0.77738  0.86960  Biso   1.000  Cl
  N1       1.0000 0.01470  0.31720  0.22580  Biso   1.000  N
  N2       1.0000 0.98530  0.68280  0.77420  Biso   1.000  N
  N3       1.0000 0.84510  0.49880  0.38200  Biso   1.000  N
  N4       1.0000 0.15490  0.50120  0.61800  Biso   1.000  N
  N5       1.0000 0.12640  0.32160  0.41520  Biso   1.000  N
  N6       1.0000 0.87360  0.67840  0.58480  Biso   1.000  N
  H1       1.0000 0.11740  0.35810  0.48910  Biso   1.000  H
  H2       1.0000 0.88260  0.64190  0.51090  Biso   1.000  H
  H3       1.0000 0.22150  0.24680  0.38990  Biso   1.000  H
  H4       1.0000 0.77850  0.75320  0.61010  Biso   1.000  H
  N7       1.0000 0.08280  0.18730  0.00240  Biso   1.000  N
  N8       1.0000 0.91720  0.81270  0.99760  Biso   1.000  N
  N9       1.0000 0.32340  0.93200  0.29270  Biso   1.000  N
  N10      1.0000 0.67660  0.06800  0.70730  Biso   1.000  N
  C1       1.0000 0.99170  0.38170  0.33910  Biso   1.000  C
  C2       1.0000 0.00830  0.61830  0.66090  Biso   1.000  C
  C3       1.0000 0.71930  0.56210  0.29720  Biso   1.000  C
  C4       1.0000 0.28070  0.43790  0.70280  Biso   1.000  C
  C5       1.0000 0.73920  0.51030  0.17140  Biso   1.000  C
  C6       1.0000 0.26080  0.48970  0.82860  Biso   1.000  C
  H5       1.0000 0.65440  0.55820  0.11110  Biso   1.000  H
  H6       1.0000 0.34560  0.44180  0.88890  Biso   1.000  H
  C7       1.0000 0.89080  0.38460  0.14030  Biso   1.000  C
  C8       1.0000 0.10920  0.61540  0.85970  Biso   1.000  C
  C9       1.0000 0.93030  0.31180  0.01260  Biso   1.000  C
  C10      1.0000 0.06970  0.68820  0.98740  Biso   1.000  C
  C11      1.0000 0.82020  0.36970  0.90970  Biso   1.000  C
  C12      1.0000 0.17980  0.63030  0.09030  Biso   1.000  C
  H7       1.0000 0.71650  0.45590  0.91860  Biso   1.000  H
  H8       1.0000 0.28350  0.54410  0.08140  Biso   1.000  H
  C13      1.0000 0.86810  0.29660  0.79360  Biso   1.000  C
  C14      1.0000 0.13190  0.70340  0.20640  Biso   1.000  C
  H9       1.0000 0.79850  0.33490  0.72170  Biso   1.000  H
  H10      1.0000 0.20150  0.66510  0.27830  Biso   1.000  H
  C15      1.0000 0.01900  0.16720  0.78540  Biso   1.000  C
  C16      1.0000 0.98100  0.83280  0.21460  Biso   1.000  C
  H11      1.0000 0.05050  0.11450  0.71000  Biso   1.000  H
  H12      1.0000 0.94950  0.88550  0.29000  Biso   1.000  H
  C17      1.0000 0.12330  0.11630  0.89060  Biso   1.000  C
  C18      1.0000 0.87670  0.88370  0.10940  Biso   1.000  C
  H13      1.0000 0.22610  0.02910  0.88390  Biso   1.000  H
  H14      1.0000 0.77390  0.97090  0.11610  Biso   1.000  H
  C19      1.0000 0.46640  0.81260  0.25110  Biso   1.000  C
  C20      1.0000 0.53360  0.18740  0.74890  Biso   1.000  C
  H15      1.0000 0.50610  0.81140  0.15250  Biso   1.000  H
  H16      1.0000 0.49390  0.18860  0.84750  Biso   1.000  H
  C21      1.0000 0.55850  0.69020  0.34830  Biso   1.000  C
  C22      1.0000 0.44150  0.30980  0.65170  Biso   1.000  C
  C23      1.0000 0.49720  0.69390  0.49520  Biso   1.000  C
  C24      1.0000 0.50280  0.30610  0.50480  Biso   1.000  C
  H17      1.0000 0.55640  0.61520  0.56340  Biso   1.000  H
  H18      1.0000 0.44360  0.38480  0.43660  Biso   1.000  H
  C25      1.0000 0.34800  0.81460  0.53990  Biso   1.000  C
  C26      1.0000 0.65200  0.18540  0.46010  Biso   1.000  C
  H19      1.0000 0.30450  0.81790  0.63790  Biso   1.000  H
  H20      1.0000 0.69550  0.18210  0.36210  Biso   1.000  H
  C27      1.0000 0.26490  0.93050  0.43550  Biso   1.000  C
  C28      1.0000 0.73510  0.06950  0.56450  Biso   1.000  C
  H21      1.0000 0.16360  0.01110  0.46560  Biso   1.000  H
  H22      1.0000 0.83640  0.98890  0.53440  Biso   1.000  H
