data_image0
_cell_length_a       7.6471
_cell_length_b       9.821
_cell_length_c       11.111
_cell_angle_alpha    70.375
_cell_angle_beta     85.291
_cell_angle_gamma    69.793

_symmetry_space_group_name_H-M    "P 1"
_symmetry_int_tables_number       1

loop_
  _symmetry_equiv_pos_as_xyz
  'x, y, z'

loop_
  _atom_site_label
  _atom_site_occupancy
  _atom_site_fract_x
  _atom_site_fract_y
  _atom_site_fract_z
  _atom_site_thermal_displace_type
  _atom_site_B_iso_or_equiv
  _atom_site_type_symbol
  Cu1      1.0000 0.50629  0.23347  0.68741  Biso   1.000  Cu
  Cu2      1.0000 0.49371  0.76653  0.31259  Biso   1.000  Cu
  Cu3      1.0000 0.74914  0.41365  0.53654  Biso   1.000  Cu
  Cu4      1.0000 0.25086  0.58635  0.46346  Biso   1.000  Cu
  Cl1      1.0000 0.82470  0.19458  0.71546  Biso   1.000  Cl
  Cl2      1.0000 0.17530  0.80542  0.28454  Biso   1.000  Cl
  Cl3      1.0000 0.43411  0.34845  0.47084  Biso   1.000  Cl
  Cl4      1.0000 0.56589  0.65155  0.52916  Biso   1.000  Cl
  N1       1.0000 0.38990  0.26730  0.85530  Biso   1.000  N
  N2       1.0000 0.61010  0.73270  0.14470  Biso   1.000  N
  N3       1.0000 0.32750  0.38810  0.01580  Biso   1.000  N
  N4       1.0000 0.67250  0.61190  0.98420  Biso   1.000  N
  N5       1.0000 0.49790  0.46240  0.84240  Biso   1.000  N
  N6       1.0000 0.50210  0.53760  0.15760  Biso   1.000  N
  H1       1.0000 0.50740  0.53100  0.87080  Biso   1.000  H
  H2       1.0000 0.49260  0.46900  0.12920  Biso   1.000  H
  H3       1.0000 0.54880  0.45330  0.77230  Biso   1.000  H
  H4       1.0000 0.45120  0.54670  0.22770  Biso   1.000  H
  N7       1.0000 0.38070  0.06510  0.75200  Biso   1.000  N
  N8       1.0000 0.61930  0.93490  0.24800  Biso   1.000  N
  N9       1.0000 0.94270  0.37220  0.40720  Biso   1.000  N
  N10      1.0000 0.05730  0.62780  0.59280  Biso   1.000  N
  C1       1.0000 0.40460  0.37020  0.90700  Biso   1.000  C
  C2       1.0000 0.59540  0.62980  0.09300  Biso   1.000  C
  C3       1.0000 0.24290  0.28860  0.08200  Biso   1.000  C
  C4       1.0000 0.75710  0.71140  0.91800  Biso   1.000  C
  C5       1.0000 0.23620  0.17100  0.04190  Biso   1.000  C
  C6       1.0000 0.76380  0.82900  0.95810  Biso   1.000  C
  H5       1.0000 0.18470  0.09830  0.09170  Biso   1.000  H
  H6       1.0000 0.81530  0.90170  0.90830  Biso   1.000  H
  C7       1.0000 0.30950  0.16660  0.92460  Biso   1.000  C
  C8       1.0000 0.69050  0.83340  0.07540  Biso   1.000  C
  C9       1.0000 0.30490  0.05070  0.86680  Biso   1.000  C
  C10      1.0000 0.69510  0.94930  0.13320  Biso   1.000  C
  C11      1.0000 0.23540  0.93340  0.92840  Biso   1.000  C
  C12      1.0000 0.76460  0.06660  0.07160  Biso   1.000  C
  H7       1.0000 0.18810  0.92350  0.00950  Biso   1.000  H
  H8       1.0000 0.81190  0.07650  0.99050  Biso   1.000  H
  C13      1.0000 0.23740  0.83090  0.86730  Biso   1.000  C
  C14      1.0000 0.76260  0.16910  0.13270  Biso   1.000  C
  H9       1.0000 0.19170  0.75090  0.90680  Biso   1.000  H
  H10      1.0000 0.80830  0.24910  0.09320  Biso   1.000  H
  C15      1.0000 0.30820  0.84950  0.74700  Biso   1.000  C
  C16      1.0000 0.69180  0.15050  0.25300  Biso   1.000  C
  H11      1.0000 0.30920  0.78330  0.70340  Biso   1.000  H
  H12      1.0000 0.69080  0.21670  0.29660  Biso   1.000  H
  C17      1.0000 0.37690  0.96670  0.69290  Biso   1.000  C
  C18      1.0000 0.62310  0.03330  0.30710  Biso   1.000  C
  H13      1.0000 0.42320  0.97930  0.61130  Biso   1.000  H
  H14      1.0000 0.57680  0.02070  0.38870  Biso   1.000  H
  C19      1.0000 0.97820  0.48480  0.31250  Biso   1.000  C
  C20      1.0000 0.02180  0.51520  0.68750  Biso   1.000  C
  H15      1.0000 0.93250  0.58370  0.31710  Biso   1.000  H
  H16      1.0000 0.06750  0.41630  0.68290  Biso   1.000  H
  C21      1.0000 0.07880  0.46160  0.20870  Biso   1.000  C
  C22      1.0000 0.92120  0.53840  0.79130  Biso   1.000  C
  H17      1.0000 0.09980  0.54350  0.14470  Biso   1.000  H
  H18      1.0000 0.90020  0.45650  0.85530  Biso   1.000  H
  C23      1.0000 0.14910  0.31460  0.20000  Biso   1.000  C
  C24      1.0000 0.85090  0.68540  0.80000  Biso   1.000  C
  C25      1.0000 0.11920  0.19660  0.30050  Biso   1.000  C
  C26      1.0000 0.88080  0.80340  0.69950  Biso   1.000  C
  H19      1.0000 0.16620  0.09600  0.29960  Biso   1.000  H
  H20      1.0000 0.83380  0.90400  0.70040  Biso   1.000  H
  C27      1.0000 0.01880  0.22990  0.40190  Biso   1.000  C
  C28      1.0000 0.98120  0.77010  0.59810  Biso   1.000  C
  H21      1.0000 0.00330  0.14910  0.47020  Biso   1.000  H
  H22      1.0000 0.99670  0.85090  0.52980  Biso   1.000  H
