data_image0
_cell_length_a       13.515
_cell_length_b       20.493
_cell_length_c       23.248
_cell_angle_alpha    90
_cell_angle_beta     90
_cell_angle_gamma    90

_symmetry_space_group_name_H-M    "P 1"
_symmetry_int_tables_number       1

loop_
  _symmetry_equiv_pos_as_xyz
  'x, y, z'

loop_
  _atom_site_label
  _atom_site_occupancy
  _atom_site_fract_x
  _atom_site_fract_y
  _atom_site_fract_z
  _atom_site_thermal_displace_type
  _atom_site_B_iso_or_equiv
  _atom_site_type_symbol
  Rb1      1.0000 0.87619  0.97774  0.18296  Biso   1.000  Rb
  Rb2      1.0000 0.62381  0.02226  0.68296  Biso   1.000  Rb
  Rb3      1.0000 0.12381  0.47774  0.31704  Biso   1.000  Rb
  Rb4      1.0000 0.37619  0.52226  0.81704  Biso   1.000  Rb
  Rb5      1.0000 0.60719  0.47798  0.17386  Biso   1.000  Rb
  Rb6      1.0000 0.89281  0.52202  0.67386  Biso   1.000  Rb
  Rb7      1.0000 0.39281  0.97798  0.32614  Biso   1.000  Rb
  Rb8      1.0000 0.10719  0.02202  0.82614  Biso   1.000  Rb
  Rb9      1.0000 0.63866  0.47373  0.40168  Biso   1.000  Rb
  Rb10     1.0000 0.86134  0.52627  0.90168  Biso   1.000  Rb
  Rb11     1.0000 0.36134  0.97373  0.09832  Biso   1.000  Rb
  Rb12     1.0000 0.13866  0.02627  0.59832  Biso   1.000  Rb
  Cu1      1.0000 0.89859  0.17881  0.36352  Biso   1.000  Cu
  Cu2      1.0000 0.60141  0.82119  0.86352  Biso   1.000  Cu
  Cu3      1.0000 0.10141  0.67881  0.13648  Biso   1.000  Cu
  Cu4      1.0000 0.39859  0.32119  0.63648  Biso   1.000  Cu
  Cu5      1.0000 0.87012  0.78881  0.41294  Biso   1.000  Cu
  Cu6      1.0000 0.62988  0.21119  0.91294  Biso   1.000  Cu
  Cu7      1.0000 0.12988  0.28881  0.08706  Biso   1.000  Cu
  Cu8      1.0000 0.37012  0.71119  0.58706  Biso   1.000  Cu
  O1       1.0000 0.03020  0.07030  0.20470  Biso   1.000  O
  O2       1.0000 0.46980  0.92970  0.70470  Biso   1.000  O
  O3       1.0000 0.96980  0.57030  0.29530  Biso   1.000  O
  O4       1.0000 0.53020  0.42970  0.79530  Biso   1.000  O
  O5       1.0000 0.06600  0.93550  0.22850  Biso   1.000  O
  O6       1.0000 0.43400  0.06450  0.72850  Biso   1.000  O
  O7       1.0000 0.93400  0.43550  0.27150  Biso   1.000  O
  O8       1.0000 0.56600  0.56450  0.77150  Biso   1.000  O
  O9       1.0000 0.91570  0.84190  0.20500  Biso   1.000  O
  O10      1.0000 0.58430  0.15810  0.70500  Biso   1.000  O
  O11      1.0000 0.08430  0.34190  0.29500  Biso   1.000  O
  O12      1.0000 0.41570  0.65810  0.79500  Biso   1.000  O
  O13      1.0000 0.72080  0.88780  0.21770  Biso   1.000  O
  O14      1.0000 0.77920  0.11220  0.71770  Biso   1.000  O
  O15      1.0000 0.27920  0.38780  0.28230  Biso   1.000  O
  O16      1.0000 0.22080  0.61220  0.78230  Biso   1.000  O
  O17      1.0000 0.67760  0.02240  0.19330  Biso   1.000  O
  O18      1.0000 0.82240  0.97760  0.69330  Biso   1.000  O
  O19      1.0000 0.32240  0.52240  0.30670  Biso   1.000  O
  O20      1.0000 0.17760  0.47760  0.80670  Biso   1.000  O
  O21      1.0000 0.83340  0.11350  0.21160  Biso   1.000  O
  O22      1.0000 0.66660  0.88650  0.71160  Biso   1.000  O
  O23      1.0000 0.16660  0.61350  0.28840  Biso   1.000  O
  O24      1.0000 0.33340  0.38650  0.78840  Biso   1.000  O
  O25      1.0000 0.44830  0.55750  0.12490  Biso   1.000  O
  O26      1.0000 0.05170  0.44250  0.62490  Biso   1.000  O
  O27      1.0000 0.55170  0.05750  0.37510  Biso   1.000  O
  O28      1.0000 0.94830  0.94250  0.87510  Biso   1.000  O
  O29      1.0000 0.42090  0.42790  0.12650  Biso   1.000  O
  O30      1.0000 0.07910  0.57210  0.62650  Biso   1.000  O
  O31      1.0000 0.57910  0.92790  0.37350  Biso   1.000  O
  O32      1.0000 0.92090  0.07210  0.87350  Biso   1.000  O
  O33      1.0000 0.57630  0.34160  0.13620  Biso   1.000  O
  O34      1.0000 0.92370  0.65840  0.63620  Biso   1.000  O
  O35      1.0000 0.42370  0.84160  0.36380  Biso   1.000  O
  O36      1.0000 0.07630  0.15840  0.86380  Biso   1.000  O
  O37      1.0000 0.76010  0.39640  0.11260  Biso   1.000  O
  O38      1.0000 0.73990  0.60360  0.61260  Biso   1.000  O
  O39      1.0000 0.23990  0.89640  0.38740  Biso   1.000  O
  O40      1.0000 0.26010  0.10360  0.88740  Biso   1.000  O
  O41      1.0000 0.79380  0.53100  0.12820  Biso   1.000  O
  O42      1.0000 0.70620  0.46900  0.62820  Biso   1.000  O
  O43      1.0000 0.20620  0.03100  0.37180  Biso   1.000  O
  O44      1.0000 0.29380  0.96900  0.87180  Biso   1.000  O
  O45      1.0000 0.63220  0.61550  0.11880  Biso   1.000  O
  O46      1.0000 0.86780  0.38450  0.61880  Biso   1.000  O
  O47      1.0000 0.36780  0.11550  0.38120  Biso   1.000  O
  O48      1.0000 0.13220  0.88450  0.88120  Biso   1.000  O
  O49      1.0000 0.69660  0.60460  0.43930  Biso   1.000  O
  O50      1.0000 0.80340  0.39540  0.93930  Biso   1.000  O
  O51      1.0000 0.30340  0.10460  0.06070  Biso   1.000  O
  O52      1.0000 0.19660  0.89540  0.56070  Biso   1.000  O
  O53      1.0000 0.84890  0.51130  0.43300  Biso   1.000  O
  O54      1.0000 0.65110  0.48870  0.93300  Biso   1.000  O
  O55      1.0000 0.15110  0.01130  0.06700  Biso   1.000  O
  O56      1.0000 0.34890  0.98870  0.56700  Biso   1.000  O
  O57      1.0000 0.78370  0.38570  0.45540  Biso   1.000  O
  O58      1.0000 0.71630  0.61430  0.95540  Biso   1.000  O
  O59      1.0000 0.21630  0.88570  0.04460  Biso   1.000  O
  O60      1.0000 0.28370  0.11430  0.54460  Biso   1.000  O
  O61      1.0000 0.59550  0.34090  0.46540  Biso   1.000  O
  O62      1.0000 0.90450  0.65910  0.96540  Biso   1.000  O
  O63      1.0000 0.40450  0.84090  0.03460  Biso   1.000  O
  O64      1.0000 0.09550  0.15910  0.53460  Biso   1.000  O
  O65      1.0000 0.44530  0.43350  0.45470  Biso   1.000  O
  O66      1.0000 0.05470  0.56650  0.95470  Biso   1.000  O
  O67      1.0000 0.55470  0.93350  0.04530  Biso   1.000  O
  O68      1.0000 0.94530  0.06650  0.54530  Biso   1.000  O
  O69      1.0000 0.50530  0.56290  0.46640  Biso   1.000  O
  O70      1.0000 0.99470  0.43710  0.96640  Biso   1.000  O
  O71      1.0000 0.49470  0.06290  0.03360  Biso   1.000  O
  O72      1.0000 0.00530  0.93710  0.53360  Biso   1.000  O
  N1       1.0000 0.87600  0.97580  0.32020  Biso   1.000  N
  N2       1.0000 0.62400  0.02420  0.82020  Biso   1.000  N
  N3       1.0000 0.12400  0.47580  0.17980  Biso   1.000  N
  N4       1.0000 0.37600  0.52420  0.67980  Biso   1.000  N
  N5       1.0000 0.89710  0.08510  0.35670  Biso   1.000  N
  N6       1.0000 0.60290  0.91490  0.85670  Biso   1.000  N
  N7       1.0000 0.10290  0.58510  0.14330  Biso   1.000  N
  N8       1.0000 0.39710  0.41490  0.64330  Biso   1.000  N
  N9       1.0000 0.88820  0.87430  0.37350  Biso   1.000  N
  N10      1.0000 0.61180  0.12570  0.87350  Biso   1.000  N
  N11      1.0000 0.11180  0.37430  0.12650  Biso   1.000  N
  N12      1.0000 0.38820  0.62570  0.62650  Biso   1.000  N
  N13      1.0000 0.66030  0.68080  0.30120  Biso   1.000  N
  N14      1.0000 0.83970  0.31920  0.80120  Biso   1.000  N
  N15      1.0000 0.33970  0.18080  0.19880  Biso   1.000  N
  N16      1.0000 0.16030  0.81920  0.69880  Biso   1.000  N
  N17      1.0000 0.62230  0.56550  0.29060  Biso   1.000  N
  N18      1.0000 0.87770  0.43450  0.79060  Biso   1.000  N
  N19      1.0000 0.37770  0.06550  0.20940  Biso   1.000  N
  N20      1.0000 0.12230  0.93450  0.70940  Biso   1.000  N
  N21      1.0000 0.78600  0.73310  0.36040  Biso   1.000  N
  N22      1.0000 0.71400  0.26690  0.86040  Biso   1.000  N
  N23      1.0000 0.21400  0.23310  0.13960  Biso   1.000  N
  N24      1.0000 0.28600  0.76690  0.63960  Biso   1.000  N
  N25      1.0000 0.64460  0.27270  0.27990  Biso   1.000  N
  N26      1.0000 0.85540  0.72730  0.77990  Biso   1.000  N
  N27      1.0000 0.35540  0.77270  0.22010  Biso   1.000  N
  N28      1.0000 0.14460  0.22730  0.72010  Biso   1.000  N
  N29      1.0000 0.61750  0.38930  0.28410  Biso   1.000  N
  N30      1.0000 0.88250  0.61070  0.78410  Biso   1.000  N
  N31      1.0000 0.38250  0.88930  0.21590  Biso   1.000  N
  N32      1.0000 0.11750  0.11070  0.71590  Biso   1.000  N
  N33      1.0000 0.78470  0.21880  0.32670  Biso   1.000  N
  N34      1.0000 0.71530  0.78120  0.82670  Biso   1.000  N
  N35      1.0000 0.21530  0.71880  0.17330  Biso   1.000  N
  N36      1.0000 0.28470  0.28120  0.67330  Biso   1.000  N
  N37      1.0000 0.12730  0.29420  0.44110  Biso   1.000  N
  N38      1.0000 0.37270  0.70580  0.94110  Biso   1.000  N
  N39      1.0000 0.87270  0.79420  0.05890  Biso   1.000  N
  N40      1.0000 0.62730  0.20580  0.55890  Biso   1.000  N
  N41      1.0000 0.99940  0.22910  0.39820  Biso   1.000  N
  N42      1.0000 0.50060  0.77090  0.89820  Biso   1.000  N
  N43      1.0000 0.00060  0.72910  0.10180  Biso   1.000  N
  N44      1.0000 0.49940  0.27090  0.60180  Biso   1.000  N
  N45      1.0000 0.14900  0.41200  0.43800  Biso   1.000  N
  N46      1.0000 0.35100  0.58800  0.93800  Biso   1.000  N
  N47      1.0000 0.85100  0.91200  0.06200  Biso   1.000  N
  N48      1.0000 0.64900  0.08800  0.56200  Biso   1.000  N
  N49      1.0000 0.13320  0.67560  0.46020  Biso   1.000  N
  N50      1.0000 0.36680  0.32440  0.96020  Biso   1.000  N
  N51      1.0000 0.86680  0.17560  0.03980  Biso   1.000  N
  N52      1.0000 0.63320  0.82440  0.53980  Biso   1.000  N
  N53      1.0000 0.99280  0.74400  0.43770  Biso   1.000  N
  N54      1.0000 0.50720  0.25600  0.93770  Biso   1.000  N
  N55      1.0000 0.00720  0.24400  0.06230  Biso   1.000  N
  N56      1.0000 0.49280  0.75600  0.56230  Biso   1.000  N
  N57      1.0000 0.27850  0.69630  0.51790  Biso   1.000  N
  N58      1.0000 0.22150  0.30370  0.01790  Biso   1.000  N
  N59      1.0000 0.72150  0.19630  0.98210  Biso   1.000  N
  N60      1.0000 0.77850  0.80370  0.48210  Biso   1.000  N
  C1       1.0000 0.88800  0.03190  0.34210  Biso   1.000  C
  C2       1.0000 0.61200  0.96810  0.84210  Biso   1.000  C
  C3       1.0000 0.11200  0.53190  0.15790  Biso   1.000  C
  C4       1.0000 0.38800  0.46810  0.65790  Biso   1.000  C
  C5       1.0000 0.88380  0.92320  0.35030  Biso   1.000  C
  C6       1.0000 0.61620  0.07680  0.85030  Biso   1.000  C
  C7       1.0000 0.11620  0.42320  0.14970  Biso   1.000  C
  C8       1.0000 0.38380  0.57680  0.64970  Biso   1.000  C
  C9       1.0000 0.64500  0.61980  0.29810  Biso   1.000  C
  C10      1.0000 0.85500  0.38020  0.79810  Biso   1.000  C
  C11      1.0000 0.35500  0.11980  0.20190  Biso   1.000  C
  C12      1.0000 0.14500  0.88020  0.70190  Biso   1.000  C
  C13      1.0000 0.73030  0.70450  0.33370  Biso   1.000  C
  C14      1.0000 0.76970  0.29550  0.83370  Biso   1.000  C
  C15      1.0000 0.26970  0.20450  0.16630  Biso   1.000  C
  C16      1.0000 0.23030  0.79550  0.66630  Biso   1.000  C
  C17      1.0000 0.63350  0.33420  0.28230  Biso   1.000  C
  C18      1.0000 0.86650  0.66580  0.78230  Biso   1.000  C
  C19      1.0000 0.36650  0.83420  0.21770  Biso   1.000  C
  C20      1.0000 0.13350  0.16580  0.71770  Biso   1.000  C
  C21      1.0000 0.72210  0.24680  0.30680  Biso   1.000  C
  C22      1.0000 0.77790  0.75320  0.80680  Biso   1.000  C
  C23      1.0000 0.27790  0.74680  0.19320  Biso   1.000  C
  C24      1.0000 0.22210  0.25320  0.69320  Biso   1.000  C
  C25      1.0000 0.05700  0.26340  0.41680  Biso   1.000  C
  C26      1.0000 0.44300  0.73660  0.91680  Biso   1.000  C
  C27      1.0000 0.94300  0.76340  0.08320  Biso   1.000  C
  C28      1.0000 0.55700  0.23660  0.58320  Biso   1.000  C
  C29      1.0000 0.13470  0.35510  0.43830  Biso   1.000  C
  C30      1.0000 0.36530  0.64490  0.93830  Biso   1.000  C
  C31      1.0000 0.86530  0.85510  0.06170  Biso   1.000  C
  C32      1.0000 0.63470  0.14490  0.56170  Biso   1.000  C
  C33      1.0000 0.06010  0.71520  0.45000  Biso   1.000  C
  C34      1.0000 0.43990  0.28480  0.95000  Biso   1.000  C
  C35      1.0000 0.93990  0.21520  0.05000  Biso   1.000  C
  C36      1.0000 0.56010  0.78480  0.55000  Biso   1.000  C
  C37      1.0000 0.21150  0.69050  0.49250  Biso   1.000  C
  C38      1.0000 0.28850  0.30950  0.99250  Biso   1.000  C
  C39      1.0000 0.78850  0.19050  0.00750  Biso   1.000  C
  C40      1.0000 0.71150  0.80950  0.50750  Biso   1.000  C
  C41      1.0000 0.11200  0.04700  0.23660  Biso   1.000  C
  C42      1.0000 0.38800  0.95300  0.73660  Biso   1.000  C
  C43      1.0000 0.88800  0.54700  0.26340  Biso   1.000  C
  C44      1.0000 0.61200  0.45300  0.76340  Biso   1.000  C
  H1       1.0000 0.09530  0.04380  0.27670  Biso   1.000  H
  H2       1.0000 0.40470  0.95620  0.77670  Biso   1.000  H
  H3       1.0000 0.90470  0.54380  0.22330  Biso   1.000  H
  H4       1.0000 0.59530  0.45620  0.72330  Biso   1.000  H
  H5       1.0000 0.16640  0.07670  0.23250  Biso   1.000  H
  H6       1.0000 0.33360  0.92330  0.73250  Biso   1.000  H
  H7       1.0000 0.83360  0.57670  0.26750  Biso   1.000  H
  H8       1.0000 0.66640  0.42330  0.76750  Biso   1.000  H
  C45      1.0000 0.13880  0.98170  0.21510  Biso   1.000  C
  C46      1.0000 0.36120  0.01830  0.71510  Biso   1.000  C
  C47      1.0000 0.86120  0.48170  0.28490  Biso   1.000  C
  C48      1.0000 0.63880  0.51830  0.78490  Biso   1.000  C
  H9       1.0000 0.14560  0.98410  0.17410  Biso   1.000  H
  H10      1.0000 0.35440  0.01590  0.67410  Biso   1.000  H
  H11      1.0000 0.85440  0.48410  0.32590  Biso   1.000  H
  H12      1.0000 0.64560  0.51590  0.82590  Biso   1.000  H
  H13      1.0000 0.20080  0.96760  0.23100  Biso   1.000  H
  H14      1.0000 0.29920  0.03240  0.73100  Biso   1.000  H
  H15      1.0000 0.79920  0.46760  0.26900  Biso   1.000  H
  H16      1.0000 0.70080  0.53240  0.76900  Biso   1.000  H
  C49      1.0000 0.08690  0.87270  0.21000  Biso   1.000  C
  C50      1.0000 0.41310  0.12730  0.71000  Biso   1.000  C
  C51      1.0000 0.91310  0.37270  0.29000  Biso   1.000  C
  C52      1.0000 0.58690  0.62730  0.79000  Biso   1.000  C
  H17      1.0000 0.15080  0.85960  0.22380  Biso   1.000  H
  H18      1.0000 0.34920  0.14040  0.72380  Biso   1.000  H
  H19      1.0000 0.84920  0.35960  0.27620  Biso   1.000  H
  H20      1.0000 0.65080  0.64040  0.77620  Biso   1.000  H
  H21      1.0000 0.08760  0.87090  0.16870  Biso   1.000  H
  H22      1.0000 0.41240  0.12910  0.66870  Biso   1.000  H
  H23      1.0000 0.91240  0.37090  0.33130  Biso   1.000  H
  H24      1.0000 0.58760  0.62910  0.83130  Biso   1.000  H
  C53      1.0000 0.01010  0.82660  0.23060  Biso   1.000  C
  C54      1.0000 0.48990  0.17340  0.73060  Biso   1.000  C
  C55      1.0000 0.98990  0.32660  0.26940  Biso   1.000  C
  C56      1.0000 0.51010  0.67340  0.76940  Biso   1.000  C
  H25      1.0000 0.02820  0.78220  0.22300  Biso   1.000  H
  H26      1.0000 0.47180  0.21780  0.72300  Biso   1.000  H
  H27      1.0000 0.97180  0.28220  0.27700  Biso   1.000  H
  H28      1.0000 0.52820  0.71780  0.77700  Biso   1.000  H
  H29      1.0000 0.00460  0.83210  0.27140  Biso   1.000  H
  H30      1.0000 0.49540  0.16790  0.77140  Biso   1.000  H
  H31      1.0000 0.99540  0.33210  0.22860  Biso   1.000  H
  H32      1.0000 0.50460  0.66790  0.72860  Biso   1.000  H
  C57      1.0000 0.83730  0.80370  0.22740  Biso   1.000  C
  C58      1.0000 0.66270  0.19630  0.72740  Biso   1.000  C
  C59      1.0000 0.16270  0.30370  0.27260  Biso   1.000  C
  C60      1.0000 0.33730  0.69630  0.77260  Biso   1.000  C
  H33      1.0000 0.83330  0.80740  0.26850  Biso   1.000  H
  H34      1.0000 0.66670  0.19260  0.76850  Biso   1.000  H
  H35      1.0000 0.16670  0.30740  0.23150  Biso   1.000  H
  H36      1.0000 0.33330  0.69260  0.73150  Biso   1.000  H
  H37      1.0000 0.84870  0.75870  0.21810  Biso   1.000  H
  H38      1.0000 0.65130  0.24130  0.71810  Biso   1.000  H
  H39      1.0000 0.15130  0.25870  0.28190  Biso   1.000  H
  H40      1.0000 0.34870  0.74130  0.78190  Biso   1.000  H
  C61      1.0000 0.74120  0.82460  0.20100  Biso   1.000  C
  C62      1.0000 0.75880  0.17540  0.70100  Biso   1.000  C
  C63      1.0000 0.25880  0.32460  0.29900  Biso   1.000  C
  C64      1.0000 0.24120  0.67540  0.79900  Biso   1.000  C
  H41      1.0000 0.74600  0.82250  0.15990  Biso   1.000  H
  H42      1.0000 0.75400  0.17750  0.65990  Biso   1.000  H
  H43      1.0000 0.25400  0.32250  0.34010  Biso   1.000  H
  H44      1.0000 0.24600  0.67750  0.84010  Biso   1.000  H
  H45      1.0000 0.68870  0.79610  0.21300  Biso   1.000  H
  H46      1.0000 0.81130  0.20390  0.71300  Biso   1.000  H
  H47      1.0000 0.31130  0.29610  0.28700  Biso   1.000  H
  H48      1.0000 0.18870  0.70390  0.78700  Biso   1.000  H
  C65      1.0000 0.63600  0.91080  0.19280  Biso   1.000  C
  C66      1.0000 0.86400  0.08920  0.69280  Biso   1.000  C
  C67      1.0000 0.36400  0.41080  0.30720  Biso   1.000  C
  C68      1.0000 0.13600  0.58920  0.80720  Biso   1.000  C
  H49      1.0000 0.58330  0.88100  0.20140  Biso   1.000  H
  H50      1.0000 0.91670  0.11900  0.70140  Biso   1.000  H
  H51      1.0000 0.41670  0.38100  0.29860  Biso   1.000  H
  H52      1.0000 0.08330  0.61900  0.79860  Biso   1.000  H
  H53      1.0000 0.64370  0.91290  0.15180  Biso   1.000  H
  H54      1.0000 0.85630  0.08710  0.65180  Biso   1.000  H
  H55      1.0000 0.35630  0.41290  0.34820  Biso   1.000  H
  H56      1.0000 0.14370  0.58710  0.84820  Biso   1.000  H
  C69      1.0000 0.61060  0.97650  0.21580  Biso   1.000  C
  C70      1.0000 0.88940  0.02350  0.71580  Biso   1.000  C
  C71      1.0000 0.38940  0.47650  0.28420  Biso   1.000  C
  C72      1.0000 0.11060  0.52350  0.78420  Biso   1.000  C
  H57      1.0000 0.54420  0.98840  0.20550  Biso   1.000  H
  H58      1.0000 0.95580  0.01160  0.70550  Biso   1.000  H
  H59      1.0000 0.45580  0.48840  0.29450  Biso   1.000  H
  H60      1.0000 0.04420  0.51160  0.79450  Biso   1.000  H
  H61      1.0000 0.61530  0.97600  0.25700  Biso   1.000  H
  H62      1.0000 0.88470  0.02400  0.75700  Biso   1.000  H
  H63      1.0000 0.38470  0.47600  0.24300  Biso   1.000  H
  H64      1.0000 0.11530  0.52400  0.74300  Biso   1.000  H
  C73      1.0000 0.66280  0.08550  0.21470  Biso   1.000  C
  C74      1.0000 0.83720  0.91450  0.71470  Biso   1.000  C
  C75      1.0000 0.33720  0.58550  0.28530  Biso   1.000  C
  C76      1.0000 0.16280  0.41450  0.78530  Biso   1.000  C
  H65      1.0000 0.67130  0.08530  0.25570  Biso   1.000  H
  H66      1.0000 0.82870  0.91470  0.75570  Biso   1.000  H
  H67      1.0000 0.32870  0.58530  0.24430  Biso   1.000  H
  H68      1.0000 0.17130  0.41470  0.74430  Biso   1.000  H
  H69      1.0000 0.59750  0.10120  0.20640  Biso   1.000  H
  H70      1.0000 0.90250  0.89880  0.70640  Biso   1.000  H
  H71      1.0000 0.40250  0.60120  0.29360  Biso   1.000  H
  H72      1.0000 0.09750  0.39880  0.79360  Biso   1.000  H
  C77      1.0000 0.73880  0.13070  0.19070  Biso   1.000  C
  C78      1.0000 0.76120  0.86930  0.69070  Biso   1.000  C
  C79      1.0000 0.26120  0.63070  0.30930  Biso   1.000  C
  C80      1.0000 0.23880  0.36930  0.80930  Biso   1.000  C
  H73      1.0000 0.73850  0.12600  0.14960  Biso   1.000  H
  H74      1.0000 0.76150  0.87400  0.64960  Biso   1.000  H
  H75      1.0000 0.26150  0.62600  0.35040  Biso   1.000  H
  H76      1.0000 0.23850  0.37400  0.85040  Biso   1.000  H
  H77      1.0000 0.72440  0.17540  0.19990  Biso   1.000  H
  H78      1.0000 0.77560  0.82460  0.69990  Biso   1.000  H
  H79      1.0000 0.27560  0.67540  0.30010  Biso   1.000  H
  H80      1.0000 0.22440  0.32460  0.80010  Biso   1.000  H
  C81      1.0000 0.90840  0.15270  0.19040  Biso   1.000  C
  C82      1.0000 0.59160  0.84730  0.69040  Biso   1.000  C
  C83      1.0000 0.09160  0.65270  0.30960  Biso   1.000  C
  C84      1.0000 0.40840  0.34730  0.80960  Biso   1.000  C
  H81      1.0000 0.89180  0.19780  0.19590  Biso   1.000  H
  H82      1.0000 0.60820  0.80220  0.69590  Biso   1.000  H
  H83      1.0000 0.10820  0.69780  0.30410  Biso   1.000  H
  H84      1.0000 0.39180  0.30220  0.80410  Biso   1.000  H
  H85      1.0000 0.91510  0.14490  0.14980  Biso   1.000  H
  H86      1.0000 0.58490  0.85510  0.64980  Biso   1.000  H
  H87      1.0000 0.08490  0.64490  0.35020  Biso   1.000  H
  H88      1.0000 0.41510  0.35510  0.85020  Biso   1.000  H
  C85      1.0000 0.00580  0.13620  0.21940  Biso   1.000  C
  C86      1.0000 0.49420  0.86380  0.71940  Biso   1.000  C
  C87      1.0000 0.99420  0.63620  0.28060  Biso   1.000  C
  C88      1.0000 0.50580  0.36380  0.78060  Biso   1.000  C
  H89      1.0000 0.05650  0.16570  0.20670  Biso   1.000  H
  H90      1.0000 0.44350  0.83430  0.70670  Biso   1.000  H
  H91      1.0000 0.94350  0.66570  0.29330  Biso   1.000  H
  H92      1.0000 0.55650  0.33430  0.79330  Biso   1.000  H
  H93      1.0000 0.99860  0.14050  0.26030  Biso   1.000  H
  H94      1.0000 0.50140  0.85950  0.76030  Biso   1.000  H
  H95      1.0000 0.00140  0.64050  0.23970  Biso   1.000  H
  H96      1.0000 0.49860  0.35950  0.73970  Biso   1.000  H
  C89      1.0000 0.36760  0.52680  0.09640  Biso   1.000  C
  C90      1.0000 0.13240  0.47320  0.59640  Biso   1.000  C
  C91      1.0000 0.63240  0.02680  0.40360  Biso   1.000  C
  C92      1.0000 0.86760  0.97320  0.90360  Biso   1.000  C
  H97      1.0000 0.37300  0.53900  0.05670  Biso   1.000  H
  H98      1.0000 0.12700  0.46100  0.55670  Biso   1.000  H
  H99      1.0000 0.62700  0.03900  0.44330  Biso   1.000  H
  H100     1.0000 0.87300  0.96100  0.94330  Biso   1.000  H
  H101     1.0000 0.30930  0.54760  0.11140  Biso   1.000  H
  H102     1.0000 0.19070  0.45240  0.61140  Biso   1.000  H
  H103     1.0000 0.69070  0.04760  0.38860  Biso   1.000  H
  H104     1.0000 0.80930  0.95240  0.88860  Biso   1.000  H
  C93      1.0000 0.36870  0.45860  0.10100  Biso   1.000  C
  C94      1.0000 0.13130  0.54140  0.60100  Biso   1.000  C
  C95      1.0000 0.63130  0.95860  0.39900  Biso   1.000  C
  C96      1.0000 0.86870  0.04140  0.89900  Biso   1.000  C
  H105     1.0000 0.30670  0.45160  0.12010  Biso   1.000  H
  H106     1.0000 0.19330  0.54840  0.62010  Biso   1.000  H
  H107     1.0000 0.69330  0.95160  0.37990  Biso   1.000  H
  H108     1.0000 0.80670  0.04840  0.87990  Biso   1.000  H
  H109     1.0000 0.36040  0.44380  0.06210  Biso   1.000  H
  H110     1.0000 0.13960  0.55620  0.56210  Biso   1.000  H
  H111     1.0000 0.63960  0.94380  0.43790  Biso   1.000  H
  H112     1.0000 0.86040  0.05620  0.93790  Biso   1.000  H
  C97      1.0000 0.40810  0.36260  0.13790  Biso   1.000  C
  C98      1.0000 0.09190  0.63740  0.63790  Biso   1.000  C
  C99      1.0000 0.59190  0.86260  0.36210  Biso   1.000  C
  C100     1.0000 0.90810  0.13740  0.86210  Biso   1.000  C
  H113     1.0000 0.34390  0.34690  0.12710  Biso   1.000  H
  H114     1.0000 0.15610  0.65310  0.62710  Biso   1.000  H
  H115     1.0000 0.65610  0.84690  0.37290  Biso   1.000  H
  H116     1.0000 0.84390  0.15310  0.87290  Biso   1.000  H
  H117     1.0000 0.41310  0.35960  0.17900  Biso   1.000  H
  H118     1.0000 0.08690  0.64040  0.67900  Biso   1.000  H
  H119     1.0000 0.58690  0.85960  0.32100  Biso   1.000  H
  H120     1.0000 0.91310  0.14040  0.82100  Biso   1.000  H
  C101     1.0000 0.48380  0.32180  0.11420  Biso   1.000  C
  C102     1.0000 0.01620  0.67820  0.61420  Biso   1.000  C
  C103     1.0000 0.51620  0.82180  0.38580  Biso   1.000  C
  C104     1.0000 0.98380  0.17820  0.88580  Biso   1.000  C
  H121     1.0000 0.47100  0.27710  0.12400  Biso   1.000  H
  H122     1.0000 0.02900  0.72290  0.62400  Biso   1.000  H
  H123     1.0000 0.52900  0.77710  0.37600  Biso   1.000  H
  H124     1.0000 0.97100  0.22290  0.87600  Biso   1.000  H
  H125     1.0000 0.48270  0.32600  0.07310  Biso   1.000  H
  H126     1.0000 0.01730  0.67400  0.57310  Biso   1.000  H
  H127     1.0000 0.51730  0.82600  0.42690  Biso   1.000  H
  H128     1.0000 0.98270  0.17400  0.92690  Biso   1.000  H
  C105     1.0000 0.65550  0.30370  0.11360  Biso   1.000  C
  C106     1.0000 0.84450  0.69630  0.61360  Biso   1.000  C
  C107     1.0000 0.34450  0.80370  0.38640  Biso   1.000  C
  C108     1.0000 0.15550  0.19630  0.88640  Biso   1.000  C
  H129     1.0000 0.65490  0.30500  0.07230  Biso   1.000  H
  H130     1.0000 0.84510  0.69500  0.57230  Biso   1.000  H
  H131     1.0000 0.34510  0.80500  0.42770  Biso   1.000  H
  H132     1.0000 0.15490  0.19500  0.92770  Biso   1.000  H
  H133     1.0000 0.64870  0.25900  0.12550  Biso   1.000  H
  H134     1.0000 0.85130  0.74100  0.62550  Biso   1.000  H
  H135     1.0000 0.35130  0.75900  0.37450  Biso   1.000  H
  H136     1.0000 0.14870  0.24100  0.87450  Biso   1.000  H
  C109     1.0000 0.74640  0.33000  0.13350  Biso   1.000  C
  C110     1.0000 0.75360  0.67000  0.63350  Biso   1.000  C
  C111     1.0000 0.25360  0.83000  0.36650  Biso   1.000  C
  C112     1.0000 0.24640  0.17000  0.86650  Biso   1.000  C
  H137     1.0000 0.74550  0.33050  0.17480  Biso   1.000  H
  H138     1.0000 0.75450  0.66950  0.67480  Biso   1.000  H
  H139     1.0000 0.25450  0.83050  0.32520  Biso   1.000  H
  H140     1.0000 0.24550  0.16950  0.82520  Biso   1.000  H
  H141     1.0000 0.80070  0.30320  0.12120  Biso   1.000  H
  H142     1.0000 0.69930  0.69680  0.62120  Biso   1.000  H
  H143     1.0000 0.19930  0.80320  0.37880  Biso   1.000  H
  H144     1.0000 0.30070  0.19680  0.87880  Biso   1.000  H
  C113     1.0000 0.84900  0.41870  0.12490  Biso   1.000  C
  C114     1.0000 0.65100  0.58130  0.62490  Biso   1.000  C
  C115     1.0000 0.15100  0.91870  0.37510  Biso   1.000  C
  C116     1.0000 0.34900  0.08130  0.87510  Biso   1.000  C
  H145     1.0000 0.89630  0.39040  0.10680  Biso   1.000  H
  H146     1.0000 0.60370  0.60960  0.60680  Biso   1.000  H
  H147     1.0000 0.10370  0.89040  0.39320  Biso   1.000  H
  H148     1.0000 0.39630  0.10960  0.89320  Biso   1.000  H
  H149     1.0000 0.86110  0.41840  0.16560  Biso   1.000  H
  H150     1.0000 0.63890  0.58160  0.66560  Biso   1.000  H
  H151     1.0000 0.13890  0.91840  0.33440  Biso   1.000  H
  H152     1.0000 0.36110  0.08160  0.83440  Biso   1.000  H
  C117     1.0000 0.86060  0.48820  0.09870  Biso   1.000  C
  C118     1.0000 0.63940  0.51180  0.59870  Biso   1.000  C
  C119     1.0000 0.13940  0.98820  0.40130  Biso   1.000  C
  C120     1.0000 0.36060  0.01180  0.90130  Biso   1.000  C
  H153     1.0000 0.92710  0.50320  0.10450  Biso   1.000  H
  H154     1.0000 0.57290  0.49680  0.60450  Biso   1.000  H
  H155     1.0000 0.07290  0.00320  0.39550  Biso   1.000  H
  H156     1.0000 0.42710  0.99680  0.89550  Biso   1.000  H
  H157     1.0000 0.84730  0.48840  0.05810  Biso   1.000  H
  H158     1.0000 0.65270  0.51160  0.55810  Biso   1.000  H
  H159     1.0000 0.15270  0.98840  0.44190  Biso   1.000  H
  H160     1.0000 0.34730  0.01160  0.94190  Biso   1.000  H
  C121     1.0000 0.80240  0.59390  0.11040  Biso   1.000  C
  C122     1.0000 0.69760  0.40610  0.61040  Biso   1.000  C
  C123     1.0000 0.19760  0.09390  0.38960  Biso   1.000  C
  C124     1.0000 0.30240  0.90610  0.88960  Biso   1.000  C
  H161     1.0000 0.79180  0.59620  0.06960  Biso   1.000  H
  H162     1.0000 0.70820  0.40380  0.56960  Biso   1.000  H
  H163     1.0000 0.20820  0.09620  0.43040  Biso   1.000  H
  H164     1.0000 0.29180  0.90380  0.93040  Biso   1.000  H
  H165     1.0000 0.86750  0.61030  0.11850  Biso   1.000  H
  H166     1.0000 0.63250  0.38970  0.61850  Biso   1.000  H
  H167     1.0000 0.13250  0.11030  0.38150  Biso   1.000  H
  H168     1.0000 0.36750  0.88970  0.88150  Biso   1.000  H
  C125     1.0000 0.72930  0.63610  0.13780  Biso   1.000  C
  C126     1.0000 0.77070  0.36390  0.63780  Biso   1.000  C
  C127     1.0000 0.27070  0.13610  0.36220  Biso   1.000  C
  C128     1.0000 0.22930  0.86390  0.86220  Biso   1.000  C
  H169     1.0000 0.73480  0.63030  0.17860  Biso   1.000  H
  H170     1.0000 0.76520  0.36970  0.67860  Biso   1.000  H
  H171     1.0000 0.26520  0.13030  0.32140  Biso   1.000  H
  H172     1.0000 0.23480  0.86970  0.82140  Biso   1.000  H
  H173     1.0000 0.73920  0.68140  0.12900  Biso   1.000  H
  H174     1.0000 0.76080  0.31860  0.62900  Biso   1.000  H
  H175     1.0000 0.26080  0.18140  0.37100  Biso   1.000  H
  H176     1.0000 0.23920  0.81860  0.87100  Biso   1.000  H
  C129     1.0000 0.55370  0.64730  0.14410  Biso   1.000  C
  C130     1.0000 0.94630  0.35270  0.64410  Biso   1.000  C
  C131     1.0000 0.44630  0.14730  0.35590  Biso   1.000  C
  C132     1.0000 0.05370  0.85270  0.85590  Biso   1.000  C
  H177     1.0000 0.56260  0.69370  0.14110  Biso   1.000  H
  H178     1.0000 0.93740  0.30630  0.64110  Biso   1.000  H
  H179     1.0000 0.43740  0.19370  0.35890  Biso   1.000  H
  H180     1.0000 0.06260  0.80630  0.85890  Biso   1.000  H
  H181     1.0000 0.55070  0.63580  0.18410  Biso   1.000  H
  H182     1.0000 0.94930  0.36420  0.68410  Biso   1.000  H
  H183     1.0000 0.44930  0.13580  0.31590  Biso   1.000  H
  H184     1.0000 0.05070  0.86420  0.81590  Biso   1.000  H
  C133     1.0000 0.45980  0.62630  0.11750  Biso   1.000  C
  C134     1.0000 0.04020  0.37370  0.61750  Biso   1.000  C
  C135     1.0000 0.54020  0.12630  0.38250  Biso   1.000  C
  C136     1.0000 0.95980  0.87370  0.88250  Biso   1.000  C
  H185     1.0000 0.40370  0.64920  0.13280  Biso   1.000  H
  H186     1.0000 0.09630  0.35080  0.63280  Biso   1.000  H
  H187     1.0000 0.59630  0.14920  0.36720  Biso   1.000  H
  H188     1.0000 0.90370  0.85080  0.86720  Biso   1.000  H
  H189     1.0000 0.46450  0.63530  0.07710  Biso   1.000  H
  H190     1.0000 0.03550  0.36470  0.57710  Biso   1.000  H
  H191     1.0000 0.53550  0.13530  0.42290  Biso   1.000  H
  H192     1.0000 0.96450  0.86470  0.92290  Biso   1.000  H
  C137     1.0000 0.79280  0.61670  0.46370  Biso   1.000  C
  C138     1.0000 0.70720  0.38330  0.96370  Biso   1.000  C
  C139     1.0000 0.20720  0.11670  0.03630  Biso   1.000  C
  C140     1.0000 0.29280  0.88330  0.53630  Biso   1.000  C
  H193     1.0000 0.79510  0.60160  0.50280  Biso   1.000  H
  H194     1.0000 0.70490  0.39840  0.00280  Biso   1.000  H
  H195     1.0000 0.20490  0.10160  0.99720  Biso   1.000  H
  H196     1.0000 0.29510  0.89840  0.49720  Biso   1.000  H
  H197     1.0000 0.80680  0.66260  0.46330  Biso   1.000  H
  H198     1.0000 0.69320  0.33740  0.96330  Biso   1.000  H
  H199     1.0000 0.19320  0.16260  0.03670  Biso   1.000  H
  H200     1.0000 0.30680  0.83740  0.53670  Biso   1.000  H
  C141     1.0000 0.86660  0.57960  0.43100  Biso   1.000  C
  C142     1.0000 0.63340  0.42040  0.93100  Biso   1.000  C
  C143     1.0000 0.13340  0.07960  0.06900  Biso   1.000  C
  C144     1.0000 0.36660  0.92040  0.56900  Biso   1.000  C
  H201     1.0000 0.86210  0.59380  0.39180  Biso   1.000  H
  H202     1.0000 0.63790  0.40620  0.89180  Biso   1.000  H
  H203     1.0000 0.13790  0.09380  0.10820  Biso   1.000  H
  H204     1.0000 0.36210  0.90620  0.60820  Biso   1.000  H
  H205     1.0000 0.93210  0.58890  0.44470  Biso   1.000  H
  H206     1.0000 0.56790  0.41110  0.94470  Biso   1.000  H
  H207     1.0000 0.06790  0.08890  0.05530  Biso   1.000  H
  H208     1.0000 0.43210  0.91110  0.55530  Biso   1.000  H
  C145     1.0000 0.88310  0.47800  0.47610  Biso   1.000  C
  C146     1.0000 0.61690  0.52200  0.97610  Biso   1.000  C
  C147     1.0000 0.11690  0.97800  0.02390  Biso   1.000  C
  C148     1.0000 0.38310  0.02200  0.52390  Biso   1.000  C
  H209     1.0000 0.84260  0.48820  0.50880  Biso   1.000  H
  H210     1.0000 0.65740  0.51180  0.00880  Biso   1.000  H
  H211     1.0000 0.15740  0.98820  0.99120  Biso   1.000  H
  H212     1.0000 0.34260  0.01180  0.49120  Biso   1.000  H
  H213     1.0000 0.94970  0.49130  0.48460  Biso   1.000  H
  H214     1.0000 0.55030  0.50870  0.98460  Biso   1.000  H
  H215     1.0000 0.05030  0.99130  0.01540  Biso   1.000  H
  H216     1.0000 0.44970  0.00870  0.51540  Biso   1.000  H
  C149     1.0000 0.87850  0.40410  0.46860  Biso   1.000  C
  C150     1.0000 0.62150  0.59590  0.96860  Biso   1.000  C
  C151     1.0000 0.12150  0.90410  0.03140  Biso   1.000  C
  C152     1.0000 0.37850  0.09590  0.53140  Biso   1.000  C
  H217     1.0000 0.92230  0.39300  0.43760  Biso   1.000  H
  H218     1.0000 0.57770  0.60700  0.93760  Biso   1.000  H
  H219     1.0000 0.07770  0.89300  0.06240  Biso   1.000  H
  H220     1.0000 0.42230  0.10700  0.56240  Biso   1.000  H
  H221     1.0000 0.89950  0.38100  0.50240  Biso   1.000  H
  H222     1.0000 0.60050  0.61900  0.00240  Biso   1.000  H
  H223     1.0000 0.10050  0.88100  0.99760  Biso   1.000  H
  H224     1.0000 0.39950  0.11900  0.49760  Biso   1.000  H
  C153     1.0000 0.76750  0.31760  0.46140  Biso   1.000  C
  C154     1.0000 0.73250  0.68240  0.96140  Biso   1.000  C
  C155     1.0000 0.23250  0.81760  0.03860  Biso   1.000  C
  C156     1.0000 0.26750  0.18240  0.53860  Biso   1.000  C
  H225     1.0000 0.77510  0.30430  0.50080  Biso   1.000  H
  H226     1.0000 0.72490  0.69570  0.00080  Biso   1.000  H
  H227     1.0000 0.22490  0.80430  0.99920  Biso   1.000  H
  H228     1.0000 0.27510  0.19570  0.49920  Biso   1.000  H
  H229     1.0000 0.81490  0.29430  0.43850  Biso   1.000  H
  H230     1.0000 0.68510  0.70570  0.93850  Biso   1.000  H
  H231     1.0000 0.18510  0.79430  0.06150  Biso   1.000  H
  H232     1.0000 0.31490  0.20570  0.56150  Biso   1.000  H
  C157     1.0000 0.66460  0.30470  0.44050  Biso   1.000  C
  C158     1.0000 0.83540  0.69530  0.94050  Biso   1.000  C
  C159     1.0000 0.33540  0.80470  0.05950  Biso   1.000  C
  C160     1.0000 0.16460  0.19530  0.55950  Biso   1.000  C
  H233     1.0000 0.66240  0.30990  0.39940  Biso   1.000  H
  H234     1.0000 0.83760  0.69010  0.89940  Biso   1.000  H
  H235     1.0000 0.33760  0.80990  0.10060  Biso   1.000  H
  H236     1.0000 0.16240  0.19010  0.60060  Biso   1.000  H
  H237     1.0000 0.64980  0.25990  0.44890  Biso   1.000  H
  H238     1.0000 0.85020  0.74010  0.94890  Biso   1.000  H
  H239     1.0000 0.35020  0.75990  0.05110  Biso   1.000  H
  H240     1.0000 0.14980  0.24010  0.55110  Biso   1.000  H
  C161     1.0000 0.49830  0.32390  0.44570  Biso   1.000  C
  C162     1.0000 0.00170  0.67610  0.94570  Biso   1.000  C
  C163     1.0000 0.50170  0.82390  0.05430  Biso   1.000  C
  C164     1.0000 0.99830  0.17610  0.55430  Biso   1.000  C
  H241     1.0000 0.48230  0.27920  0.45380  Biso   1.000  H
  H242     1.0000 0.01770  0.72080  0.95380  Biso   1.000  H
  H243     1.0000 0.51770  0.77920  0.04620  Biso   1.000  H
  H244     1.0000 0.98230  0.22080  0.54620  Biso   1.000  H
  H245     1.0000 0.49200  0.33160  0.40520  Biso   1.000  H
  H246     1.0000 0.00800  0.66840  0.90520  Biso   1.000  H
  H247     1.0000 0.50800  0.83160  0.09480  Biso   1.000  H
  H248     1.0000 0.99200  0.16840  0.59480  Biso   1.000  H
  C165     1.0000 0.43330  0.36980  0.47650  Biso   1.000  C
  C166     1.0000 0.06670  0.63020  0.97650  Biso   1.000  C
  C167     1.0000 0.56670  0.86980  0.02350  Biso   1.000  C
  C168     1.0000 0.93330  0.13020  0.52350  Biso   1.000  C
  H249     1.0000 0.36550  0.35630  0.47360  Biso   1.000  H
  H250     1.0000 0.13450  0.64370  0.97360  Biso   1.000  H
  H251     1.0000 0.63450  0.85630  0.02640  Biso   1.000  H
  H252     1.0000 0.86550  0.14370  0.52640  Biso   1.000  H
  H253     1.0000 0.45200  0.36800  0.51630  Biso   1.000  H
  H254     1.0000 0.04800  0.63200  0.01630  Biso   1.000  H
  H255     1.0000 0.54800  0.86800  0.98370  Biso   1.000  H
  H256     1.0000 0.95200  0.13200  0.48370  Biso   1.000  H
  C169     1.0000 0.38860  0.48080  0.48400  Biso   1.000  C
  C170     1.0000 0.11140  0.51920  0.98400  Biso   1.000  C
  C171     1.0000 0.61140  0.98080  0.01600  Biso   1.000  C
  C172     1.0000 0.88860  0.01920  0.51600  Biso   1.000  C
  H257     1.0000 0.40900  0.48330  0.52350  Biso   1.000  H
  H258     1.0000 0.09100  0.51670  0.02350  Biso   1.000  H
  H259     1.0000 0.59100  0.98330  0.97650  Biso   1.000  H
  H260     1.0000 0.90900  0.01670  0.47650  Biso   1.000  H
  H261     1.0000 0.31970  0.46940  0.48280  Biso   1.000  H
  H262     1.0000 0.18030  0.53060  0.98280  Biso   1.000  H
  H263     1.0000 0.68030  0.96940  0.01720  Biso   1.000  H
  H264     1.0000 0.81970  0.03060  0.51720  Biso   1.000  H
  C173     1.0000 0.40750  0.54550  0.45760  Biso   1.000  C
  C174     1.0000 0.09250  0.45450  0.95760  Biso   1.000  C
  C175     1.0000 0.59250  0.04550  0.04240  Biso   1.000  C
  C176     1.0000 0.90750  0.95450  0.54240  Biso   1.000  C
  H265     1.0000 0.39530  0.54130  0.41710  Biso   1.000  H
  H266     1.0000 0.10470  0.45870  0.91710  Biso   1.000  H
  H267     1.0000 0.60470  0.04130  0.08290  Biso   1.000  H
  H268     1.0000 0.89530  0.95870  0.58290  Biso   1.000  H
  H269     1.0000 0.36380  0.57820  0.47280  Biso   1.000  H
  H270     1.0000 0.13620  0.42180  0.97280  Biso   1.000  H
  H271     1.0000 0.63620  0.07820  0.02720  Biso   1.000  H
  H272     1.0000 0.86380  0.92180  0.52720  Biso   1.000  H
  C177     1.0000 0.52700  0.62710  0.44840  Biso   1.000  C
  C178     1.0000 0.97300  0.37290  0.94840  Biso   1.000  C
  C179     1.0000 0.47300  0.12710  0.05160  Biso   1.000  C
  C180     1.0000 0.02700  0.87290  0.55160  Biso   1.000  C
  H273     1.0000 0.47880  0.65730  0.46290  Biso   1.000  H
  H274     1.0000 0.02120  0.34270  0.96290  Biso   1.000  H
  H275     1.0000 0.52120  0.15730  0.03710  Biso   1.000  H
  H276     1.0000 0.97880  0.84270  0.53710  Biso   1.000  H
  H277     1.0000 0.52390  0.62770  0.40710  Biso   1.000  H
  H278     1.0000 0.97610  0.37230  0.90710  Biso   1.000  H
  H279     1.0000 0.47610  0.12770  0.09290  Biso   1.000  H
  H280     1.0000 0.02390  0.87230  0.59290  Biso   1.000  H
  C181     1.0000 0.62660  0.64550  0.46500  Biso   1.000  C
  C182     1.0000 0.87340  0.35450  0.96500  Biso   1.000  C
  C183     1.0000 0.37340  0.14550  0.03500  Biso   1.000  C
  C184     1.0000 0.12660  0.85450  0.53500  Biso   1.000  C
  H281     1.0000 0.64000  0.68940  0.45290  Biso   1.000  H
  H282     1.0000 0.86000  0.31060  0.95290  Biso   1.000  H
  H283     1.0000 0.36000  0.18940  0.04710  Biso   1.000  H
  H284     1.0000 0.14000  0.81060  0.54710  Biso   1.000  H
  H285     1.0000 0.62980  0.64410  0.50630  Biso   1.000  H
  H286     1.0000 0.87020  0.35590  0.00630  Biso   1.000  H
  H287     1.0000 0.37020  0.14410  0.99370  Biso   1.000  H
  H288     1.0000 0.12980  0.85590  0.49370  Biso   1.000  H
