data_image0
_cell_length_a       7.641
_cell_length_b       23.636
_cell_length_c       12.618
_cell_angle_alpha    90
_cell_angle_beta     94.65
_cell_angle_gamma    90

_symmetry_space_group_name_H-M    "P 1"
_symmetry_int_tables_number       1

loop_
  _symmetry_equiv_pos_as_xyz
  'x, y, z'

loop_
  _atom_site_label
  _atom_site_occupancy
  _atom_site_fract_x
  _atom_site_fract_y
  _atom_site_fract_z
  _atom_site_thermal_displace_type
  _atom_site_B_iso_or_equiv
  _atom_site_type_symbol
  Tl1      1.0000 0.22749  0.09522  0.13194  Biso   1.000  Tl
  Tl2      1.0000 0.22749  0.40478  0.63194  Biso   1.000  Tl
  Tl3      1.0000 0.77251  0.90478  0.86806  Biso   1.000  Tl
  Tl4      1.0000 0.77251  0.59522  0.36806  Biso   1.000  Tl
  Cu1      1.0000 0.97600  0.34163  0.07679  Biso   1.000  Cu
  Cu2      1.0000 0.97600  0.15837  0.57679  Biso   1.000  Cu
  Cu3      1.0000 0.02400  0.65837  0.92321  Biso   1.000  Cu
  Cu4      1.0000 0.02400  0.84163  0.42321  Biso   1.000  Cu
  N1       1.0000 0.04960  0.17530  0.23110  Biso   1.000  N
  N2       1.0000 0.04960  0.32470  0.73110  Biso   1.000  N
  N3       1.0000 0.95040  0.82470  0.76890  Biso   1.000  N
  N4       1.0000 0.95040  0.67530  0.26890  Biso   1.000  N
  N5       1.0000 0.95020  0.26050  0.13450  Biso   1.000  N
  N6       1.0000 0.95020  0.23950  0.63450  Biso   1.000  N
  N7       1.0000 0.04980  0.73950  0.86550  Biso   1.000  N
  N8       1.0000 0.04980  0.76050  0.36550  Biso   1.000  N
  N9       1.0000 0.99840  0.16310  0.42040  Biso   1.000  N
  N10      1.0000 0.99840  0.33690  0.92040  Biso   1.000  N
  N11      1.0000 0.00160  0.83690  0.57960  Biso   1.000  N
  N12      1.0000 0.00160  0.66310  0.07960  Biso   1.000  N
  N13      1.0000 0.49900  0.40300  0.21170  Biso   1.000  N
  N14      1.0000 0.49900  0.09700  0.71170  Biso   1.000  N
  N15      1.0000 0.50100  0.59700  0.78830  Biso   1.000  N
  N16      1.0000 0.50100  0.90300  0.28830  Biso   1.000  N
  N17      1.0000 0.20380  0.37180  0.14450  Biso   1.000  N
  N18      1.0000 0.20380  0.12820  0.64450  Biso   1.000  N
  N19      1.0000 0.79620  0.62820  0.85550  Biso   1.000  N
  N20      1.0000 0.79620  0.87180  0.35550  Biso   1.000  N
  N21      1.0000 0.76800  0.38140  0.12610  Biso   1.000  N
  N22      1.0000 0.76800  0.11860  0.62610  Biso   1.000  N
  N23      1.0000 0.23200  0.61860  0.87390  Biso   1.000  N
  N24      1.0000 0.23200  0.88140  0.37390  Biso   1.000  N
  C1       1.0000 0.99230  0.22140  0.18160  Biso   1.000  C
  C2       1.0000 0.99230  0.27860  0.68160  Biso   1.000  C
  C3       1.0000 0.00770  0.77860  0.81840  Biso   1.000  C
  C4       1.0000 0.00770  0.72140  0.31840  Biso   1.000  C
  C5       1.0000 0.02240  0.17010  0.33230  Biso   1.000  C
  C6       1.0000 0.02240  0.32990  0.83230  Biso   1.000  C
  C7       1.0000 0.97760  0.82990  0.66770  Biso   1.000  C
  C8       1.0000 0.97760  0.67010  0.16770  Biso   1.000  C
  C9       1.0000 0.34410  0.38510  0.17220  Biso   1.000  C
  C10      1.0000 0.34410  0.11490  0.67220  Biso   1.000  C
  C11      1.0000 0.65590  0.61490  0.82780  Biso   1.000  C
  C12      1.0000 0.65590  0.88510  0.32780  Biso   1.000  C
  C13      1.0000 0.63680  0.39100  0.16290  Biso   1.000  C
  C14      1.0000 0.63680  0.10900  0.66290  Biso   1.000  C
  C15      1.0000 0.36320  0.60900  0.83710  Biso   1.000  C
  C16      1.0000 0.36320  0.89100  0.33710  Biso   1.000  C
  O1       1.0000 0.87320  0.05170  0.15610  Biso   1.000  O
  O2       1.0000 0.87320  0.44830  0.65610  Biso   1.000  O
  O3       1.0000 0.12680  0.94830  0.84390  Biso   1.000  O
  O4       1.0000 0.12680  0.55170  0.34390  Biso   1.000  O
  O5       1.0000 0.95060  0.11290  0.96890  Biso   1.000  O
  O6       1.0000 0.95060  0.38710  0.46890  Biso   1.000  O
  O7       1.0000 0.04940  0.88710  0.03110  Biso   1.000  O
  O8       1.0000 0.04940  0.61290  0.53110  Biso   1.000  O
  O9       1.0000 0.22580  0.19030  0.00050  Biso   1.000  O
  O10      1.0000 0.22580  0.30970  0.50050  Biso   1.000  O
  O11      1.0000 0.77420  0.80970  0.99950  Biso   1.000  O
  O12      1.0000 0.77420  0.69030  0.49950  Biso   1.000  O
  O13      1.0000 0.49610  0.18320  0.16570  Biso   1.000  O
  O14      1.0000 0.49610  0.31680  0.66570  Biso   1.000  O
  O15      1.0000 0.50390  0.81680  0.83430  Biso   1.000  O
  O16      1.0000 0.50390  0.68320  0.33430  Biso   1.000  O
  O17      1.0000 0.41440  0.11190  0.33350  Biso   1.000  O
  O18      1.0000 0.41440  0.38810  0.83350  Biso   1.000  O
  O19      1.0000 0.58560  0.88810  0.66650  Biso   1.000  O
  O20      1.0000 0.58560  0.61190  0.16650  Biso   1.000  O
  O21      1.0000 0.15120  0.02790  0.31010  Biso   1.000  O
  O22      1.0000 0.15120  0.47210  0.81010  Biso   1.000  O
  O23      1.0000 0.84880  0.97210  0.68990  Biso   1.000  O
  O24      1.0000 0.84880  0.52790  0.18990  Biso   1.000  O
  C17      1.0000 0.77530  0.04660  0.05460  Biso   1.000  C
  C18      1.0000 0.77530  0.45340  0.55460  Biso   1.000  C
  C19      1.0000 0.22470  0.95340  0.94540  Biso   1.000  C
  C20      1.0000 0.22470  0.54660  0.44540  Biso   1.000  C
  C21      1.0000 0.77560  0.10080  0.99480  Biso   1.000  C
  C22      1.0000 0.77560  0.39920  0.49480  Biso   1.000  C
  C23      1.0000 0.22440  0.89920  0.00520  Biso   1.000  C
  C24      1.0000 0.22440  0.60080  0.50520  Biso   1.000  C
  C25      1.0000 0.95850  0.16330  0.90640  Biso   1.000  C
  C26      1.0000 0.95850  0.33670  0.40640  Biso   1.000  C
  C27      1.0000 0.04150  0.83670  0.09360  Biso   1.000  C
  C28      1.0000 0.04150  0.66330  0.59360  Biso   1.000  C
  C29      1.0000 0.14680  0.17530  0.89750  Biso   1.000  C
  C30      1.0000 0.14680  0.32470  0.39750  Biso   1.000  C
  C31      1.0000 0.85320  0.82470  0.10250  Biso   1.000  C
  C32      1.0000 0.85320  0.67530  0.60250  Biso   1.000  C
  C33      1.0000 0.37890  0.22480  0.99820  Biso   1.000  C
  C34      1.0000 0.37890  0.27520  0.49820  Biso   1.000  C
  C35      1.0000 0.62110  0.77520  0.00180  Biso   1.000  C
  C36      1.0000 0.62110  0.72480  0.50180  Biso   1.000  C
  C37      1.0000 0.45510  0.23440  0.10800  Biso   1.000  C
  C38      1.0000 0.45510  0.26560  0.60800  Biso   1.000  C
  C39      1.0000 0.54490  0.76560  0.89200  Biso   1.000  C
  C40      1.0000 0.54490  0.73440  0.39200  Biso   1.000  C
  C41      1.0000 0.56070  0.19100  0.27420  Biso   1.000  C
  C42      1.0000 0.56070  0.30900  0.77420  Biso   1.000  C
  C43      1.0000 0.43930  0.80900  0.72580  Biso   1.000  C
  C44      1.0000 0.43930  0.69100  0.22580  Biso   1.000  C
  C45      1.0000 0.58870  0.13620  0.32910  Biso   1.000  C
  C46      1.0000 0.58870  0.36380  0.82910  Biso   1.000  C
  C47      1.0000 0.41130  0.86380  0.67090  Biso   1.000  C
  C48      1.0000 0.41130  0.63620  0.17090  Biso   1.000  C
  C49      1.0000 0.43240  0.05810  0.38500  Biso   1.000  C
  C50      1.0000 0.43240  0.44190  0.88500  Biso   1.000  C
  C51      1.0000 0.56760  0.94190  0.61500  Biso   1.000  C
  C52      1.0000 0.56760  0.55810  0.11500  Biso   1.000  C
  C53      1.0000 0.25550  0.03800  0.40810  Biso   1.000  C
  C54      1.0000 0.25550  0.46200  0.90810  Biso   1.000  C
  C55      1.0000 0.74450  0.96200  0.59190  Biso   1.000  C
  C56      1.0000 0.74450  0.53800  0.09190  Biso   1.000  C
  C57      1.0000 0.97440  0.01200  0.32380  Biso   1.000  C
  C58      1.0000 0.97440  0.48800  0.82380  Biso   1.000  C
  C59      1.0000 0.02560  0.98800  0.67620  Biso   1.000  C
  C60      1.0000 0.02560  0.51200  0.17620  Biso   1.000  C
  C61      1.0000 0.88980  0.00030  0.21630  Biso   1.000  C
  C62      1.0000 0.88980  0.49970  0.71630  Biso   1.000  C
  C63      1.0000 0.11020  0.99970  0.78370  Biso   1.000  C
  C64      1.0000 0.11020  0.50030  0.28370  Biso   1.000  C
  O25      1.0000 0.90160  0.03430  0.20120  Biso   1.000  O
  O26      1.0000 0.90160  0.46570  0.70120  Biso   1.000  O
  O27      1.0000 0.09840  0.96570  0.79880  Biso   1.000  O
  O28      1.0000 0.09840  0.53430  0.29880  Biso   1.000  O
  O29      1.0000 0.88800  0.08840  0.99480  Biso   1.000  O
  O30      1.0000 0.88800  0.41160  0.49480  Biso   1.000  O
  O31      1.0000 0.11200  0.91160  0.00520  Biso   1.000  O
  O32      1.0000 0.11200  0.58840  0.50520  Biso   1.000  O
  O33      1.0000 0.12730  0.17400  0.97370  Biso   1.000  O
  O34      1.0000 0.12730  0.32600  0.47370  Biso   1.000  O
  O35      1.0000 0.87270  0.82600  0.02630  Biso   1.000  O
  O36      1.0000 0.87270  0.67400  0.52630  Biso   1.000  O
  O37      1.0000 0.43140  0.19530  0.09710  Biso   1.000  O
  O38      1.0000 0.43140  0.30470  0.59710  Biso   1.000  O
  O39      1.0000 0.56860  0.80470  0.90290  Biso   1.000  O
  O40      1.0000 0.56860  0.69530  0.40290  Biso   1.000  O
  O41      1.0000 0.45590  0.14710  0.29690  Biso   1.000  O
  O42      1.0000 0.45590  0.35290  0.79690  Biso   1.000  O
  O43      1.0000 0.54410  0.85290  0.70310  Biso   1.000  O
  O44      1.0000 0.54410  0.64710  0.20310  Biso   1.000  O
  O45      1.0000 0.24160  0.04350  0.32860  Biso   1.000  O
  O46      1.0000 0.24160  0.45650  0.82860  Biso   1.000  O
  O47      1.0000 0.75840  0.95650  0.67140  Biso   1.000  O
  O48      1.0000 0.75840  0.54350  0.17140  Biso   1.000  O
  C65      1.0000 0.54470  0.19330  0.25160  Biso   1.000  C
  C66      1.0000 0.54470  0.30670  0.75160  Biso   1.000  C
  C67      1.0000 0.45530  0.80670  0.74840  Biso   1.000  C
  C68      1.0000 0.45530  0.69330  0.24840  Biso   1.000  C
  C69      1.0000 0.84650  0.13960  0.93740  Biso   1.000  C
  C70      1.0000 0.84650  0.36040  0.43740  Biso   1.000  C
  C71      1.0000 0.15350  0.86040  0.06260  Biso   1.000  C
  C72      1.0000 0.15350  0.63960  0.56260  Biso   1.000  C
  C73      1.0000 0.73980  0.06680  0.04410  Biso   1.000  C
  C74      1.0000 0.73980  0.43320  0.54410  Biso   1.000  C
  C75      1.0000 0.26020  0.93320  0.95590  Biso   1.000  C
  C76      1.0000 0.26020  0.56680  0.45590  Biso   1.000  C
  C77      1.0000 0.38010  0.22870  0.00560  Biso   1.000  C
  C78      1.0000 0.38010  0.27130  0.50560  Biso   1.000  C
  C79      1.0000 0.61990  0.77130  0.99440  Biso   1.000  C
  C80      1.0000 0.61990  0.72870  0.49440  Biso   1.000  C
  C81      1.0000 0.00670  0.15700  0.88700  Biso   1.000  C
  C82      1.0000 0.00670  0.34300  0.38700  Biso   1.000  C
  C83      1.0000 0.99330  0.84300  0.11300  Biso   1.000  C
  C84      1.0000 0.99330  0.65700  0.61300  Biso   1.000  C
  C85      1.0000 0.27560  0.19530  0.92390  Biso   1.000  C
  C86      1.0000 0.27560  0.30470  0.42390  Biso   1.000  C
  C87      1.0000 0.72440  0.80470  0.07610  Biso   1.000  C
  C88      1.0000 0.72440  0.69530  0.57610  Biso   1.000  C
  C89      1.0000 0.79580  0.01640  0.10820  Biso   1.000  C
  C90      1.0000 0.79580  0.48360  0.60820  Biso   1.000  C
  C91      1.0000 0.20420  0.98360  0.89180  Biso   1.000  C
  C92      1.0000 0.20420  0.51640  0.39180  Biso   1.000  C
  C93      1.0000 0.48300  0.23750  0.17450  Biso   1.000  C
  C94      1.0000 0.48300  0.26250  0.67450  Biso   1.000  C
  C95      1.0000 0.51700  0.76250  0.82550  Biso   1.000  C
  C96      1.0000 0.51700  0.73750  0.32550  Biso   1.000  C
  C97      1.0000 0.48850  0.09700  0.35890  Biso   1.000  C
  C98      1.0000 0.48850  0.40300  0.85890  Biso   1.000  C
  C99      1.0000 0.51150  0.90300  0.64110  Biso   1.000  C
  C100     1.0000 0.51150  0.59700  0.14110  Biso   1.000  C
  C101     1.0000 0.36020  0.06320  0.41400  Biso   1.000  C
  C102     1.0000 0.36020  0.43680  0.91400  Biso   1.000  C
  C103     1.0000 0.63980  0.93680  0.58600  Biso   1.000  C
  C104     1.0000 0.63980  0.56320  0.08600  Biso   1.000  C
  C105     1.0000 0.98200  0.99540  0.27710  Biso   1.000  C
  C106     1.0000 0.98200  0.50460  0.77710  Biso   1.000  C
  C107     1.0000 0.01800  0.00460  0.72290  Biso   1.000  C
  C108     1.0000 0.01800  0.49540  0.22290  Biso   1.000  C
  C109     1.0000 0.08650  0.02080  0.36890  Biso   1.000  C
  C110     1.0000 0.08650  0.47920  0.86890  Biso   1.000  C
  C111     1.0000 0.91350  0.97920  0.63110  Biso   1.000  C
  C112     1.0000 0.91350  0.52080  0.13110  Biso   1.000  C
