data_image0
_cell_length_a       21.157
_cell_length_b       9.2761
_cell_length_c       17.2671
_cell_angle_alpha    90
_cell_angle_beta     106.225
_cell_angle_gamma    90

_symmetry_space_group_name_H-M    "P 1"
_symmetry_int_tables_number       1

loop_
  _symmetry_equiv_pos_as_xyz
  'x, y, z'

loop_
  _atom_site_label
  _atom_site_occupancy
  _atom_site_fract_x
  _atom_site_fract_y
  _atom_site_fract_z
  _atom_site_thermal_displace_type
  _atom_site_B_iso_or_equiv
  _atom_site_type_symbol
  Nd1      1.0000 0.01353  0.68407  0.07306  Biso   1.000  Nd
  Nd2      1.0000 0.51353  0.18407  0.07306  Biso   1.000  Nd
  Nd3      1.0000 0.98647  0.68407  0.42694  Biso   1.000  Nd
  Nd4      1.0000 0.48647  0.18407  0.42694  Biso   1.000  Nd
  Nd5      1.0000 0.98647  0.31593  0.92694  Biso   1.000  Nd
  Nd6      1.0000 0.48647  0.81593  0.92694  Biso   1.000  Nd
  Nd7      1.0000 0.01353  0.31593  0.57306  Biso   1.000  Nd
  Nd8      1.0000 0.51353  0.81593  0.57306  Biso   1.000  Nd
  Cu1      1.0000 0.33578  0.42989  0.86548  Biso   1.000  Cu
  Cu2      1.0000 0.83578  0.92989  0.86548  Biso   1.000  Cu
  Cu3      1.0000 0.66422  0.42989  0.63452  Biso   1.000  Cu
  Cu4      1.0000 0.16422  0.92989  0.63452  Biso   1.000  Cu
  Cu5      1.0000 0.66422  0.57011  0.13452  Biso   1.000  Cu
  Cu6      1.0000 0.16422  0.07011  0.13452  Biso   1.000  Cu
  Cu7      1.0000 0.33578  0.57011  0.36548  Biso   1.000  Cu
  Cu8      1.0000 0.83578  0.07011  0.36548  Biso   1.000  Cu
  C1       1.0000 0.95966  0.34910  0.11710  Biso   1.000  C
  C2       1.0000 0.45966  0.84910  0.11710  Biso   1.000  C
  C3       1.0000 0.04034  0.34910  0.38290  Biso   1.000  C
  C4       1.0000 0.54034  0.84910  0.38290  Biso   1.000  C
  C5       1.0000 0.04034  0.65090  0.88290  Biso   1.000  C
  C6       1.0000 0.54034  0.15090  0.88290  Biso   1.000  C
  C7       1.0000 0.95966  0.65090  0.61710  Biso   1.000  C
  C8       1.0000 0.45966  0.15090  0.61710  Biso   1.000  C
  C9       1.0000 0.92506  0.27970  0.17312  Biso   1.000  C
  C10      1.0000 0.42506  0.77970  0.17312  Biso   1.000  C
  C11      1.0000 0.07494  0.27970  0.32688  Biso   1.000  C
  C12      1.0000 0.57494  0.77970  0.32688  Biso   1.000  C
  C13      1.0000 0.07494  0.72030  0.82688  Biso   1.000  C
  C14      1.0000 0.57494  0.22030  0.82688  Biso   1.000  C
  C15      1.0000 0.92506  0.72030  0.67312  Biso   1.000  C
  C16      1.0000 0.42506  0.22030  0.67312  Biso   1.000  C
  C17      1.0000 0.89920  0.36370  0.22260  Biso   1.000  C
  C18      1.0000 0.39920  0.86370  0.22260  Biso   1.000  C
  C19      1.0000 0.10080  0.36370  0.27740  Biso   1.000  C
  C20      1.0000 0.60080  0.86370  0.27740  Biso   1.000  C
  C21      1.0000 0.10080  0.63630  0.77740  Biso   1.000  C
  C22      1.0000 0.60080  0.13630  0.77740  Biso   1.000  C
  C23      1.0000 0.89920  0.63630  0.72260  Biso   1.000  C
  C24      1.0000 0.39920  0.13630  0.72260  Biso   1.000  C
  H1       1.0000 0.90160  0.46370  0.22070  Biso   1.000  H
  H2       1.0000 0.40160  0.96370  0.22070  Biso   1.000  H
  H3       1.0000 0.09840  0.46370  0.27930  Biso   1.000  H
  H4       1.0000 0.59840  0.96370  0.27930  Biso   1.000  H
  H5       1.0000 0.09840  0.53630  0.77930  Biso   1.000  H
  H6       1.0000 0.59840  0.03630  0.77930  Biso   1.000  H
  H7       1.0000 0.90160  0.53630  0.72070  Biso   1.000  H
  H8       1.0000 0.40160  0.03630  0.72070  Biso   1.000  H
  C25      1.0000 0.86960  0.29720  0.27500  Biso   1.000  C
  C26      1.0000 0.36960  0.79720  0.27500  Biso   1.000  C
  C27      1.0000 0.13040  0.29720  0.22500  Biso   1.000  C
  C28      1.0000 0.63040  0.79720  0.22500  Biso   1.000  C
  C29      1.0000 0.13040  0.70280  0.72500  Biso   1.000  C
  C30      1.0000 0.63040  0.20280  0.72500  Biso   1.000  C
  C31      1.0000 0.86960  0.70280  0.77500  Biso   1.000  C
  C32      1.0000 0.36960  0.20280  0.77500  Biso   1.000  C
  H9       1.0000 0.85130  0.35450  0.30740  Biso   1.000  H
  H10      1.0000 0.35130  0.85450  0.30740  Biso   1.000  H
  H11      1.0000 0.14870  0.35450  0.19260  Biso   1.000  H
  H12      1.0000 0.64870  0.85450  0.19260  Biso   1.000  H
  H13      1.0000 0.14870  0.64550  0.69260  Biso   1.000  H
  H14      1.0000 0.64870  0.14550  0.69260  Biso   1.000  H
  H15      1.0000 0.85130  0.64550  0.80740  Biso   1.000  H
  H16      1.0000 0.35130  0.14550  0.80740  Biso   1.000  H
  C33      1.0000 0.88970  0.07500  0.23180  Biso   1.000  C
  C34      1.0000 0.38970  0.57500  0.23180  Biso   1.000  C
  C35      1.0000 0.11030  0.07500  0.26820  Biso   1.000  C
  C36      1.0000 0.61030  0.57500  0.26820  Biso   1.000  C
  C37      1.0000 0.11030  0.92500  0.76820  Biso   1.000  C
  C38      1.0000 0.61030  0.42500  0.76820  Biso   1.000  C
  C39      1.0000 0.88970  0.92500  0.73180  Biso   1.000  C
  C40      1.0000 0.38970  0.42500  0.73180  Biso   1.000  C
  H17      1.0000 0.88640  0.97530  0.23440  Biso   1.000  H
  H18      1.0000 0.38640  0.47530  0.23440  Biso   1.000  H
  H19      1.0000 0.11360  0.97530  0.26560  Biso   1.000  H
  H20      1.0000 0.61360  0.47530  0.26560  Biso   1.000  H
  H21      1.0000 0.11360  0.02470  0.76560  Biso   1.000  H
  H22      1.0000 0.61360  0.52470  0.76560  Biso   1.000  H
  H23      1.0000 0.88640  0.02470  0.73440  Biso   1.000  H
  H24      1.0000 0.38640  0.52470  0.73440  Biso   1.000  H
  C41      1.0000 0.91890  0.13290  0.17680  Biso   1.000  C
  C42      1.0000 0.41890  0.63290  0.17680  Biso   1.000  C
  C43      1.0000 0.08110  0.13290  0.32320  Biso   1.000  C
  C44      1.0000 0.58110  0.63290  0.32320  Biso   1.000  C
  C45      1.0000 0.08110  0.86710  0.82320  Biso   1.000  C
  C46      1.0000 0.58110  0.36710  0.82320  Biso   1.000  C
  C47      1.0000 0.91890  0.86710  0.67680  Biso   1.000  C
  C48      1.0000 0.41890  0.36710  0.67680  Biso   1.000  C
  H25      1.0000 0.93420  0.07330  0.14260  Biso   1.000  H
  H26      1.0000 0.43420  0.57330  0.14260  Biso   1.000  H
  H27      1.0000 0.06580  0.07330  0.35740  Biso   1.000  H
  H28      1.0000 0.56580  0.57330  0.35740  Biso   1.000  H
  H29      1.0000 0.06580  0.92670  0.85740  Biso   1.000  H
  H30      1.0000 0.56580  0.42670  0.85740  Biso   1.000  H
  H31      1.0000 0.93420  0.92670  0.64260  Biso   1.000  H
  H32      1.0000 0.43420  0.42670  0.64260  Biso   1.000  H
  C49      1.0000 0.12781  0.52170  0.05039  Biso   1.000  C
  C50      1.0000 0.62781  0.02170  0.05039  Biso   1.000  C
  C51      1.0000 0.87219  0.52170  0.44961  Biso   1.000  C
  C52      1.0000 0.37219  0.02170  0.44961  Biso   1.000  C
  C53      1.0000 0.87219  0.47830  0.94961  Biso   1.000  C
  C54      1.0000 0.37219  0.97830  0.94961  Biso   1.000  C
  C55      1.0000 0.12781  0.47830  0.55039  Biso   1.000  C
  C56      1.0000 0.62781  0.97830  0.55039  Biso   1.000  C
  C57      1.0000 0.18332  0.48910  0.01420  Biso   1.000  C
  C58      1.0000 0.68332  0.98910  0.01420  Biso   1.000  C
  C59      1.0000 0.81668  0.48910  0.48580  Biso   1.000  C
  C60      1.0000 0.31668  0.98910  0.48580  Biso   1.000  C
  C61      1.0000 0.81668  0.51090  0.98580  Biso   1.000  C
  C62      1.0000 0.31668  0.01090  0.98580  Biso   1.000  C
  C63      1.0000 0.18332  0.51090  0.51420  Biso   1.000  C
  C64      1.0000 0.68332  0.01090  0.51420  Biso   1.000  C
  C65      1.0000 0.17690  0.38470  0.95700  Biso   1.000  C
  C66      1.0000 0.67690  0.88470  0.95700  Biso   1.000  C
  C67      1.0000 0.82310  0.38470  0.54300  Biso   1.000  C
  C68      1.0000 0.32310  0.88470  0.54300  Biso   1.000  C
  C69      1.0000 0.82310  0.61530  0.04300  Biso   1.000  C
  C70      1.0000 0.32310  0.11530  0.04300  Biso   1.000  C
  C71      1.0000 0.17690  0.61530  0.45700  Biso   1.000  C
  C72      1.0000 0.67690  0.11530  0.45700  Biso   1.000  C
  H33      1.0000 0.14070  0.32320  0.94540  Biso   1.000  H
  H34      1.0000 0.64070  0.82320  0.94540  Biso   1.000  H
  H35      1.0000 0.85930  0.32320  0.55460  Biso   1.000  H
  H36      1.0000 0.35930  0.82320  0.55460  Biso   1.000  H
  H37      1.0000 0.85930  0.67680  0.05460  Biso   1.000  H
  H38      1.0000 0.35930  0.17680  0.05460  Biso   1.000  H
  H39      1.0000 0.14070  0.67680  0.44540  Biso   1.000  H
  H40      1.0000 0.64070  0.17680  0.44540  Biso   1.000  H
  C73      1.0000 0.22410  0.37070  0.91640  Biso   1.000  C
  C74      1.0000 0.72410  0.87070  0.91640  Biso   1.000  C
  C75      1.0000 0.77590  0.37070  0.58360  Biso   1.000  C
  C76      1.0000 0.27590  0.87070  0.58360  Biso   1.000  C
  C77      1.0000 0.77590  0.62930  0.08360  Biso   1.000  C
  C78      1.0000 0.27590  0.12930  0.08360  Biso   1.000  C
  C79      1.0000 0.22410  0.62930  0.41640  Biso   1.000  C
  C80      1.0000 0.72410  0.12930  0.41640  Biso   1.000  C
  H41      1.0000 0.21850  0.29990  0.87690  Biso   1.000  H
  H42      1.0000 0.71850  0.79990  0.87690  Biso   1.000  H
  H43      1.0000 0.78150  0.29990  0.62310  Biso   1.000  H
  H44      1.0000 0.28150  0.79990  0.62310  Biso   1.000  H
  H45      1.0000 0.78150  0.70010  0.12310  Biso   1.000  H
  H46      1.0000 0.28150  0.20010  0.12310  Biso   1.000  H
  H47      1.0000 0.21850  0.70010  0.37690  Biso   1.000  H
  H48      1.0000 0.71850  0.20010  0.37690  Biso   1.000  H
  C81      1.0000 0.28560  0.54840  0.99030  Biso   1.000  C
  C82      1.0000 0.78560  0.04840  0.99030  Biso   1.000  C
  C83      1.0000 0.71440  0.54840  0.50970  Biso   1.000  C
  C84      1.0000 0.21440  0.04840  0.50970  Biso   1.000  C
  C85      1.0000 0.71440  0.45160  0.00970  Biso   1.000  C
  C86      1.0000 0.21440  0.95160  0.00970  Biso   1.000  C
  C87      1.0000 0.28560  0.45160  0.49030  Biso   1.000  C
  C88      1.0000 0.78560  0.95160  0.49030  Biso   1.000  C
  H49      1.0000 0.32390  0.60340  0.00370  Biso   1.000  H
  H50      1.0000 0.82390  0.10340  0.00370  Biso   1.000  H
  H51      1.0000 0.67610  0.60340  0.49630  Biso   1.000  H
  H52      1.0000 0.17610  0.10340  0.49630  Biso   1.000  H
  H53      1.0000 0.67610  0.39660  0.99630  Biso   1.000  H
  H54      1.0000 0.17610  0.89660  0.99630  Biso   1.000  H
  H55      1.0000 0.32390  0.39660  0.50370  Biso   1.000  H
  H56      1.0000 0.82390  0.89660  0.50370  Biso   1.000  H
  C89      1.0000 0.24000  0.56960  0.03320  Biso   1.000  C
  C90      1.0000 0.74000  0.06960  0.03320  Biso   1.000  C
  C91      1.0000 0.76000  0.56960  0.46680  Biso   1.000  C
  C92      1.0000 0.26000  0.06960  0.46680  Biso   1.000  C
  C93      1.0000 0.76000  0.43040  0.96680  Biso   1.000  C
  C94      1.0000 0.26000  0.93040  0.96680  Biso   1.000  C
  C95      1.0000 0.24000  0.43040  0.53320  Biso   1.000  C
  C96      1.0000 0.74000  0.93040  0.53320  Biso   1.000  C
  H57      1.0000 0.24770  0.63760  0.07440  Biso   1.000  H
  H58      1.0000 0.74770  0.13760  0.07440  Biso   1.000  H
  H59      1.0000 0.75230  0.63760  0.42560  Biso   1.000  H
  H60      1.0000 0.25230  0.13760  0.42560  Biso   1.000  H
  H61      1.0000 0.75230  0.36240  0.92560  Biso   1.000  H
  H62      1.0000 0.25230  0.86240  0.92560  Biso   1.000  H
  H63      1.0000 0.24770  0.36240  0.57440  Biso   1.000  H
  H64      1.0000 0.74770  0.86240  0.57440  Biso   1.000  H
  C97      1.0000 0.03599  0.01630  0.02352  Biso   1.000  C
  C98      1.0000 0.53599  0.51630  0.02352  Biso   1.000  C
  C99      1.0000 0.96401  0.01630  0.47648  Biso   1.000  C
  C100     1.0000 0.46401  0.51630  0.47648  Biso   1.000  C
  C101     1.0000 0.96401  0.98370  0.97648  Biso   1.000  C
  C102     1.0000 0.46401  0.48370  0.97648  Biso   1.000  C
  C103     1.0000 0.03599  0.98370  0.52352  Biso   1.000  C
  C104     1.0000 0.53599  0.48370  0.52352  Biso   1.000  C
  C105     1.0000 0.03740  0.74400  0.26788  Biso   1.000  C
  C106     1.0000 0.53740  0.24400  0.26788  Biso   1.000  C
  C107     1.0000 0.96260  0.74400  0.23212  Biso   1.000  C
  C108     1.0000 0.46260  0.24400  0.23212  Biso   1.000  C
  C109     1.0000 0.96260  0.25600  0.73212  Biso   1.000  C
  C110     1.0000 0.46260  0.75600  0.73212  Biso   1.000  C
  C111     1.0000 0.03740  0.25600  0.76788  Biso   1.000  C
  C112     1.0000 0.53740  0.75600  0.76788  Biso   1.000  C
  N1       1.0000 0.86612  0.15460  0.28120  Biso   1.000  N
  N2       1.0000 0.36612  0.65460  0.28120  Biso   1.000  N
  N3       1.0000 0.13388  0.15460  0.21880  Biso   1.000  N
  N4       1.0000 0.63388  0.65460  0.21880  Biso   1.000  N
  N5       1.0000 0.13388  0.84540  0.71880  Biso   1.000  N
  N6       1.0000 0.63388  0.34540  0.71880  Biso   1.000  N
  N7       1.0000 0.86612  0.84540  0.78120  Biso   1.000  N
  N8       1.0000 0.36612  0.34540  0.78120  Biso   1.000  N
  N9       1.0000 0.27740  0.45390  0.93120  Biso   1.000  N
  N10      1.0000 0.77740  0.95390  0.93120  Biso   1.000  N
  N11      1.0000 0.72260  0.45390  0.56880  Biso   1.000  N
  N12      1.0000 0.22260  0.95390  0.56880  Biso   1.000  N
  N13      1.0000 0.72260  0.54610  0.06880  Biso   1.000  N
  N14      1.0000 0.22260  0.04610  0.06880  Biso   1.000  N
  N15      1.0000 0.27740  0.54610  0.43120  Biso   1.000  N
  N16      1.0000 0.77740  0.04610  0.43120  Biso   1.000  N
  O1       1.0000 0.98229  0.47280  0.13556  Biso   1.000  O
  O2       1.0000 0.48229  0.97280  0.13556  Biso   1.000  O
  O3       1.0000 0.01771  0.47280  0.36444  Biso   1.000  O
  O4       1.0000 0.51771  0.97280  0.36444  Biso   1.000  O
  O5       1.0000 0.01771  0.52720  0.86444  Biso   1.000  O
  O6       1.0000 0.51771  0.02720  0.86444  Biso   1.000  O
  O7       1.0000 0.98229  0.52720  0.63556  Biso   1.000  O
  O8       1.0000 0.48229  0.02720  0.63556  Biso   1.000  O
  O9       1.0000 0.96137  0.27730  0.05640  Biso   1.000  O
  O10      1.0000 0.46137  0.77730  0.05640  Biso   1.000  O
  O11      1.0000 0.03863  0.27730  0.44360  Biso   1.000  O
  O12      1.0000 0.53863  0.77730  0.44360  Biso   1.000  O
  O13      1.0000 0.03863  0.72270  0.94360  Biso   1.000  O
  O14      1.0000 0.53863  0.22270  0.94360  Biso   1.000  O
  O15      1.0000 0.96137  0.72270  0.55640  Biso   1.000  O
  O16      1.0000 0.46137  0.22270  0.55640  Biso   1.000  O
  O17      1.0000 0.13398  0.62380  0.09886  Biso   1.000  O
  O18      1.0000 0.63398  0.12380  0.09886  Biso   1.000  O
  O19      1.0000 0.86602  0.62380  0.40114  Biso   1.000  O
  O20      1.0000 0.36602  0.12380  0.40114  Biso   1.000  O
  O21      1.0000 0.86602  0.37620  0.90114  Biso   1.000  O
  O22      1.0000 0.36602  0.87620  0.90114  Biso   1.000  O
  O23      1.0000 0.13398  0.37620  0.59886  Biso   1.000  O
  O24      1.0000 0.63398  0.87620  0.59886  Biso   1.000  O
  O25      1.0000 0.07495  0.45040  0.02688  Biso   1.000  O
  O26      1.0000 0.57495  0.95040  0.02688  Biso   1.000  O
  O27      1.0000 0.92505  0.45040  0.47312  Biso   1.000  O
  O28      1.0000 0.42505  0.95040  0.47312  Biso   1.000  O
  O29      1.0000 0.92505  0.54960  0.97312  Biso   1.000  O
  O30      1.0000 0.42505  0.04960  0.97312  Biso   1.000  O
  O31      1.0000 0.07495  0.54960  0.52688  Biso   1.000  O
  O32      1.0000 0.57495  0.04960  0.52688  Biso   1.000  O
  O33      1.0000 0.06455  0.92790  0.07684  Biso   1.000  O
  O34      1.0000 0.56455  0.42790  0.07684  Biso   1.000  O
  O35      1.0000 0.93545  0.92790  0.42316  Biso   1.000  O
  O36      1.0000 0.43545  0.42790  0.42316  Biso   1.000  O
  O37      1.0000 0.93545  0.07210  0.92316  Biso   1.000  O
  O38      1.0000 0.43545  0.57210  0.92316  Biso   1.000  O
  O39      1.0000 0.06455  0.07210  0.57684  Biso   1.000  O
  O40      1.0000 0.56455  0.57210  0.57684  Biso   1.000  O
  O41      1.0000 0.06132  0.12760  0.00418  Biso   1.000  O
  O42      1.0000 0.56132  0.62760  0.00418  Biso   1.000  O
  O43      1.0000 0.93868  0.12760  0.49582  Biso   1.000  O
  O44      1.0000 0.43868  0.62760  0.49582  Biso   1.000  O
  O45      1.0000 0.93868  0.87240  0.99582  Biso   1.000  O
  O46      1.0000 0.43868  0.37240  0.99582  Biso   1.000  O
  O47      1.0000 0.06132  0.87240  0.50418  Biso   1.000  O
  O48      1.0000 0.56132  0.37240  0.50418  Biso   1.000  O
  O49      1.0000 0.07128  0.72630  0.21940  Biso   1.000  O
  O50      1.0000 0.57128  0.22630  0.21940  Biso   1.000  O
  O51      1.0000 0.92872  0.72630  0.28060  Biso   1.000  O
  O52      1.0000 0.42872  0.22630  0.28060  Biso   1.000  O
  O53      1.0000 0.92872  0.27370  0.78060  Biso   1.000  O
  O54      1.0000 0.42872  0.77370  0.78060  Biso   1.000  O
  O55      1.0000 0.07128  0.27370  0.71940  Biso   1.000  O
  O56      1.0000 0.57128  0.77370  0.71940  Biso   1.000  O
  O57      1.0000 0.05838  0.76500  0.34230  Biso   1.000  O
  O58      1.0000 0.55838  0.26500  0.34230  Biso   1.000  O
  O59      1.0000 0.94162  0.76500  0.15770  Biso   1.000  O
  O60      1.0000 0.44162  0.26500  0.15770  Biso   1.000  O
  O61      1.0000 0.94162  0.23500  0.65770  Biso   1.000  O
  O62      1.0000 0.44162  0.73500  0.65770  Biso   1.000  O
  O63      1.0000 0.05838  0.23500  0.84230  Biso   1.000  O
  O64      1.0000 0.55838  0.73500  0.84230  Biso   1.000  O
  O65      1.0000 0.79480  0.80880  0.26730  Biso   1.000  O
  O66      1.0000 0.29480  0.30880  0.26730  Biso   1.000  O
  O67      1.0000 0.20520  0.80880  0.23270  Biso   1.000  O
  O68      1.0000 0.70520  0.30880  0.23270  Biso   1.000  O
  O69      1.0000 0.20520  0.19120  0.73270  Biso   1.000  O
  O70      1.0000 0.70520  0.69120  0.73270  Biso   1.000  O
  O71      1.0000 0.79480  0.19120  0.76730  Biso   1.000  O
  O72      1.0000 0.29480  0.69120  0.76730  Biso   1.000  O
