data_image0
_cell_length_a       12.0034
_cell_length_b       12.0573
_cell_length_c       13.1255
_cell_angle_alpha    67.624
_cell_angle_beta     86.656
_cell_angle_gamma    63.041

_symmetry_space_group_name_H-M    "P 1"
_symmetry_int_tables_number       1

loop_
  _symmetry_equiv_pos_as_xyz
  'x, y, z'

loop_
  _atom_site_label
  _atom_site_occupancy
  _atom_site_fract_x
  _atom_site_fract_y
  _atom_site_fract_z
  _atom_site_thermal_displace_type
  _atom_site_B_iso_or_equiv
  _atom_site_type_symbol
  Bi1      1.0000 0.40017  0.23406  0.33083  Biso   1.000  Bi
  Bi2      1.0000 0.59983  0.76594  0.66917  Biso   1.000  Bi
  I1       1.0000 0.33721  0.06242  0.57202  Biso   1.000  I
  I2       1.0000 0.66279  0.93758  0.42798  Biso   1.000  I
  I3       1.0000 0.30868  0.09037  0.22950  Biso   1.000  I
  I4       1.0000 0.69132  0.90963  0.77050  Biso   1.000  I
  I5       1.0000 0.48034  0.68377  0.52610  Biso   1.000  I
  I6       1.0000 0.51966  0.31623  0.47390  Biso   1.000  I
  I7       1.0000 0.15607  0.47301  0.27009  Biso   1.000  I
  I8       1.0000 0.84393  0.52699  0.72991  Biso   1.000  I
  I9       1.0000 0.51136  0.33700  0.13826  Biso   1.000  I
  I10      1.0000 0.48864  0.66300  0.86174  Biso   1.000  I
  Cu1      1.0000 0.30688  0.94987  0.44396  Biso   1.000  Cu
  Cu2      1.0000 0.69312  0.05013  0.55604  Biso   1.000  Cu
  C1       1.0000 0.02150  0.04870  0.39340  Biso   1.000  C
  C2       1.0000 0.97850  0.95130  0.60660  Biso   1.000  C
  H1       1.0000 0.03380  0.08390  0.31800  Biso   1.000  H
  H2       1.0000 0.96620  0.91610  0.68200  Biso   1.000  H
  C3       1.0000 0.89910  0.07630  0.41890  Biso   1.000  C
  C4       1.0000 0.10090  0.92370  0.58110  Biso   1.000  C
  H3       1.0000 0.83000  0.13040  0.36050  Biso   1.000  H
  H4       1.0000 0.17000  0.86960  0.63950  Biso   1.000  H
  N1       1.0000 0.12270  0.97300  0.47420  Biso   1.000  N
  N2       1.0000 0.87730  0.02700  0.52580  Biso   1.000  N
  C5       1.0000 0.28650  0.48730  0.67490  Biso   1.000  C
  C6       1.0000 0.71350  0.51270  0.32510  Biso   1.000  C
  H5       1.0000 0.30360  0.56010  0.67530  Biso   1.000  H
  H6       1.0000 0.69640  0.43990  0.32470  Biso   1.000  H
  H7       1.0000 0.34790  0.44100  0.63250  Biso   1.000  H
  H8       1.0000 0.65210  0.55900  0.36750  Biso   1.000  H
  C7       1.0000 0.15450  0.55270  0.61330  Biso   1.000  C
  C8       1.0000 0.84550  0.44730  0.38670  Biso   1.000  C
  H9       1.0000 0.09240  0.61070  0.64790  Biso   1.000  H
  H10      1.0000 0.90760  0.38930  0.35210  Biso   1.000  H
  H11      1.0000 0.13200  0.48170  0.61790  Biso   1.000  H
  H12      1.0000 0.86800  0.51830  0.38210  Biso   1.000  H
  N3       1.0000 0.31080  0.38480  0.79490  Biso   1.000  N
  N4       1.0000 0.68920  0.61520  0.20510  Biso   1.000  N
  C9       1.0000 0.15160  0.63830  0.49170  Biso   1.000  C
  C10      1.0000 0.84840  0.36170  0.50830  Biso   1.000  C
  H13      1.0000 0.18270  0.70280  0.48810  Biso   1.000  H
  H14      1.0000 0.81730  0.29720  0.51190  Biso   1.000  H
  H15      1.0000 0.20840  0.57840  0.45600  Biso   1.000  H
  H16      1.0000 0.79160  0.42160  0.54400  Biso   1.000  H
  C11      1.0000 0.01860  0.71670  0.42870  Biso   1.000  C
  C12      1.0000 0.98140  0.28330  0.57130  Biso   1.000  C
  H17      1.0000 0.01980  0.76940  0.35090  Biso   1.000  H
  H18      1.0000 0.98020  0.23060  0.64910  Biso   1.000  H
  H19      1.0000 0.96280  0.77820  0.46250  Biso   1.000  H
  H20      1.0000 0.03720  0.22180  0.53750  Biso   1.000  H
  H21      1.0000 0.98770  0.65290  0.43230  Biso   1.000  H
  H22      1.0000 0.01230  0.34710  0.56770  Biso   1.000  H
  C13      1.0000 0.20920  0.44360  0.86130  Biso   1.000  C
  C14      1.0000 0.79080  0.55640  0.13870  Biso   1.000  C
  H23      1.0000 0.12750  0.46150  0.82850  Biso   1.000  H
  H24      1.0000 0.87250  0.53850  0.17150  Biso   1.000  H
  H25      1.0000 0.22870  0.37420  0.93820  Biso   1.000  H
  H26      1.0000 0.77130  0.62580  0.06180  Biso   1.000  H
  C15      1.0000 0.19350  0.57340  0.86700  Biso   1.000  C
  C16      1.0000 0.80650  0.42660  0.13300  Biso   1.000  C
  H27      1.0000 0.18130  0.64180  0.79080  Biso   1.000  H
  H28      1.0000 0.81870  0.35820  0.20920  Biso   1.000  H
  H29      1.0000 0.27060  0.55490  0.90840  Biso   1.000  H
  H30      1.0000 0.72940  0.44510  0.09160  Biso   1.000  H
  C17      1.0000 0.07990  0.62830  0.92510  Biso   1.000  C
  C18      1.0000 0.92010  0.37170  0.07490  Biso   1.000  C
  H31      1.0000 0.00220  0.65520  0.87920  Biso   1.000  H
  H32      1.0000 0.99780  0.34480  0.12080  Biso   1.000  H
  H33      1.0000 0.08820  0.55570  0.99760  Biso   1.000  H
  H34      1.0000 0.91180  0.44430  0.00240  Biso   1.000  H
  C19      1.0000 0.06800  0.74960  0.94410  Biso   1.000  C
  C20      1.0000 0.93200  0.25040  0.05590  Biso   1.000  C
  H35      1.0000 0.98980  0.78700  0.97500  Biso   1.000  H
  H36      1.0000 0.01020  0.21300  0.02500  Biso   1.000  H
  H37      1.0000 0.06620  0.81900  0.87320  Biso   1.000  H
  H38      1.0000 0.93380  0.18100  0.12680  Biso   1.000  H
  H39      1.0000 0.14030  0.72090  0.99630  Biso   1.000  H
  H40      1.0000 0.85970  0.27910  0.00370  Biso   1.000  H
  C21      1.0000 0.43790  0.35050  0.84770  Biso   1.000  C
  C22      1.0000 0.56210  0.64950  0.15230  Biso   1.000  C
  H41      1.0000 0.43560  0.43590  0.84170  Biso   1.000  H
  H42      1.0000 0.56440  0.56410  0.15830  Biso   1.000  H
  H43      1.0000 0.44910  0.29350  0.92790  Biso   1.000  H
  H44      1.0000 0.55090  0.70650  0.07210  Biso   1.000  H
  C23      1.0000 0.55290  0.27730  0.79910  Biso   1.000  C
  C24      1.0000 0.44710  0.72270  0.20090  Biso   1.000  C
  H45      1.0000 0.53880  0.32630  0.71730  Biso   1.000  H
  H46      1.0000 0.46120  0.67370  0.28270  Biso   1.000  H
  H47      1.0000 0.56580  0.18460  0.81620  Biso   1.000  H
  H48      1.0000 0.43420  0.81540  0.18380  Biso   1.000  H
  C25      1.0000 0.67020  0.26930  0.84760  Biso   1.000  C
  C26      1.0000 0.32980  0.73070  0.15240  Biso   1.000  C
  H49      1.0000 0.66110  0.36190  0.82210  Biso   1.000  H
  H50      1.0000 0.33890  0.63810  0.17790  Biso   1.000  H
  H51      1.0000 0.67680  0.23210  0.92970  Biso   1.000  H
  H52      1.0000 0.32320  0.76790  0.07030  Biso   1.000  H
  C27      1.0000 0.79020  0.18120  0.81380  Biso   1.000  C
  C28      1.0000 0.20980  0.81880  0.18620  Biso   1.000  C
  H53      1.0000 0.86200  0.18350  0.84310  Biso   1.000  H
  H54      1.0000 0.13800  0.81650  0.15690  Biso   1.000  H
  H55      1.0000 0.78290  0.21560  0.73250  Biso   1.000  H
  H56      1.0000 0.21710  0.78440  0.26750  Biso   1.000  H
  H57      1.0000 0.80320  0.08770  0.84390  Biso   1.000  H
  H58      1.0000 0.19680  0.91230  0.15610  Biso   1.000  H
  C29      1.0000 0.30910  0.26110  0.79180  Biso   1.000  C
  C30      1.0000 0.69090  0.73890  0.20820  Biso   1.000  C
  H59      1.0000 0.22380  0.28850  0.75880  Biso   1.000  H
  H60      1.0000 0.77620  0.71150  0.24120  Biso   1.000  H
  H61      1.0000 0.36930  0.22900  0.74210  Biso   1.000  H
  H62      1.0000 0.63070  0.77100  0.25790  Biso   1.000  H
  C31      1.0000 0.34220  0.14400  0.90390  Biso   1.000  C
  C32      1.0000 0.65780  0.85600  0.09610  Biso   1.000  C
  H63      1.0000 0.28330  0.17510  0.95470  Biso   1.000  H
  H64      1.0000 0.71670  0.82490  0.04530  Biso   1.000  H
  H65      1.0000 0.42870  0.11310  0.93650  Biso   1.000  H
  H66      1.0000 0.57130  0.88690  0.06350  Biso   1.000  H
  C33      1.0000 0.20340  0.05080  0.86410  Biso   1.000  C
  C34      1.0000 0.79660  0.94920  0.13590  Biso   1.000  C
  H67      1.0000 0.20650  0.96760  0.86550  Biso   1.000  H
  H68      1.0000 0.79350  0.03240  0.13450  Biso   1.000  H
  H69      1.0000 0.16780  0.12290  0.78950  Biso   1.000  H
  H70      1.0000 0.83220  0.87710  0.21050  Biso   1.000  H
  H71      1.0000 0.15030  0.07850  0.91830  Biso   1.000  H
  H72      1.0000 0.84970  0.92150  0.08170  Biso   1.000  H
  C35      1.0000 0.33460  0.02520  0.89320  Biso   1.000  C
  C36      1.0000 0.66540  0.97480  0.10680  Biso   1.000  C
  H73      1.0000 0.38580  0.00250  0.83530  Biso   1.000  H
  H74      1.0000 0.61420  0.99750  0.16470  Biso   1.000  H
  H75      1.0000 0.37310  0.94510  0.96450  Biso   1.000  H
  H76      1.0000 0.62690  0.05490  0.03550  Biso   1.000  H
  Cu3      1.0000 0.49350  0.90090  0.38630  Biso   1.000  Cu
  Cu4      1.0000 0.50650  0.09910  0.61370  Biso   1.000  Cu
  H77      1.0000 0.20540  0.95500  0.45680  Biso   1.000  H
  H78      1.0000 0.79460  0.04500  0.54320  Biso   1.000  H
  Cu5      1.0000 0.43522  0.92860  0.42348  Biso   1.000  Cu
  Cu6      1.0000 0.56478  0.07140  0.57652  Biso   1.000  Cu
