data_image0
_cell_length_a       11.205
_cell_length_b       11.347
_cell_length_c       11.652
_cell_angle_alpha    66.157
_cell_angle_beta     66.036
_cell_angle_gamma    81.515

_symmetry_space_group_name_H-M    "P 1"
_symmetry_int_tables_number       1

loop_
  _symmetry_equiv_pos_as_xyz
  'x, y, z'

loop_
  _atom_site_label
  _atom_site_occupancy
  _atom_site_fract_x
  _atom_site_fract_y
  _atom_site_fract_z
  _atom_site_thermal_displace_type
  _atom_site_B_iso_or_equiv
  _atom_site_type_symbol
  C1       1.0000 0.19970  0.99560  0.17160  Biso   1.000  C
  C2       1.0000 0.80030  0.00440  0.82840  Biso   1.000  C
  H1       1.0000 0.27220  0.97790  0.10520  Biso   1.000  H
  H2       1.0000 0.72780  0.02210  0.89480  Biso   1.000  H
  C3       1.0000 0.07730  0.07080  0.32040  Biso   1.000  C
  C4       1.0000 0.92270  0.92920  0.67960  Biso   1.000  C
  H3       1.0000 0.04990  0.11660  0.37700  Biso   1.000  H
  H4       1.0000 0.95010  0.88340  0.62300  Biso   1.000  H
  C5       1.0000 0.99940  0.99690  0.31330  Biso   1.000  C
  C6       1.0000 0.00060  0.00310  0.68670  Biso   1.000  C
  H5       1.0000 0.91020  0.98170  0.36350  Biso   1.000  H
  H6       1.0000 0.08980  0.01830  0.63650  Biso   1.000  H
  C7       1.0000 0.03760  0.86870  0.16950  Biso   1.000  C
  C8       1.0000 0.96240  0.13130  0.83050  Biso   1.000  C
  C9       1.0000 0.11050  0.87570  0.03770  Biso   1.000  C
  C10      1.0000 0.88950  0.12430  0.96230  Biso   1.000  C
  H7       1.0000 0.18470  0.92870  0.98460  Biso   1.000  H
  H8       1.0000 0.81530  0.07130  0.01540  Biso   1.000  H
  C11      1.0000 0.07320  0.80440  0.98520  Biso   1.000  C
  C12      1.0000 0.92680  0.19560  0.01480  Biso   1.000  C
  H9       1.0000 0.12250  0.80670  0.89810  Biso   1.000  H
  H10      1.0000 0.87750  0.19330  0.10190  Biso   1.000  H
  C13      1.0000 0.95960  0.72920  0.06660  Biso   1.000  C
  C14      1.0000 0.04040  0.27080  0.93340  Biso   1.000  C
  C15      1.0000 0.88910  0.71970  0.19990  Biso   1.000  C
  C16      1.0000 0.11090  0.28030  0.80010  Biso   1.000  C
  C17      1.0000 0.92640  0.78960  0.25420  Biso   1.000  C
  C18      1.0000 0.07360  0.21040  0.74580  Biso   1.000  C
  H11      1.0000 0.87950  0.78400  0.34300  Biso   1.000  H
  H12      1.0000 0.12050  0.21600  0.65700  Biso   1.000  H
  C19      1.0000 0.76920  0.62890  0.26830  Biso   1.000  C
  C20      1.0000 0.23080  0.37110  0.73170  Biso   1.000  C
  C21      1.0000 0.64130  0.70300  0.30600  Biso   1.000  C
  C22      1.0000 0.35870  0.29700  0.69400  Biso   1.000  C
  H13      1.0000 0.56830  0.64510  0.34020  Biso   1.000  H
  H14      1.0000 0.43170  0.35490  0.65980  Biso   1.000  H
  H15      1.0000 0.63470  0.72700  0.37940  Biso   1.000  H
  H16      1.0000 0.36530  0.27300  0.62060  Biso   1.000  H
  C23      1.0000 0.62840  0.81970  0.19510  Biso   1.000  C
  C24      1.0000 0.37160  0.18030  0.80490  Biso   1.000  C
  H17      1.0000 0.62610  0.80080  0.12190  Biso   1.000  H
  H18      1.0000 0.37390  0.19920  0.87810  Biso   1.000  H
  H19      1.0000 0.69660  0.88340  0.15940  Biso   1.000  H
  H20      1.0000 0.30340  0.11660  0.84060  Biso   1.000  H
  C25      1.0000 0.49800  0.85900  0.27600  Biso   1.000  C
  C26      1.0000 0.50200  0.14100  0.72400  Biso   1.000  C
  H21      1.0000 0.49310  0.84100  0.36560  Biso   1.000  H
  H22      1.0000 0.50690  0.15900  0.63440  Biso   1.000  H
  H23      1.0000 0.42990  0.81130  0.28210  Biso   1.000  H
  H24      1.0000 0.57010  0.18870  0.71790  Biso   1.000  H
  H25      1.0000 0.48680  0.94940  0.23190  Biso   1.000  H
  H26      1.0000 0.51320  0.05060  0.76810  Biso   1.000  H
  C27      1.0000 0.76260  0.52100  0.39850  Biso   1.000  C
  C28      1.0000 0.23740  0.47900  0.60150  Biso   1.000  C
  H27      1.0000 0.74500  0.55800  0.46560  Biso   1.000  H
  H28      1.0000 0.25500  0.44200  0.53440  Biso   1.000  H
  H29      1.0000 0.68830  0.46600  0.42950  Biso   1.000  H
  H30      1.0000 0.31170  0.53400  0.57050  Biso   1.000  H
  C29      1.0000 0.86800  0.44550  0.39750  Biso   1.000  C
  C30      1.0000 0.13200  0.55450  0.60250  Biso   1.000  C
  H31      1.0000 0.94290  0.50010  0.36580  Biso   1.000  H
  H32      1.0000 0.05710  0.49990  0.63420  Biso   1.000  H
  H33      1.0000 0.88510  0.40690  0.33180  Biso   1.000  H
  H34      1.0000 0.11490  0.59310  0.66820  Biso   1.000  H
  C31      1.0000 0.85780  0.33300  0.53860  Biso   1.000  C
  C32      1.0000 0.14220  0.66700  0.46140  Biso   1.000  C
  H35      1.0000 0.83250  0.36820  0.60730  Biso   1.000  H
  H36      1.0000 0.16750  0.63180  0.39270  Biso   1.000  H
  H37      1.0000 0.94110  0.29290  0.52940  Biso   1.000  H
  H38      1.0000 0.05890  0.70710  0.47060  Biso   1.000  H
  H39      1.0000 0.79370  0.26990  0.56420  Biso   1.000  H
  H40      1.0000 0.20630  0.73010  0.43580  Biso   1.000  H
  C33      1.0000 0.78490  0.58990  0.15130  Biso   1.000  C
  C34      1.0000 0.21510  0.41010  0.84870  Biso   1.000  C
  C35      1.0000 0.89530  0.65060  0.03490  Biso   1.000  C
  C36      1.0000 0.10470  0.34940  0.96510  Biso   1.000  C
  C37      1.0000 0.92540  0.63210  0.91850  Biso   1.000  C
  C38      1.0000 0.07460  0.36790  0.08150  Biso   1.000  C
  H41      1.0000 0.99970  0.67140  0.84280  Biso   1.000  H
  H42      1.0000 0.00030  0.32860  0.15720  Biso   1.000  H
  C39      1.0000 0.84550  0.55460  0.91210  Biso   1.000  C
  C40      1.0000 0.15450  0.44540  0.08790  Biso   1.000  C
  H43      1.0000 0.86470  0.54320  0.83180  Biso   1.000  H
  H44      1.0000 0.13530  0.45680  0.16820  Biso   1.000  H
  C41      1.0000 0.73750  0.49470  0.02560  Biso   1.000  C
  C42      1.0000 0.26250  0.50530  0.97440  Biso   1.000  C
  C43      1.0000 0.70650  0.51090  0.14630  Biso   1.000  C
  C44      1.0000 0.29350  0.48910  0.85370  Biso   1.000  C
  H45      1.0000 0.63380  0.46900  0.22270  Biso   1.000  H
  H46      1.0000 0.36620  0.53100  0.77730  Biso   1.000  H
  C45      1.0000 0.55760  0.33930  0.11550  Biso   1.000  C
  C46      1.0000 0.44240  0.66070  0.88450  Biso   1.000  C
  H47      1.0000 0.53200  0.32820  0.20580  Biso   1.000  H
  H48      1.0000 0.46800  0.67180  0.79420  Biso   1.000  H
  C47      1.0000 0.65980  0.40780  0.90090  Biso   1.000  C
  C48      1.0000 0.34020  0.59220  0.09910  Biso   1.000  C
  H49      1.0000 0.71760  0.45190  0.81280  Biso   1.000  H
  H50      1.0000 0.28240  0.54810  0.18720  Biso   1.000  H
  C49      1.0000 0.56470  0.32430  0.93890  Biso   1.000  C
  C50      1.0000 0.43530  0.67570  0.06110  Biso   1.000  C
  H51      1.0000 0.54650  0.30060  0.88000  Biso   1.000  H
  H52      1.0000 0.45350  0.69940  0.12000  Biso   1.000  H
  Cl1      1.0000 0.27536  0.23825  0.39221  Biso   1.000  Cl
  Cl2      1.0000 0.72464  0.76175  0.60779  Biso   1.000  Cl
  Cl3      1.0000 0.36470  0.90930  0.64390  Biso   1.000  Cl
  Cl4      1.0000 0.63530  0.09070  0.35610  Biso   1.000  Cl
  Cu1      1.0000 0.34448  0.17705  0.18463  Biso   1.000  Cu
  Cu2      1.0000 0.65552  0.82295  0.81537  Biso   1.000  Cu
  Cu3      1.0000 0.40388  0.08869  0.46063  Biso   1.000  Cu
  Cu4      1.0000 0.59612  0.91131  0.53937  Biso   1.000  Cu
  N1       1.0000 0.20240  0.06890  0.23270  Biso   1.000  N
  N2       1.0000 0.79760  0.93110  0.76730  Biso   1.000  N
  N3       1.0000 0.07700  0.94840  0.21790  Biso   1.000  N
  N4       1.0000 0.92300  0.05160  0.78210  Biso   1.000  N
  N5       1.0000 0.65520  0.41530  0.01550  Biso   1.000  N
  N6       1.0000 0.34480  0.58470  0.98450  Biso   1.000  N
  N7       1.0000 0.49980  0.28020  0.07380  Biso   1.000  N
  N8       1.0000 0.50020  0.71980  0.92620  Biso   1.000  N
  C51      1.0000 0.49900  0.90620  0.20600  Biso   1.000  C
  C52      1.0000 0.50100  0.09380  0.79400  Biso   1.000  C
  H53      1.0000 0.42450  0.85220  0.23770  Biso   1.000  H
  H54      1.0000 0.57550  0.14780  0.76230  Biso   1.000  H
  H55      1.0000 0.50970  0.97130  0.11820  Biso   1.000  H
  H56      1.0000 0.49030  0.02870  0.88180  Biso   1.000  H
  H57      1.0000 0.48510  0.94640  0.26860  Biso   1.000  H
  H58      1.0000 0.51490  0.05360  0.73140  Biso   1.000  H
  Cl5      1.0000 0.36170  0.87300  0.60880  Biso   1.000  Cl
  Cl6      1.0000 0.63830  0.12700  0.39120  Biso   1.000  Cl
