data_image0
_cell_length_a       8.52
_cell_length_b       17.573
_cell_length_c       9.483
_cell_angle_alpha    90
_cell_angle_beta     102.185
_cell_angle_gamma    90

_symmetry_space_group_name_H-M    "P 1"
_symmetry_int_tables_number       1

loop_
  _symmetry_equiv_pos_as_xyz
  'x, y, z'

loop_
  _atom_site_label
  _atom_site_occupancy
  _atom_site_fract_x
  _atom_site_fract_y
  _atom_site_fract_z
  _atom_site_thermal_displace_type
  _atom_site_B_iso_or_equiv
  _atom_site_type_symbol
  Cu1      1.0000 0.26963  0.64197  0.22629  Biso   1.000  Cu
  Cu2      1.0000 0.73037  0.14197  0.27371  Biso   1.000  Cu
  Cu3      1.0000 0.73037  0.35803  0.77371  Biso   1.000  Cu
  Cu4      1.0000 0.26963  0.85803  0.72629  Biso   1.000  Cu
  P1       1.0000 0.87050  0.84886  0.14280  Biso   1.000  P
  P2       1.0000 0.12950  0.34886  0.35720  Biso   1.000  P
  P3       1.0000 0.12950  0.15114  0.85720  Biso   1.000  P
  P4       1.0000 0.87050  0.65114  0.64280  Biso   1.000  P
  F1       1.0000 0.68960  0.86870  0.07830  Biso   1.000  F
  F2       1.0000 0.31040  0.36870  0.42170  Biso   1.000  F
  F3       1.0000 0.31040  0.13130  0.92170  Biso   1.000  F
  F4       1.0000 0.68960  0.63130  0.57830  Biso   1.000  F
  F5       1.0000 0.80860  0.77310  0.20540  Biso   1.000  F
  F6       1.0000 0.19140  0.27310  0.29460  Biso   1.000  F
  F7       1.0000 0.19140  0.22690  0.79460  Biso   1.000  F
  F8       1.0000 0.80860  0.72690  0.70540  Biso   1.000  F
  F9       1.0000 0.88280  0.80280  0.00330  Biso   1.000  F
  F10      1.0000 0.11720  0.30280  0.49670  Biso   1.000  F
  F11      1.0000 0.11720  0.19720  0.99670  Biso   1.000  F
  F12      1.0000 0.88280  0.69720  0.50330  Biso   1.000  F
  F13      1.0000 0.93200  0.92380  0.08400  Biso   1.000  F
  F14      1.0000 0.06800  0.42380  0.41600  Biso   1.000  F
  F15      1.0000 0.06800  0.07620  0.91600  Biso   1.000  F
  F16      1.0000 0.93200  0.57620  0.58400  Biso   1.000  F
  F17      1.0000 0.05030  0.82750  0.21430  Biso   1.000  F
  F18      1.0000 0.94970  0.32750  0.28570  Biso   1.000  F
  F19      1.0000 0.94970  0.17250  0.78570  Biso   1.000  F
  F20      1.0000 0.05030  0.67250  0.71430  Biso   1.000  F
  F21      1.0000 0.86070  0.89300  0.28690  Biso   1.000  F
  F22      1.0000 0.13930  0.39300  0.21310  Biso   1.000  F
  F23      1.0000 0.13930  0.10700  0.71310  Biso   1.000  F
  F24      1.0000 0.86070  0.60700  0.78690  Biso   1.000  F
  N1       1.0000 0.35380  0.68500  0.04600  Biso   1.000  N
  N2       1.0000 0.64620  0.18500  0.45400  Biso   1.000  N
  N3       1.0000 0.64620  0.31500  0.95400  Biso   1.000  N
  N4       1.0000 0.35380  0.81500  0.54600  Biso   1.000  N
  N5       1.0000 0.46260  0.56890  0.21900  Biso   1.000  N
  N6       1.0000 0.53740  0.06890  0.28100  Biso   1.000  N
  N7       1.0000 0.53740  0.43110  0.78100  Biso   1.000  N
  N8       1.0000 0.46260  0.93110  0.71900  Biso   1.000  N
  N9       1.0000 0.37100  0.77830  0.86850  Biso   1.000  N
  N10      1.0000 0.62900  0.27830  0.63150  Biso   1.000  N
  N11      1.0000 0.62900  0.22170  0.13150  Biso   1.000  N
  N12      1.0000 0.37100  0.72170  0.36850  Biso   1.000  N
  C1       1.0000 0.29760  0.74410  0.96340  Biso   1.000  C
  C2       1.0000 0.70240  0.24410  0.53660  Biso   1.000  C
  C3       1.0000 0.70240  0.25590  0.03660  Biso   1.000  C
  C4       1.0000 0.29760  0.75590  0.46340  Biso   1.000  C
  C5       1.0000 0.51610  0.74990  0.86030  Biso   1.000  C
  C6       1.0000 0.48390  0.24990  0.63970  Biso   1.000  C
  C7       1.0000 0.48390  0.25010  0.13970  Biso   1.000  C
  C8       1.0000 0.51610  0.75010  0.36030  Biso   1.000  C
  C9       1.0000 0.58230  0.68730  0.93860  Biso   1.000  C
  C10      1.0000 0.41770  0.18730  0.56140  Biso   1.000  C
  C11      1.0000 0.41770  0.31270  0.06140  Biso   1.000  C
  C12      1.0000 0.58230  0.81270  0.43860  Biso   1.000  C
  C13      1.0000 0.68040  0.54290  0.10230  Biso   1.000  C
  C14      1.0000 0.31960  0.04290  0.39770  Biso   1.000  C
  C15      1.0000 0.31960  0.45710  0.89770  Biso   1.000  C
  C16      1.0000 0.68040  0.95710  0.60230  Biso   1.000  C
  C17      1.0000 0.72490  0.47950  0.18980  Biso   1.000  C
  C18      1.0000 0.27510  0.97950  0.31020  Biso   1.000  C
  C19      1.0000 0.27510  0.52050  0.81020  Biso   1.000  C
  C20      1.0000 0.72490  0.02050  0.68980  Biso   1.000  C
  C21      1.0000 0.63430  0.46120  0.29160  Biso   1.000  C
  C22      1.0000 0.36570  0.96120  0.20840  Biso   1.000  C
  C23      1.0000 0.36570  0.53880  0.70840  Biso   1.000  C
  C24      1.0000 0.63430  0.03880  0.79160  Biso   1.000  C
  C25      1.0000 0.50270  0.50650  0.30180  Biso   1.000  C
  C26      1.0000 0.49730  0.00650  0.19820  Biso   1.000  C
  C27      1.0000 0.49730  0.49350  0.69820  Biso   1.000  C
  C28      1.0000 0.50270  0.99350  0.80180  Biso   1.000  C
  C29      1.0000 0.49630  0.65400  0.03260  Biso   1.000  C
  C30      1.0000 0.50370  0.15400  0.46740  Biso   1.000  C
  C31      1.0000 0.50370  0.34600  0.96740  Biso   1.000  C
  C32      1.0000 0.49630  0.84600  0.53260  Biso   1.000  C
  C33      1.0000 0.55000  0.58660  0.12040  Biso   1.000  C
  C34      1.0000 0.45000  0.08660  0.37960  Biso   1.000  C
  C35      1.0000 0.45000  0.41340  0.87960  Biso   1.000  C
  C36      1.0000 0.55000  0.91340  0.62040  Biso   1.000  C
  C37      1.0000 0.05020  0.61380  0.26260  Biso   1.000  C
  C38      1.0000 0.94980  0.11380  0.23740  Biso   1.000  C
  C39      1.0000 0.94980  0.38620  0.73740  Biso   1.000  C
  C40      1.0000 0.05020  0.88620  0.76260  Biso   1.000  C
  C41      1.0000 0.06670  0.58270  0.14040  Biso   1.000  C
  C42      1.0000 0.93330  0.08270  0.35960  Biso   1.000  C
  C43      1.0000 0.93330  0.41730  0.85960  Biso   1.000  C
  C44      1.0000 0.06670  0.91730  0.64040  Biso   1.000  C
  H1       1.0000 0.43910  0.49280  0.36900  Biso   1.000  H
  H2       1.0000 0.56090  0.99280  0.13100  Biso   1.000  H
  H3       1.0000 0.56090  0.50720  0.63100  Biso   1.000  H
  H4       1.0000 0.43910  0.00720  0.86900  Biso   1.000  H
  H5       1.0000 0.68350  0.66760  0.92900  Biso   1.000  H
  H6       1.0000 0.31650  0.16760  0.57100  Biso   1.000  H
  H7       1.0000 0.31650  0.33240  0.07100  Biso   1.000  H
  H8       1.0000 0.68350  0.83240  0.42900  Biso   1.000  H
  H9       1.0000 0.73840  0.55610  0.03060  Biso   1.000  H
  H10      1.0000 0.26160  0.05610  0.46940  Biso   1.000  H
  H11      1.0000 0.26160  0.44390  0.96940  Biso   1.000  H
  H12      1.0000 0.73840  0.94390  0.53060  Biso   1.000  H
  H13      1.0000 0.81470  0.44940  0.18030  Biso   1.000  H
  H14      1.0000 0.18530  0.94940  0.31970  Biso   1.000  H
  H15      1.0000 0.18530  0.55060  0.81970  Biso   1.000  H
  H16      1.0000 0.81470  0.05060  0.68030  Biso   1.000  H
  H17      1.0000 0.57490  0.77400  0.79810  Biso   1.000  H
  H18      1.0000 0.42510  0.27400  0.70190  Biso   1.000  H
  H19      1.0000 0.42510  0.22600  0.20190  Biso   1.000  H
  H20      1.0000 0.57490  0.72600  0.29810  Biso   1.000  H
  H21      1.0000 0.19630  0.76380  0.97250  Biso   1.000  H
  H22      1.0000 0.80370  0.26380  0.52750  Biso   1.000  H
  H23      1.0000 0.80370  0.23620  0.02750  Biso   1.000  H
  H24      1.0000 0.19630  0.73620  0.47250  Biso   1.000  H
  H25      1.0000 0.66240  0.41860  0.35350  Biso   1.000  H
  H26      1.0000 0.33760  0.91860  0.14650  Biso   1.000  H
  H27      1.0000 0.33760  0.58140  0.64650  Biso   1.000  H
  H28      1.0000 0.66240  0.08140  0.85350  Biso   1.000  H
  H29      1.0000 0.00080  0.60100  0.05360  Biso   1.000  H
  H30      1.0000 0.99920  0.10100  0.44640  Biso   1.000  H
  H31      1.0000 0.99920  0.39900  0.94640  Biso   1.000  H
  H32      1.0000 0.00080  0.89900  0.55360  Biso   1.000  H
  H33      1.0000 0.07380  0.52880  0.13630  Biso   1.000  H
  H34      1.0000 0.92620  0.02880  0.36370  Biso   1.000  H
  H35      1.0000 0.92620  0.47120  0.86370  Biso   1.000  H
  H36      1.0000 0.07380  0.97120  0.63630  Biso   1.000  H
  H37      1.0000 0.04600  0.58100  0.34140  Biso   1.000  H
  H38      1.0000 0.95400  0.08100  0.15860  Biso   1.000  H
  H39      1.0000 0.95400  0.41900  0.65860  Biso   1.000  H
  H40      1.0000 0.04600  0.91900  0.84140  Biso   1.000  H
  H41      1.0000 0.97300  0.65320  0.25860  Biso   1.000  H
  H42      1.0000 0.02700  0.15320  0.24140  Biso   1.000  H
  H43      1.0000 0.02700  0.34680  0.74140  Biso   1.000  H
  H44      1.0000 0.97300  0.84680  0.75860  Biso   1.000  H
