data_image0
_cell_length_a       6.0257
_cell_length_b       16.9504
_cell_length_c       9.4933
_cell_angle_alpha    90
_cell_angle_beta     93.433
_cell_angle_gamma    90

_symmetry_space_group_name_H-M    "P 1"
_symmetry_int_tables_number       1

loop_
  _symmetry_equiv_pos_as_xyz
  'x, y, z'

loop_
  _atom_site_label
  _atom_site_occupancy
  _atom_site_fract_x
  _atom_site_fract_y
  _atom_site_fract_z
  _atom_site_thermal_displace_type
  _atom_site_B_iso_or_equiv
  _atom_site_type_symbol
  C1       1.0000 0.96100  0.11203  0.52870  Biso   1.000  C
  C2       1.0000 0.03900  0.61203  0.97130  Biso   1.000  C
  C3       1.0000 0.03900  0.88797  0.47130  Biso   1.000  C
  C4       1.0000 0.96100  0.38797  0.02870  Biso   1.000  C
  H1       1.0000 0.84140  0.07900  0.56490  Biso   1.000  H
  H2       1.0000 0.15860  0.57900  0.93510  Biso   1.000  H
  H3       1.0000 0.15860  0.92100  0.43510  Biso   1.000  H
  H4       1.0000 0.84140  0.42100  0.06490  Biso   1.000  H
  H5       1.0000 0.92810  0.16780  0.55020  Biso   1.000  H
  H6       1.0000 0.07190  0.66780  0.94980  Biso   1.000  H
  H7       1.0000 0.07190  0.83220  0.44980  Biso   1.000  H
  H8       1.0000 0.92810  0.33220  0.05020  Biso   1.000  H
  C5       1.0000 0.18060  0.08911  0.60120  Biso   1.000  C
  C6       1.0000 0.81940  0.58911  0.89880  Biso   1.000  C
  C7       1.0000 0.81940  0.91089  0.39880  Biso   1.000  C
  C8       1.0000 0.18060  0.41089  0.10120  Biso   1.000  C
  H9       1.0000 0.17820  0.09920  0.70380  Biso   1.000  H
  H10      1.0000 0.82180  0.59920  0.79620  Biso   1.000  H
  H11      1.0000 0.82180  0.90080  0.29620  Biso   1.000  H
  H12      1.0000 0.17820  0.40080  0.20380  Biso   1.000  H
  H13      1.0000 0.20860  0.03220  0.58710  Biso   1.000  H
  H14      1.0000 0.79140  0.53220  0.91290  Biso   1.000  H
  H15      1.0000 0.79140  0.96780  0.41290  Biso   1.000  H
  H16      1.0000 0.20860  0.46780  0.08710  Biso   1.000  H
  C9       1.0000 0.36370  0.12617  0.38880  Biso   1.000  C
  C10      1.0000 0.63630  0.62617  0.11120  Biso   1.000  C
  C11      1.0000 0.63630  0.87383  0.61120  Biso   1.000  C
  C12      1.0000 0.36370  0.37383  0.88880  Biso   1.000  C
  H17      1.0000 0.47940  0.16160  0.35180  Biso   1.000  H
  H18      1.0000 0.52060  0.66160  0.14820  Biso   1.000  H
  H19      1.0000 0.52060  0.83840  0.64820  Biso   1.000  H
  H20      1.0000 0.47940  0.33840  0.85180  Biso   1.000  H
  C13      1.0000 0.13490  0.14870  0.32180  Biso   1.000  C
  C14      1.0000 0.86510  0.64870  0.17820  Biso   1.000  C
  C15      1.0000 0.86510  0.85130  0.67820  Biso   1.000  C
  C16      1.0000 0.13490  0.35130  0.82180  Biso   1.000  C
  H21      1.0000 0.10560  0.20560  0.34150  Biso   1.000  H
  H22      1.0000 0.89440  0.70560  0.15850  Biso   1.000  H
  H23      1.0000 0.89440  0.79440  0.65850  Biso   1.000  H
  H24      1.0000 0.10560  0.29440  0.84150  Biso   1.000  H
  C17      1.0000 0.42070  0.03620  0.20580  Biso   1.000  C
  C18      1.0000 0.57930  0.53620  0.29420  Biso   1.000  C
  C19      1.0000 0.57930  0.96380  0.79420  Biso   1.000  C
  C20      1.0000 0.42070  0.46380  0.70580  Biso   1.000  C
  H25      1.0000 0.46170  0.98110  0.18440  Biso   1.000  H
  H26      1.0000 0.53830  0.48110  0.31560  Biso   1.000  H
  H27      1.0000 0.53830  0.01890  0.81560  Biso   1.000  H
  H28      1.0000 0.46170  0.51890  0.68440  Biso   1.000  H
  H29      1.0000 0.53460  0.07160  0.16920  Biso   1.000  H
  H30      1.0000 0.46540  0.57160  0.33080  Biso   1.000  H
  H31      1.0000 0.46540  0.92840  0.83080  Biso   1.000  H
  H32      1.0000 0.53460  0.42840  0.66920  Biso   1.000  H
  C21      1.0000 0.19670  0.05505  0.13480  Biso   1.000  C
  C22      1.0000 0.80330  0.55505  0.36520  Biso   1.000  C
  C23      1.0000 0.80330  0.94495  0.86520  Biso   1.000  C
  C24      1.0000 0.19670  0.44495  0.63480  Biso   1.000  C
  H33      1.0000 0.20250  0.04950  0.03130  Biso   1.000  H
  H34      1.0000 0.79750  0.54950  0.46870  Biso   1.000  H
  H35      1.0000 0.79750  0.95050  0.96870  Biso   1.000  H
  H36      1.0000 0.20250  0.45050  0.53130  Biso   1.000  H
  H37      1.0000 0.08380  0.01780  0.16720  Biso   1.000  H
  H38      1.0000 0.91620  0.51780  0.33280  Biso   1.000  H
  H39      1.0000 0.91620  0.98220  0.83280  Biso   1.000  H
  H40      1.0000 0.08380  0.48220  0.66720  Biso   1.000  H
  Ag1      1.0000 0.33276  0.26614  0.58461  Biso   1.000  Ag
  Ag2      1.0000 0.66724  0.76614  0.91539  Biso   1.000  Ag
  Ag3      1.0000 0.66724  0.73386  0.41539  Biso   1.000  Ag
  Ag4      1.0000 0.33276  0.23386  0.08461  Biso   1.000  Ag
  N1       1.0000 0.35870  0.13647  0.54060  Biso   1.000  N
  N2       1.0000 0.64130  0.63647  0.95940  Biso   1.000  N
  N3       1.0000 0.64130  0.86353  0.45940  Biso   1.000  N
  N4       1.0000 0.35870  0.36353  0.04060  Biso   1.000  N
  H41      1.0000 0.48060  0.12560  0.58080  Biso   1.000  H
  H42      1.0000 0.51940  0.62560  0.91920  Biso   1.000  H
  H43      1.0000 0.51940  0.87440  0.41920  Biso   1.000  H
  H44      1.0000 0.48060  0.37440  0.08080  Biso   1.000  H
  N5       1.0000 0.13510  0.13694  0.17050  Biso   1.000  N
  N6       1.0000 0.86490  0.63694  0.32950  Biso   1.000  N
  N7       1.0000 0.86490  0.86306  0.82950  Biso   1.000  N
  N8       1.0000 0.13510  0.36306  0.67050  Biso   1.000  N
  H45      1.0000 0.01250  0.14780  0.13580  Biso   1.000  H
  H46      1.0000 0.98750  0.64780  0.36420  Biso   1.000  H
  H47      1.0000 0.98750  0.85220  0.86420  Biso   1.000  H
  H48      1.0000 0.01250  0.35220  0.63580  Biso   1.000  H
  N9       1.0000 0.69870  0.32574  0.40810  Biso   1.000  N
  N10      1.0000 0.30130  0.82574  0.09190  Biso   1.000  N
  N11      1.0000 0.30130  0.67426  0.59190  Biso   1.000  N
  N12      1.0000 0.69870  0.17426  0.90810  Biso   1.000  N
  O1       1.0000 0.96450  0.10199  0.37747  Biso   1.000  O
  O2       1.0000 0.03550  0.60199  0.12253  Biso   1.000  O
  O3       1.0000 0.03550  0.89801  0.62253  Biso   1.000  O
  O4       1.0000 0.96450  0.39801  0.87747  Biso   1.000  O
  O5       1.0000 0.41440  0.04626  0.35688  Biso   1.000  O
  O6       1.0000 0.58560  0.54626  0.14312  Biso   1.000  O
  O7       1.0000 0.58560  0.95374  0.64312  Biso   1.000  O
  O8       1.0000 0.41440  0.45374  0.85688  Biso   1.000  O
  O9       1.0000 0.71710  0.30361  0.53570  Biso   1.000  O
  O10      1.0000 0.28290  0.80361  0.96430  Biso   1.000  O
  O11      1.0000 0.28290  0.69639  0.46430  Biso   1.000  O
  O12      1.0000 0.71710  0.19639  0.03570  Biso   1.000  O
  O13      1.0000 0.86400  0.35025  0.35040  Biso   1.000  O
  O14      1.0000 0.13600  0.85025  0.14960  Biso   1.000  O
  O15      1.0000 0.13600  0.64975  0.64960  Biso   1.000  O
  O16      1.0000 0.86400  0.14975  0.85040  Biso   1.000  O
  O17      1.0000 0.51000  0.32313  0.34520  Biso   1.000  O
  O18      1.0000 0.49000  0.82313  0.15480  Biso   1.000  O
  O19      1.0000 0.49000  0.67687  0.65480  Biso   1.000  O
  O20      1.0000 0.51000  0.17687  0.84520  Biso   1.000  O
