data_image0
_cell_length_a       11.2778
_cell_length_b       14.0507
_cell_length_c       15.2067
_cell_angle_alpha    93.706
_cell_angle_beta     102.637
_cell_angle_gamma    100.241

_symmetry_space_group_name_H-M    "P 1"
_symmetry_int_tables_number       1

loop_
  _symmetry_equiv_pos_as_xyz
  'x, y, z'

loop_
  _atom_site_label
  _atom_site_occupancy
  _atom_site_fract_x
  _atom_site_fract_y
  _atom_site_fract_z
  _atom_site_thermal_displace_type
  _atom_site_B_iso_or_equiv
  _atom_site_type_symbol
  Cu1      1.0000 0.80294  0.21577  0.29751  Biso   1.000  Cu
  Cu2      1.0000 0.19706  0.78423  0.70249  Biso   1.000  Cu
  Cu3      1.0000 0.69217  0.14043  0.42999  Biso   1.000  Cu
  Cu4      1.0000 0.30783  0.85957  0.57001  Biso   1.000  Cu
  Cu5      1.0000 0.57506  0.23590  0.30003  Biso   1.000  Cu
  Cu6      1.0000 0.42494  0.76410  0.69997  Biso   1.000  Cu
  Cu7      1.0000 0.76960  0.33899  0.42994  Biso   1.000  Cu
  Cu8      1.0000 0.23040  0.66101  0.57006  Biso   1.000  Cu
  I1       1.0000 0.61144  0.05941  0.26018  Biso   1.000  I
  I2       1.0000 0.38856  0.94059  0.73982  Biso   1.000  I
  I3       1.0000 0.93326  0.22458  0.47553  Biso   1.000  I
  I4       1.0000 0.06674  0.77542  0.52447  Biso   1.000  I
  I5       1.0000 0.73940  0.38277  0.26059  Biso   1.000  I
  I6       1.0000 0.26060  0.61723  0.73941  Biso   1.000  I
  I7       1.0000 0.56027  0.26575  0.47920  Biso   1.000  I
  I8       1.0000 0.43973  0.73425  0.52080  Biso   1.000  I
  S1       1.0000 0.95590  0.17735  0.23061  Biso   1.000  S
  S2       1.0000 0.04410  0.82265  0.76939  Biso   1.000  S
  S3       1.0000 0.33387  0.98495  0.48078  Biso   1.000  S
  S4       1.0000 0.66613  0.01505  0.51922  Biso   1.000  S
  S5       1.0000 0.38034  0.26478  0.24216  Biso   1.000  S
  S6       1.0000 0.61966  0.73522  0.75784  Biso   1.000  S
  S7       1.0000 0.15082  0.51318  0.48316  Biso   1.000  S
  S8       1.0000 0.84918  0.48682  0.51684  Biso   1.000  S
  O1       1.0000 0.05730  0.96330  0.16560  Biso   1.000  O
  O2       1.0000 0.94270  0.03670  0.83440  Biso   1.000  O
  O3       1.0000 0.24240  0.46330  0.17530  Biso   1.000  O
  O4       1.0000 0.75760  0.53670  0.82470  Biso   1.000  O
  N1       1.0000 0.16760  0.03610  0.30360  Biso   1.000  N
  N2       1.0000 0.83240  0.96390  0.69640  Biso   1.000  N
  N3       1.0000 0.21400  0.41990  0.31120  Biso   1.000  N
  N4       1.0000 0.78600  0.58010  0.68880  Biso   1.000  N
  C1       1.0000 0.77040  0.13690  0.06840  Biso   1.000  C
  C2       1.0000 0.22960  0.86310  0.93160  Biso   1.000  C
  H1       1.0000 0.72770  0.18430  0.09330  Biso   1.000  H
  H2       1.0000 0.27230  0.81570  0.90670  Biso   1.000  H
  H3       1.0000 0.74110  0.07250  0.08730  Biso   1.000  H
  H4       1.0000 0.25890  0.92750  0.91270  Biso   1.000  H
  C3       1.0000 0.73880  0.13130  0.96530  Biso   1.000  C
  C4       1.0000 0.26120  0.86870  0.03470  Biso   1.000  C
  H5       1.0000 0.77740  0.08110  0.94020  Biso   1.000  H
  H6       1.0000 0.22260  0.91890  0.05980  Biso   1.000  H
  H7       1.0000 0.64790  0.11240  0.94190  Biso   1.000  H
  H8       1.0000 0.35210  0.88760  0.05810  Biso   1.000  H
  C5       1.0000 0.78550  0.22900  0.93510  Biso   1.000  C
  C6       1.0000 0.21450  0.77100  0.06490  Biso   1.000  C
  H9       1.0000 0.74060  0.27770  0.95510  Biso   1.000  H
  H10      1.0000 0.25940  0.72230  0.04490  Biso   1.000  H
  H11      1.0000 0.76840  0.22340  0.86810  Biso   1.000  H
  H12      1.0000 0.23160  0.77660  0.13190  Biso   1.000  H
  C7       1.0000 0.92440  0.26320  0.97450  Biso   1.000  C
  C8       1.0000 0.07560  0.73680  0.02550  Biso   1.000  C
  H13      1.0000 0.96970  0.21880  0.94840  Biso   1.000  H
  H14      1.0000 0.03030  0.78120  0.05160  Biso   1.000  H
  H15      1.0000 0.95100  0.32900  0.95730  Biso   1.000  H
  H16      1.0000 0.04900  0.67100  0.04270  Biso   1.000  H
  C9       1.0000 0.95740  0.26620  0.07710  Biso   1.000  C
  C10      1.0000 0.04260  0.73380  0.92290  Biso   1.000  C
  H17      1.0000 0.92060  0.31650  0.10390  Biso   1.000  H
  H18      1.0000 0.07940  0.68350  0.89610  Biso   1.000  H
  H19      1.0000 0.04850  0.28380  0.09980  Biso   1.000  H
  H20      1.0000 0.95150  0.71620  0.90020  Biso   1.000  H
  C11      1.0000 0.90960  0.16800  0.10590  Biso   1.000  C
  C12      1.0000 0.09040  0.83200  0.89410  Biso   1.000  C
  H21      1.0000 0.95100  0.11880  0.08080  Biso   1.000  H
  H22      1.0000 0.04900  0.88120  0.91920  Biso   1.000  H
  C13      1.0000 0.94780  0.05040  0.25000  Biso   1.000  C
  C14      1.0000 0.05220  0.94960  0.75000  Biso   1.000  C
  H23      1.0000 0.93960  0.04270  0.31280  Biso   1.000  H
  H24      1.0000 0.06040  0.95730  0.68720  Biso   1.000  H
  H25      1.0000 0.87310  0.01060  0.20820  Biso   1.000  H
  H26      1.0000 0.12690  0.98940  0.79180  Biso   1.000  H
  C15      1.0000 0.06180  0.01320  0.23580  Biso   1.000  C
  C16      1.0000 0.93820  0.98680  0.76420  Biso   1.000  C
  C17      1.0000 0.27590  0.99680  0.29470  Biso   1.000  C
  C18      1.0000 0.72410  0.00320  0.70530  Biso   1.000  C
  H27      1.0000 0.34820  0.05060  0.30210  Biso   1.000  H
  H28      1.0000 0.65180  0.94940  0.69790  Biso   1.000  H
  H29      1.0000 0.26050  0.96170  0.23350  Biso   1.000  H
  H30      1.0000 0.73950  0.03830  0.76650  Biso   1.000  H
  C19      1.0000 0.30410  0.92730  0.36610  Biso   1.000  C
  C20      1.0000 0.69590  0.07270  0.63390  Biso   1.000  C
  H31      1.0000 0.37730  0.90090  0.35840  Biso   1.000  H
  H32      1.0000 0.62270  0.09910  0.64160  Biso   1.000  H
  H33      1.0000 0.23290  0.87200  0.35640  Biso   1.000  H
  H34      1.0000 0.76710  0.12800  0.64360  Biso   1.000  H
  C21      1.0000 0.19680  0.03780  0.46890  Biso   1.000  C
  C22      1.0000 0.80320  0.96220  0.53110  Biso   1.000  C
  H35      1.0000 0.12280  0.98540  0.46080  Biso   1.000  H
  H36      1.0000 0.87720  0.01460  0.53920  Biso   1.000  H
  H37      1.0000 0.20300  0.08040  0.52490  Biso   1.000  H
  H38      1.0000 0.79700  0.91960  0.47510  Biso   1.000  H
  C23      1.0000 0.18230  0.09670  0.38850  Biso   1.000  C
  C24      1.0000 0.81770  0.90330  0.61150  Biso   1.000  C
  H39      1.0000 0.10890  0.12710  0.38520  Biso   1.000  H
  H40      1.0000 0.89110  0.87290  0.61480  Biso   1.000  H
  H41      1.0000 0.25610  0.14940  0.39700  Biso   1.000  H
  H42      1.0000 0.74390  0.85060  0.60300  Biso   1.000  H
  C25      1.0000 0.26270  0.14320  0.09100  Biso   1.000  C
  C26      1.0000 0.73730  0.85680  0.90900  Biso   1.000  C
  H43      1.0000 0.31470  0.09670  0.11530  Biso   1.000  H
  H44      1.0000 0.68530  0.90330  0.88470  Biso   1.000  H
  H45      1.0000 0.18870  0.13390  0.11690  Biso   1.000  H
  H46      1.0000 0.81130  0.86610  0.88310  Biso   1.000  H
  C27      1.0000 0.22290  0.12350  0.98890  Biso   1.000  C
  C28      1.0000 0.77710  0.87650  0.01110  Biso   1.000  C
  H47      1.0000 0.16700  0.16750  0.96510  Biso   1.000  H
  H48      1.0000 0.83300  0.83250  0.03490  Biso   1.000  H
  H49      1.0000 0.17650  0.05570  0.97170  Biso   1.000  H
  H50      1.0000 0.82350  0.94430  0.02830  Biso   1.000  H
  C29      1.0000 0.33580  0.13910  0.94660  Biso   1.000  C
  C30      1.0000 0.66420  0.86090  0.05340  Biso   1.000  C
  H51      1.0000 0.38990  0.09290  0.96800  Biso   1.000  H
  H52      1.0000 0.61010  0.90710  0.03200  Biso   1.000  H
  H53      1.0000 0.30780  0.12630  0.87980  Biso   1.000  H
  H54      1.0000 0.69220  0.87370  0.12020  Biso   1.000  H
  C31      1.0000 0.40800  0.24240  0.97260  Biso   1.000  C
  C32      1.0000 0.59200  0.75760  0.02740  Biso   1.000  C
  H55      1.0000 0.35620  0.28810  0.94620  Biso   1.000  H
  H56      1.0000 0.64380  0.71190  0.05380  Biso   1.000  H
  H57      1.0000 0.48270  0.25070  0.94750  Biso   1.000  H
  H58      1.0000 0.51730  0.74930  0.05250  Biso   1.000  H
  C33      1.0000 0.44690  0.26610  0.07560  Biso   1.000  C
  C34      1.0000 0.55310  0.73390  0.92440  Biso   1.000  C
  H59      1.0000 0.50710  0.22590  0.10120  Biso   1.000  H
  H60      1.0000 0.49290  0.77410  0.89880  Biso   1.000  H
  H61      1.0000 0.48840  0.33530  0.09080  Biso   1.000  H
  H62      1.0000 0.51160  0.66470  0.90920  Biso   1.000  H
  C35      1.0000 0.33590  0.24700  0.11840  Biso   1.000  C
  C36      1.0000 0.66410  0.75300  0.88160  Biso   1.000  C
  H63      1.0000 0.28010  0.29280  0.09690  Biso   1.000  H
  H64      1.0000 0.71990  0.70720  0.90310  Biso   1.000  H
  C37      1.0000 0.40400  0.39620  0.26370  Biso   1.000  C
  C38      1.0000 0.59600  0.60380  0.73630  Biso   1.000  C
  H65      1.0000 0.44990  0.41720  0.32730  Biso   1.000  H
  H66      1.0000 0.55010  0.58280  0.67270  Biso   1.000  H
  H67      1.0000 0.45460  0.42690  0.22360  Biso   1.000  H
  H68      1.0000 0.54540  0.57310  0.77640  Biso   1.000  H
  C39      1.0000 0.28000  0.42980  0.24650  Biso   1.000  C
  C40      1.0000 0.72000  0.57020  0.75350  Biso   1.000  C
  C41      1.0000 0.25140  0.38020  0.39720  Biso   1.000  C
  C42      1.0000 0.74860  0.61980  0.60280  Biso   1.000  C
  H69      1.0000 0.32430  0.35010  0.39650  Biso   1.000  H
  H70      1.0000 0.67570  0.64990  0.60350  Biso   1.000  H
  H71      1.0000 0.18300  0.32890  0.40490  Biso   1.000  H
  H72      1.0000 0.81700  0.67110  0.59510  Biso   1.000  H
  C43      1.0000 0.28360  0.45940  0.47610  Biso   1.000  C
  C44      1.0000 0.71640  0.54060  0.52390  Biso   1.000  C
  H73      1.0000 0.35210  0.51050  0.46850  Biso   1.000  H
  H74      1.0000 0.64790  0.48950  0.53150  Biso   1.000  H
  H75      1.0000 0.31210  0.43150  0.53330  Biso   1.000  H
  H76      1.0000 0.68790  0.56850  0.46670  Biso   1.000  H
  C45      1.0000 0.11170  0.54250  0.36780  Biso   1.000  C
  C46      1.0000 0.88830  0.45750  0.63220  Biso   1.000  C
  H77      1.0000 0.03280  0.56640  0.35730  Biso   1.000  H
  H78      1.0000 0.96720  0.43360  0.64270  Biso   1.000  H
  H79      1.0000 0.17700  0.59550  0.35870  Biso   1.000  H
  H80      1.0000 0.82300  0.40450  0.64130  Biso   1.000  H
  C47      1.0000 0.09830  0.45560  0.29910  Biso   1.000  C
  C48      1.0000 0.90170  0.54440  0.70090  Biso   1.000  C
  H81      1.0000 0.03120  0.40310  0.30660  Biso   1.000  H
  H82      1.0000 0.96880  0.59690  0.69340  Biso   1.000  H
  H83      1.0000 0.07550  0.47460  0.23700  Biso   1.000  H
  H84      1.0000 0.92450  0.52540  0.76300  Biso   1.000  H
  C49      1.0000 0.31800  0.51300  0.98900  Biso   1.000  C
  C50      1.0000 0.68200  0.48700  0.01100  Biso   1.000  C
  H85      1.0000 0.33070  0.47990  0.04370  Biso   1.000  H
  H86      1.0000 0.66930  0.52010  0.95630  Biso   1.000  H
  H87      1.0000 0.35080  0.58280  0.00410  Biso   1.000  H
  H88      1.0000 0.64920  0.41720  0.99590  Biso   1.000  H
  H89      1.0000 0.36060  0.48670  0.94590  Biso   1.000  H
  H90      1.0000 0.63940  0.51330  0.05410  Biso   1.000  H
  C51      1.0000 0.16200  0.49400  0.94000  Biso   1.000  C
  C52      1.0000 0.83800  0.50600  0.06000  Biso   1.000  C
  N5       1.0000 0.06630  0.48600  0.91350  Biso   1.000  N
  N6       1.0000 0.93370  0.51400  0.08650  Biso   1.000  N
  C53      1.0000 0.18300  0.49260  0.97440  Biso   1.000  C
  C54      1.0000 0.81700  0.50740  0.02560  Biso   1.000  C
  H91      1.0000 0.14420  0.50060  0.91180  Biso   1.000  H
  H92      1.0000 0.85580  0.49940  0.08820  Biso   1.000  H
  H93      1.0000 0.16620  0.54210  0.01580  Biso   1.000  H
  H94      1.0000 0.83380  0.45790  0.98420  Biso   1.000  H
  H95      1.0000 0.14970  0.42770  0.98850  Biso   1.000  H
  H96      1.0000 0.85030  0.57230  0.01150  Biso   1.000  H
  C55      1.0000 0.30100  0.50300  0.98300  Biso   1.000  C
  C56      1.0000 0.69900  0.49700  0.01700  Biso   1.000  C
  N7       1.0000 0.41400  0.51530  0.00080  Biso   1.000  N
  N8       1.0000 0.58600  0.48470  0.99920  Biso   1.000  N
  C57      1.0000 0.41790  0.67850  0.26820  Biso   1.000  C
  C58      1.0000 0.58210  0.32150  0.73180  Biso   1.000  C
  H97      1.0000 0.39700  0.64450  0.20680  Biso   1.000  H
  H98      1.0000 0.60300  0.35550  0.79320  Biso   1.000  H
  H99      1.0000 0.35920  0.72120  0.27270  Biso   1.000  H
  H100     1.0000 0.64080  0.27880  0.72730  Biso   1.000  H
  H101     1.0000 0.41310  0.63070  0.31210  Biso   1.000  H
  H102     1.0000 0.58690  0.36930  0.68790  Biso   1.000  H
  C59      1.0000 0.54690  0.73810  0.28790  Biso   1.000  C
  C60      1.0000 0.45310  0.26190  0.71210  Biso   1.000  C
  H103     1.0000 0.57120  0.73080  0.22950  Biso   1.000  H
  H104     1.0000 0.42880  0.26920  0.77050  Biso   1.000  H
  H105     1.0000 0.53420  0.80580  0.29480  Biso   1.000  H
  H106     1.0000 0.46580  0.19420  0.70520  Biso   1.000  H
  C61      1.0000 0.66410  0.74000  0.35670  Biso   1.000  C
  C62      1.0000 0.33590  0.26000  0.64330  Biso   1.000  C
  H107     1.0000 0.66950  0.78320  0.41190  Biso   1.000  H
  H108     1.0000 0.33050  0.21680  0.58810  Biso   1.000  H
  H109     1.0000 0.67010  0.67360  0.37370  Biso   1.000  H
  H110     1.0000 0.32990  0.32640  0.62630  Biso   1.000  H
  C63      1.0000 0.76100  0.77700  0.31070  Biso   1.000  C
  C64      1.0000 0.23900  0.22300  0.68930  Biso   1.000  C
  H111     1.0000 0.72160  0.73620  0.25250  Biso   1.000  H
  H112     1.0000 0.27840  0.26380  0.74750  Biso   1.000  H
  H113     1.0000 0.73470  0.83960  0.30070  Biso   1.000  H
  H114     1.0000 0.26530  0.16040  0.69930  Biso   1.000  H
  C65      1.0000 0.87800  0.80600  0.28900  Biso   1.000  C
  C66      1.0000 0.12200  0.19400  0.71100  Biso   1.000  C
  H115     1.0000 0.94170  0.82640  0.34660  Biso   1.000  H
  H116     1.0000 0.05830  0.17360  0.65340  Biso   1.000  H
  H117     1.0000 0.87500  0.86320  0.25510  Biso   1.000  H
  H118     1.0000 0.12500  0.13680  0.74490  Biso   1.000  H
  C67      1.0000 0.92000  0.73290  0.23630  Biso   1.000  C
  C68      1.0000 0.08000  0.26710  0.76370  Biso   1.000  C
  H119     1.0000 0.87310  0.66810  0.23990  Biso   1.000  H
  H120     1.0000 0.12690  0.33190  0.76010  Biso   1.000  H
  H121     1.0000 0.00840  0.73530  0.26080  Biso   1.000  H
  H122     1.0000 0.99160  0.26470  0.73920  Biso   1.000  H
  H123     1.0000 0.90610  0.74670  0.17290  Biso   1.000  H
  H124     1.0000 0.09390  0.25330  0.82710  Biso   1.000  H
  C69      1.0000 0.47100  0.71080  0.25010  Biso   1.000  C
  C70      1.0000 0.52900  0.28920  0.74990  Biso   1.000  C
  H125     1.0000 0.51950  0.77480  0.24550  Biso   1.000  H
  H126     1.0000 0.48050  0.22520  0.75450  Biso   1.000  H
  H127     1.0000 0.40440  0.71880  0.27980  Biso   1.000  H
  H128     1.0000 0.59560  0.28120  0.72020  Biso   1.000  H
  H129     1.0000 0.43590  0.67650  0.18920  Biso   1.000  H
  H130     1.0000 0.56410  0.32350  0.81080  Biso   1.000  H
  C71      1.0000 0.55270  0.65400  0.30360  Biso   1.000  C
  C72      1.0000 0.44730  0.34600  0.69640  Biso   1.000  C
  H131     1.0000 0.57570  0.67740  0.36910  Biso   1.000  H
  H132     1.0000 0.42430  0.32260  0.63090  Biso   1.000  H
  H133     1.0000 0.51710  0.58340  0.29450  Biso   1.000  H
  H134     1.0000 0.48290  0.41660  0.70550  Biso   1.000  H
  C73      1.0000 0.64870  0.67730  0.26270  Biso   1.000  C
  C74      1.0000 0.35130  0.32270  0.73730  Biso   1.000  C
  H135     1.0000 0.60720  0.70420  0.20830  Biso   1.000  H
  H136     1.0000 0.39280  0.29580  0.79170  Biso   1.000  H
  H137     1.0000 0.65670  0.61170  0.23970  Biso   1.000  H
  H138     1.0000 0.34330  0.38830  0.76030  Biso   1.000  H
  C75      1.0000 0.77740  0.73100  0.27570  Biso   1.000  C
  C76      1.0000 0.22260  0.26900  0.72430  Biso   1.000  C
  H139     1.0000 0.77590  0.78700  0.23940  Biso   1.000  H
  H140     1.0000 0.22410  0.21300  0.76060  Biso   1.000  H
  H141     1.0000 0.80790  0.75770  0.34020  Biso   1.000  H
  H142     1.0000 0.19210  0.24230  0.65980  Biso   1.000  H
  C77      1.0000 0.84450  0.68990  0.25760  Biso   1.000  C
  C78      1.0000 0.15550  0.31010  0.74240  Biso   1.000  C
  H143     1.0000 0.80190  0.65040  0.19930  Biso   1.000  H
  H144     1.0000 0.19810  0.34960  0.80070  Biso   1.000  H
  H145     1.0000 0.85670  0.64330  0.30340  Biso   1.000  H
  H146     1.0000 0.14330  0.35670  0.69660  Biso   1.000  H
  C79      1.0000 0.98070  0.73690  0.24690  Biso   1.000  C
  C80      1.0000 0.01930  0.26310  0.75310  Biso   1.000  C
  H147     1.0000 0.98170  0.80320  0.23020  Biso   1.000  H
  H148     1.0000 0.01830  0.19680  0.76980  Biso   1.000  H
  H149     1.0000 0.00220  0.69740  0.19940  Biso   1.000  H
  H150     1.0000 0.99780  0.30260  0.80060  Biso   1.000  H
  H151     1.0000 0.04100  0.73860  0.30440  Biso   1.000  H
  H152     1.0000 0.95900  0.26140  0.69560  Biso   1.000  H
