data_image0
_cell_length_a       11.3572
_cell_length_b       14.247
_cell_length_c       15.331
_cell_angle_alpha    94.143
_cell_angle_beta     101.578
_cell_angle_gamma    100.526

_symmetry_space_group_name_H-M    "P 1"
_symmetry_int_tables_number       1

loop_
  _symmetry_equiv_pos_as_xyz
  'x, y, z'

loop_
  _atom_site_label
  _atom_site_occupancy
  _atom_site_fract_x
  _atom_site_fract_y
  _atom_site_fract_z
  _atom_site_thermal_displace_type
  _atom_site_B_iso_or_equiv
  _atom_site_type_symbol
  Cu1      1.0000 0.80590  0.21495  0.30127  Biso   1.000  Cu
  Cu2      1.0000 0.19410  0.78505  0.69873  Biso   1.000  Cu
  Cu3      1.0000 0.69316  0.13979  0.43587  Biso   1.000  Cu
  Cu4      1.0000 0.30684  0.86021  0.56413  Biso   1.000  Cu
  Cu5      1.0000 0.57722  0.23365  0.30559  Biso   1.000  Cu
  Cu6      1.0000 0.42278  0.76635  0.69441  Biso   1.000  Cu
  Cu7      1.0000 0.77043  0.33889  0.43496  Biso   1.000  Cu
  Cu8      1.0000 0.22957  0.66111  0.56504  Biso   1.000  Cu
  I1       1.0000 0.61509  0.05979  0.26757  Biso   1.000  I
  I2       1.0000 0.38491  0.94021  0.73243  Biso   1.000  I
  I3       1.0000 0.93181  0.22640  0.47710  Biso   1.000  I
  I4       1.0000 0.06819  0.77360  0.52290  Biso   1.000  I
  I5       1.0000 0.74448  0.37951  0.26709  Biso   1.000  I
  I6       1.0000 0.25552  0.62049  0.73291  Biso   1.000  I
  I7       1.0000 0.55997  0.26380  0.48229  Biso   1.000  I
  I8       1.0000 0.44003  0.73620  0.51771  Biso   1.000  I
  S1       1.0000 0.95860  0.17610  0.23450  Biso   1.000  S
  S2       1.0000 0.04140  0.82390  0.76550  Biso   1.000  S
  S3       1.0000 0.32980  0.98240  0.47480  Biso   1.000  S
  S4       1.0000 0.67020  0.01760  0.52520  Biso   1.000  S
  S5       1.0000 0.38570  0.26060  0.24480  Biso   1.000  S
  S6       1.0000 0.61430  0.73940  0.75520  Biso   1.000  S
  S7       1.0000 0.15330  0.51410  0.48010  Biso   1.000  S
  S8       1.0000 0.84670  0.48590  0.51990  Biso   1.000  S
  O1       1.0000 0.05240  0.96600  0.16640  Biso   1.000  O
  O2       1.0000 0.94760  0.03400  0.83360  Biso   1.000  O
  O3       1.0000 0.25320  0.45570  0.17860  Biso   1.000  O
  O4       1.0000 0.74680  0.54430  0.82140  Biso   1.000  O
  N1       1.0000 0.16370  0.03450  0.30440  Biso   1.000  N
  N2       1.0000 0.83630  0.96550  0.69560  Biso   1.000  N
  N3       1.0000 0.22110  0.41860  0.31180  Biso   1.000  N
  N4       1.0000 0.77890  0.58140  0.68820  Biso   1.000  N
  C1       1.0000 0.77750  0.13490  0.07530  Biso   1.000  C
  C2       1.0000 0.22250  0.86510  0.92470  Biso   1.000  C
  H1       1.0000 0.73440  0.17940  0.10030  Biso   1.000  H
  H2       1.0000 0.26560  0.82060  0.89970  Biso   1.000  H
  H3       1.0000 0.75030  0.07160  0.09240  Biso   1.000  H
  H4       1.0000 0.24970  0.92840  0.90760  Biso   1.000  H
  C3       1.0000 0.75350  0.13230  0.97220  Biso   1.000  C
  C4       1.0000 0.24650  0.86770  0.02780  Biso   1.000  C
  H5       1.0000 0.79040  0.08280  0.94810  Biso   1.000  H
  H6       1.0000 0.20960  0.91720  0.05190  Biso   1.000  H
  H7       1.0000 0.66580  0.11560  0.94750  Biso   1.000  H
  H8       1.0000 0.33420  0.88440  0.05250  Biso   1.000  H
  C5       1.0000 0.80400  0.22510  0.94430  Biso   1.000  C
  C6       1.0000 0.19600  0.77490  0.05570  Biso   1.000  C
  H9       1.0000 0.75740  0.27190  0.96030  Biso   1.000  H
  H10      1.0000 0.24260  0.72810  0.03970  Biso   1.000  H
  H11      1.0000 0.79250  0.21820  0.87950  Biso   1.000  H
  H12      1.0000 0.20750  0.78180  0.12050  Biso   1.000  H
  C7       1.0000 0.93700  0.26330  0.98490  Biso   1.000  C
  C8       1.0000 0.06300  0.73670  0.01510  Biso   1.000  C
  H13      1.0000 0.98580  0.22420  0.95870  Biso   1.000  H
  H14      1.0000 0.01420  0.77580  0.04130  Biso   1.000  H
  H15      1.0000 0.96000  0.32830  0.97020  Biso   1.000  H
  H16      1.0000 0.04000  0.67170  0.02980  Biso   1.000  H
  C9       1.0000 0.96660  0.26370  0.08200  Biso   1.000  C
  C10      1.0000 0.03340  0.73630  0.91800  Biso   1.000  C
  H17      1.0000 0.93490  0.31410  0.10980  Biso   1.000  H
  H18      1.0000 0.06510  0.68590  0.89020  Biso   1.000  H
  H19      1.0000 0.05500  0.27640  0.10380  Biso   1.000  H
  H20      1.0000 0.94500  0.72360  0.89620  Biso   1.000  H
  C11      1.0000 0.91000  0.16680  0.10710  Biso   1.000  C
  C12      1.0000 0.09000  0.83320  0.89290  Biso   1.000  C
  H21      1.0000 0.94920  0.11840  0.08220  Biso   1.000  H
  H22      1.0000 0.05080  0.88160  0.91780  Biso   1.000  H
  C13      1.0000 0.94920  0.05210  0.25340  Biso   1.000  C
  C14      1.0000 0.05080  0.94790  0.74660  Biso   1.000  C
  H23      1.0000 0.94050  0.04530  0.31440  Biso   1.000  H
  H24      1.0000 0.05950  0.95470  0.68560  Biso   1.000  H
  H25      1.0000 0.87620  0.01380  0.21350  Biso   1.000  H
  H26      1.0000 0.12380  0.98620  0.78650  Biso   1.000  H
  C15      1.0000 0.06000  0.01330  0.23850  Biso   1.000  C
  C16      1.0000 0.94000  0.98670  0.76150  Biso   1.000  C
  C17      1.0000 0.26860  0.99200  0.29130  Biso   1.000  C
  C18      1.0000 0.73140  0.00800  0.70870  Biso   1.000  C
  H27      1.0000 0.34070  0.04230  0.29660  Biso   1.000  H
  H28      1.0000 0.65930  0.95770  0.70340  Biso   1.000  H
  H29      1.0000 0.25050  0.95690  0.23200  Biso   1.000  H
  H30      1.0000 0.74950  0.04310  0.76800  Biso   1.000  H
  C19      1.0000 0.29330  0.92290  0.36350  Biso   1.000  C
  C20      1.0000 0.70670  0.07710  0.63650  Biso   1.000  C
  H31      1.0000 0.36070  0.89320  0.35410  Biso   1.000  H
  H32      1.0000 0.63930  0.10680  0.64590  Biso   1.000  H
  H33      1.0000 0.22120  0.87230  0.35670  Biso   1.000  H
  H34      1.0000 0.77880  0.12770  0.64330  Biso   1.000  H
  C21      1.0000 0.19620  0.03700  0.46770  Biso   1.000  C
  C22      1.0000 0.80380  0.96300  0.53230  Biso   1.000  C
  H35      1.0000 0.12340  0.98740  0.46230  Biso   1.000  H
  H36      1.0000 0.87660  0.01260  0.53770  Biso   1.000  H
  H37      1.0000 0.20540  0.07970  0.52200  Biso   1.000  H
  H38      1.0000 0.79460  0.92030  0.47800  Biso   1.000  H
  C23      1.0000 0.18170  0.09300  0.38770  Biso   1.000  C
  C24      1.0000 0.81830  0.90700  0.61230  Biso   1.000  C
  H39      1.0000 0.11220  0.12400  0.38660  Biso   1.000  H
  H40      1.0000 0.88780  0.87600  0.61340  Biso   1.000  H
  H41      1.0000 0.25440  0.14300  0.39420  Biso   1.000  H
  H42      1.0000 0.74560  0.85700  0.60580  Biso   1.000  H
  C25      1.0000 0.27340  0.14290  0.09540  Biso   1.000  C
  C26      1.0000 0.72660  0.85710  0.90460  Biso   1.000  C
  H43      1.0000 0.20350  0.13520  0.12360  Biso   1.000  H
  H44      1.0000 0.79650  0.86480  0.87640  Biso   1.000  H
  H45      1.0000 0.32210  0.09610  0.11530  Biso   1.000  H
  H46      1.0000 0.67790  0.90390  0.88470  Biso   1.000  H
  C27      1.0000 0.23000  0.12670  0.99520  Biso   1.000  C
  C28      1.0000 0.77000  0.87330  0.00480  Biso   1.000  C
  H47      1.0000 0.17920  0.17250  0.97560  Biso   1.000  H
  H48      1.0000 0.82080  0.82750  0.02440  Biso   1.000  H
  H49      1.0000 0.18030  0.06250  0.97760  Biso   1.000  H
  H50      1.0000 0.81970  0.93750  0.02240  Biso   1.000  H
  C29      1.0000 0.33900  0.13870  0.95120  Biso   1.000  C
  C30      1.0000 0.66100  0.86130  0.04880  Biso   1.000  C
  H51      1.0000 0.31000  0.13080  0.88660  Biso   1.000  H
  H52      1.0000 0.69000  0.86920  0.11340  Biso   1.000  H
  H53      1.0000 0.38520  0.08920  0.96680  Biso   1.000  H
  H54      1.0000 0.61480  0.91080  0.03320  Biso   1.000  H
  C31      1.0000 0.42200  0.23710  0.98070  Biso   1.000  C
  C32      1.0000 0.57800  0.76290  0.01930  Biso   1.000  C
  H55      1.0000 0.49550  0.24030  0.95650  Biso   1.000  H
  H56      1.0000 0.50450  0.75970  0.04350  Biso   1.000  H
  H57      1.0000 0.38020  0.28640  0.95720  Biso   1.000  H
  H58      1.0000 0.61980  0.71360  0.04280  Biso   1.000  H
  C33      1.0000 0.45890  0.25600  0.08230  Biso   1.000  C
  C34      1.0000 0.54110  0.74400  0.91770  Biso   1.000  C
  H59      1.0000 0.51130  0.21270  0.10520  Biso   1.000  H
  H60      1.0000 0.48870  0.78730  0.89480  Biso   1.000  H
  H61      1.0000 0.50490  0.32130  0.09980  Biso   1.000  H
  H62      1.0000 0.49510  0.67870  0.90020  Biso   1.000  H
  C35      1.0000 0.34890  0.24190  0.12180  Biso   1.000  C
  C36      1.0000 0.65110  0.75810  0.87820  Biso   1.000  C
  H63      1.0000 0.29850  0.28780  0.09960  Biso   1.000  H
  H64      1.0000 0.70150  0.71220  0.90040  Biso   1.000  H
  C37      1.0000 0.41060  0.39020  0.26830  Biso   1.000  C
  C38      1.0000 0.58940  0.60980  0.73170  Biso   1.000  C
  H65      1.0000 0.45100  0.40970  0.33070  Biso   1.000  H
  H66      1.0000 0.54900  0.59030  0.66930  Biso   1.000  H
  H67      1.0000 0.46310  0.42080  0.23140  Biso   1.000  H
  H68      1.0000 0.53690  0.57920  0.76860  Biso   1.000  H
  C39      1.0000 0.28450  0.42230  0.24820  Biso   1.000  C
  C40      1.0000 0.71550  0.57770  0.75180  Biso   1.000  C
  C41      1.0000 0.25650  0.38110  0.39830  Biso   1.000  C
  C42      1.0000 0.74350  0.61890  0.60170  Biso   1.000  C
  H69      1.0000 0.33000  0.35520  0.39980  Biso   1.000  H
  H70      1.0000 0.67000  0.64480  0.60020  Biso   1.000  H
  H71      1.0000 0.19140  0.32980  0.40560  Biso   1.000  H
  H72      1.0000 0.80860  0.67020  0.59440  Biso   1.000  H
  C43      1.0000 0.27940  0.46050  0.47240  Biso   1.000  C
  C44      1.0000 0.72060  0.53950  0.52760  Biso   1.000  C
  H73      1.0000 0.34650  0.50990  0.46480  Biso   1.000  H
  H74      1.0000 0.65350  0.49010  0.53520  Biso   1.000  H
  H75      1.0000 0.30590  0.43550  0.52870  Biso   1.000  H
  H76      1.0000 0.69410  0.56450  0.47130  Biso   1.000  H
  C45      1.0000 0.11690  0.53860  0.36580  Biso   1.000  C
  C46      1.0000 0.88310  0.46140  0.63420  Biso   1.000  C
  H77      1.0000 0.04080  0.56200  0.35530  Biso   1.000  H
  H78      1.0000 0.95920  0.43800  0.64470  Biso   1.000  H
  H79      1.0000 0.18100  0.58900  0.35570  Biso   1.000  H
  H80      1.0000 0.81900  0.41100  0.64430  Biso   1.000  H
  C47      1.0000 0.10350  0.45110  0.29950  Biso   1.000  C
  C48      1.0000 0.89650  0.54890  0.70050  Biso   1.000  C
  H81      1.0000 0.03970  0.40010  0.30900  Biso   1.000  H
  H82      1.0000 0.96030  0.59990  0.69100  Biso   1.000  H
  H83      1.0000 0.08040  0.46710  0.23880  Biso   1.000  H
  H84      1.0000 0.91960  0.53290  0.76120  Biso   1.000  H
  C49      1.0000 0.31700  0.49600  0.97200  Biso   1.000  C
  C50      1.0000 0.68300  0.50400  0.02800  Biso   1.000  C
  H85      1.0000 0.33700  0.47410  0.02970  Biso   1.000  H
  H86      1.0000 0.66300  0.52590  0.97030  Biso   1.000  H
  H87      1.0000 0.35440  0.56270  0.97520  Biso   1.000  H
  H88      1.0000 0.64560  0.43730  0.02480  Biso   1.000  H
  H89      1.0000 0.34610  0.45910  0.92910  Biso   1.000  H
  H90      1.0000 0.65390  0.54090  0.07090  Biso   1.000  H
  C51      1.0000 0.16500  0.48300  0.94000  Biso   1.000  C
  C52      1.0000 0.83500  0.51700  0.06000  Biso   1.000  C
  N5       1.0000 0.05200  0.49700  0.92100  Biso   1.000  N
  N6       1.0000 0.94800  0.50300  0.07900  Biso   1.000  N
  C53      1.0000 0.20100  0.51500  0.98800  Biso   1.000  C
  C54      1.0000 0.79900  0.48500  0.01200  Biso   1.000  C
  H91      1.0000 0.15140  0.52700  0.93360  Biso   1.000  H
  H92      1.0000 0.84860  0.47300  0.06640  Biso   1.000  H
  H93      1.0000 0.19700  0.56030  0.03660  Biso   1.000  H
  H94      1.0000 0.80300  0.43970  0.96340  Biso   1.000  H
  H95      1.0000 0.17140  0.45090  0.00120  Biso   1.000  H
  H96      1.0000 0.82860  0.54910  0.99880  Biso   1.000  H
  C55      1.0000 0.29900  0.52200  0.98100  Biso   1.000  C
  C56      1.0000 0.70100  0.47800  0.01900  Biso   1.000  C
  N7       1.0000 0.43100  0.51100  0.00000  Biso   1.000  N
  N8       1.0000 0.56900  0.48900  0.00000  Biso   1.000  N
  C57      1.0000 0.42800  0.70300  0.25500  Biso   1.000  C
  C58      1.0000 0.57200  0.29700  0.74500  Biso   1.000  C
  H97      1.0000 0.41890  0.65880  0.29840  Biso   1.000  H
  H98      1.0000 0.58110  0.34120  0.70160  Biso   1.000  H
  H99      1.0000 0.40450  0.66940  0.19590  Biso   1.000  H
  H100     1.0000 0.59550  0.33060  0.80410  Biso   1.000  H
  H101     1.0000 0.37670  0.74930  0.26010  Biso   1.000  H
  H102     1.0000 0.62330  0.25070  0.73990  Biso   1.000  H
  C59      1.0000 0.54000  0.74800  0.27000  Biso   1.000  C
  C60      1.0000 0.46000  0.25200  0.73000  Biso   1.000  C
  H103     1.0000 0.55980  0.75340  0.21120  Biso   1.000  H
  H104     1.0000 0.44020  0.24660  0.78880  Biso   1.000  H
  H105     1.0000 0.54290  0.81220  0.29550  Biso   1.000  H
  H106     1.0000 0.45710  0.18780  0.70450  Biso   1.000  H
  C61      1.0000 0.63000  0.71900  0.31800  Biso   1.000  C
  C62      1.0000 0.37000  0.28100  0.68200  Biso   1.000  C
  H107     1.0000 0.61660  0.72050  0.37820  Biso   1.000  H
  H108     1.0000 0.38340  0.27950  0.62180  Biso   1.000  H
  H109     1.0000 0.62280  0.65160  0.29650  Biso   1.000  H
  H110     1.0000 0.37720  0.34840  0.70350  Biso   1.000  H
  C63      1.0000 0.74200  0.76000  0.32400  Biso   1.000  C
  C64      1.0000 0.25800  0.24000  0.67600  Biso   1.000  C
  H111     1.0000 0.77840  0.70480  0.33980  Biso   1.000  H
  H112     1.0000 0.22160  0.29520  0.66020  Biso   1.000  H
  H113     1.0000 0.75340  0.79780  0.38090  Biso   1.000  H
  H114     1.0000 0.24660  0.20220  0.61910  Biso   1.000  H
  C65      1.0000 0.83500  0.80700  0.29900  Biso   1.000  C
  C66      1.0000 0.16500  0.19300  0.70100  Biso   1.000  C
  H115     1.0000 0.89340  0.84010  0.35210  Biso   1.000  H
  H116     1.0000 0.10660  0.15990  0.64790  Biso   1.000  H
  H117     1.0000 0.80650  0.85670  0.26430  Biso   1.000  H
  H118     1.0000 0.19350  0.14330  0.73570  Biso   1.000  H
  C67      1.0000 0.89200  0.76100  0.25200  Biso   1.000  C
  C68      1.0000 0.10800  0.23900  0.74800  Biso   1.000  C
  H119     1.0000 0.87460  0.69390  0.26100  Biso   1.000  H
  H120     1.0000 0.12540  0.30610  0.73900  Biso   1.000  H
  H121     1.0000 0.97830  0.78560  0.27030  Biso   1.000  H
  H122     1.0000 0.02170  0.21440  0.72970  Biso   1.000  H
  H123     1.0000 0.86430  0.76720  0.18970  Biso   1.000  H
  H124     1.0000 0.13570  0.23280  0.81030  Biso   1.000  H
  C69      1.0000 0.46000  0.66600  0.23900  Biso   1.000  C
  C70      1.0000 0.54000  0.33400  0.76100  Biso   1.000  C
  H125     1.0000 0.39880  0.63140  0.26600  Biso   1.000  H
  H126     1.0000 0.60120  0.36860  0.73400  Biso   1.000  H
  H127     1.0000 0.44960  0.63910  0.17840  Biso   1.000  H
  H128     1.0000 0.55040  0.36090  0.82160  Biso   1.000  H
  H129     1.0000 0.45300  0.73240  0.24030  Biso   1.000  H
  H130     1.0000 0.54700  0.26760  0.75970  Biso   1.000  H
  C71      1.0000 0.56700  0.66100  0.28300  Biso   1.000  C
  C72      1.0000 0.43300  0.33900  0.71700  Biso   1.000  C
  H131     1.0000 0.56070  0.59510  0.29690  Biso   1.000  H
  H132     1.0000 0.43930  0.40490  0.70310  Biso   1.000  H
  H133     1.0000 0.57890  0.70000  0.34020  Biso   1.000  H
  H134     1.0000 0.42110  0.30000  0.65980  Biso   1.000  H
  C73      1.0000 0.66800  0.68300  0.25700  Biso   1.000  C
  C74      1.0000 0.33200  0.31700  0.74300  Biso   1.000  C
  H135     1.0000 0.64280  0.64460  0.19880  Biso   1.000  H
  H136     1.0000 0.35720  0.35540  0.80120  Biso   1.000  H
  H137     1.0000 0.66170  0.74740  0.24270  Biso   1.000  H
  H138     1.0000 0.33830  0.25260  0.75730  Biso   1.000  H
  C75      1.0000 0.78500  0.69200  0.26700  Biso   1.000  C
  C76      1.0000 0.21500  0.30800  0.73300  Biso   1.000  C
  H139     1.0000 0.81050  0.76080  0.28000  Biso   1.000  H
  H140     1.0000 0.18950  0.23920  0.72000  Biso   1.000  H
  H141     1.0000 0.80440  0.66750  0.32420  Biso   1.000  H
  H142     1.0000 0.19560  0.33250  0.67580  Biso   1.000  H
  C77      1.0000 0.87100  0.67200  0.23300  Biso   1.000  C
  C78      1.0000 0.12900  0.32800  0.76700  Biso   1.000  C
  H143     1.0000 0.83680  0.65540  0.16910  Biso   1.000  H
  H144     1.0000 0.16320  0.34460  0.83090  Biso   1.000  H
  H145     1.0000 0.89050  0.61460  0.25640  Biso   1.000  H
  H146     1.0000 0.10950  0.38540  0.74360  Biso   1.000  H
  C79      1.0000 0.97300  0.73100  0.24000  Biso   1.000  C
  C80      1.0000 0.02700  0.26900  0.76000  Biso   1.000  C
  H147     1.0000 0.95830  0.78870  0.21430  Biso   1.000  H
  H148     1.0000 0.04170  0.21130  0.78570  Biso   1.000  H
  H149     1.0000 0.02520  0.70210  0.20940  Biso   1.000  H
  H150     1.0000 0.97480  0.29790  0.79060  Biso   1.000  H
  H151     1.0000 0.01250  0.74760  0.30240  Biso   1.000  H
  H152     1.0000 0.98750  0.25240  0.69760  Biso   1.000  H
