data_image0
_cell_length_a       11.3013
_cell_length_b       14.1099
_cell_length_c       15.23
_cell_angle_alpha    93.834
_cell_angle_beta     102.198
_cell_angle_gamma    100.475

_symmetry_space_group_name_H-M    "P 1"
_symmetry_int_tables_number       1

loop_
  _symmetry_equiv_pos_as_xyz
  'x, y, z'

loop_
  _atom_site_label
  _atom_site_occupancy
  _atom_site_fract_x
  _atom_site_fract_y
  _atom_site_fract_z
  _atom_site_thermal_displace_type
  _atom_site_B_iso_or_equiv
  _atom_site_type_symbol
  Cu1      1.0000 0.80396  0.21559  0.29883  Biso   1.000  Cu
  Cu2      1.0000 0.19604  0.78441  0.70117  Biso   1.000  Cu
  Cu3      1.0000 0.69230  0.14027  0.43179  Biso   1.000  Cu
  Cu4      1.0000 0.30770  0.85973  0.56821  Biso   1.000  Cu
  Cu5      1.0000 0.57604  0.23532  0.30182  Biso   1.000  Cu
  Cu6      1.0000 0.42396  0.76468  0.69818  Biso   1.000  Cu
  Cu7      1.0000 0.76994  0.33896  0.43188  Biso   1.000  Cu
  Cu8      1.0000 0.23006  0.66104  0.56812  Biso   1.000  Cu
  I1       1.0000 0.61228  0.05951  0.26245  Biso   1.000  I
  I2       1.0000 0.38772  0.94049  0.73755  Biso   1.000  I
  I3       1.0000 0.93285  0.22522  0.47622  Biso   1.000  I
  I4       1.0000 0.06715  0.77478  0.52378  Biso   1.000  I
  I5       1.0000 0.74197  0.38206  0.26280  Biso   1.000  I
  I6       1.0000 0.25803  0.61794  0.73720  Biso   1.000  I
  I7       1.0000 0.56014  0.26506  0.48049  Biso   1.000  I
  I8       1.0000 0.43986  0.73494  0.51951  Biso   1.000  I
  S1       1.0000 0.95673  0.17671  0.23211  Biso   1.000  S
  S2       1.0000 0.04327  0.82329  0.76789  Biso   1.000  S
  S3       1.0000 0.33243  0.98427  0.47875  Biso   1.000  S
  S4       1.0000 0.66757  0.01573  0.52125  Biso   1.000  S
  S5       1.0000 0.38254  0.26393  0.24328  Biso   1.000  S
  S6       1.0000 0.61746  0.73607  0.75672  Biso   1.000  S
  S7       1.0000 0.15156  0.51352  0.48177  Biso   1.000  S
  S8       1.0000 0.84844  0.48648  0.51823  Biso   1.000  S
  O1       1.0000 0.05500  0.96310  0.16590  Biso   1.000  O
  O2       1.0000 0.94500  0.03690  0.83410  Biso   1.000  O
  O3       1.0000 0.24860  0.46180  0.17680  Biso   1.000  O
  O4       1.0000 0.75140  0.53820  0.82320  Biso   1.000  O
  N1       1.0000 0.16560  0.03500  0.30390  Biso   1.000  N
  N2       1.0000 0.83440  0.96500  0.69610  Biso   1.000  N
  N3       1.0000 0.21620  0.41950  0.31130  Biso   1.000  N
  N4       1.0000 0.78380  0.58050  0.68870  Biso   1.000  N
  C1       1.0000 0.77440  0.13750  0.07030  Biso   1.000  C
  C2       1.0000 0.22560  0.86250  0.92970  Biso   1.000  C
  H1       1.0000 0.73220  0.18500  0.09530  Biso   1.000  H
  H2       1.0000 0.26780  0.81500  0.90470  Biso   1.000  H
  H3       1.0000 0.74380  0.07340  0.08910  Biso   1.000  H
  H4       1.0000 0.25620  0.92660  0.91090  Biso   1.000  H
  C3       1.0000 0.74290  0.13170  0.96690  Biso   1.000  C
  C4       1.0000 0.25710  0.86830  0.03310  Biso   1.000  C
  H5       1.0000 0.78040  0.08120  0.94150  Biso   1.000  H
  H6       1.0000 0.21960  0.91880  0.05850  Biso   1.000  H
  H7       1.0000 0.65220  0.11360  0.94390  Biso   1.000  H
  H8       1.0000 0.34780  0.88640  0.05610  Biso   1.000  H
  C5       1.0000 0.79110  0.22830  0.93760  Biso   1.000  C
  C6       1.0000 0.20890  0.77170  0.06240  Biso   1.000  C
  H9       1.0000 0.74660  0.27700  0.95750  Biso   1.000  H
  H10      1.0000 0.25340  0.72300  0.04250  Biso   1.000  H
  H11      1.0000 0.77500  0.22280  0.87080  Biso   1.000  H
  H12      1.0000 0.22500  0.77720  0.12920  Biso   1.000  H
  C7       1.0000 0.92960  0.26220  0.97710  Biso   1.000  C
  C8       1.0000 0.07040  0.73780  0.02290  Biso   1.000  C
  H13      1.0000 0.97470  0.21780  0.95100  Biso   1.000  H
  H14      1.0000 0.02530  0.78220  0.04900  Biso   1.000  H
  H15      1.0000 0.95690  0.32770  0.96000  Biso   1.000  H
  H16      1.0000 0.04310  0.67230  0.04000  Biso   1.000  H
  C9       1.0000 0.96170  0.26520  0.07930  Biso   1.000  C
  C10      1.0000 0.03830  0.73480  0.92070  Biso   1.000  C
  H17      1.0000 0.92550  0.31570  0.10610  Biso   1.000  H
  H18      1.0000 0.07450  0.68430  0.89390  Biso   1.000  H
  H19      1.0000 0.05250  0.28230  0.10180  Biso   1.000  H
  H20      1.0000 0.94750  0.71770  0.89820  Biso   1.000  H
  C11      1.0000 0.91240  0.16740  0.10830  Biso   1.000  C
  C12      1.0000 0.08760  0.83260  0.89170  Biso   1.000  C
  H21      1.0000 0.95340  0.11810  0.08330  Biso   1.000  H
  H22      1.0000 0.04660  0.88190  0.91670  Biso   1.000  H
  C13      1.0000 0.94750  0.05050  0.25100  Biso   1.000  C
  C14      1.0000 0.05250  0.94950  0.74900  Biso   1.000  C
  H23      1.0000 0.93890  0.04280  0.31360  Biso   1.000  H
  H24      1.0000 0.06110  0.95720  0.68640  Biso   1.000  H
  H25      1.0000 0.87280  0.01100  0.20930  Biso   1.000  H
  H26      1.0000 0.12720  0.98900  0.79070  Biso   1.000  H
  C15      1.0000 0.06080  0.01290  0.23630  Biso   1.000  C
  C16      1.0000 0.93920  0.98710  0.76370  Biso   1.000  C
  C17      1.0000 0.27370  0.99490  0.29370  Biso   1.000  C
  C18      1.0000 0.72630  0.00510  0.70630  Biso   1.000  C
  H27      1.0000 0.34620  0.04840  0.30030  Biso   1.000  H
  H28      1.0000 0.65380  0.95160  0.69970  Biso   1.000  H
  H29      1.0000 0.25750  0.95960  0.23260  Biso   1.000  H
  H30      1.0000 0.74250  0.04040  0.76740  Biso   1.000  H
  C19      1.0000 0.30140  0.92650  0.36450  Biso   1.000  C
  C20      1.0000 0.69860  0.07350  0.63550  Biso   1.000  C
  H31      1.0000 0.37390  0.89980  0.35610  Biso   1.000  H
  H32      1.0000 0.62610  0.10020  0.64390  Biso   1.000  H
  H33      1.0000 0.23010  0.87170  0.35540  Biso   1.000  H
  H34      1.0000 0.76990  0.12830  0.64460  Biso   1.000  H
  C21      1.0000 0.19610  0.03660  0.46840  Biso   1.000  C
  C22      1.0000 0.80390  0.96340  0.53160  Biso   1.000  C
  H35      1.0000 0.12220  0.98420  0.46010  Biso   1.000  H
  H36      1.0000 0.87780  0.01580  0.53990  Biso   1.000  H
  H37      1.0000 0.20230  0.07850  0.52460  Biso   1.000  H
  H38      1.0000 0.79770  0.92150  0.47540  Biso   1.000  H
  C23      1.0000 0.18190  0.09610  0.38870  Biso   1.000  C
  C24      1.0000 0.81810  0.90390  0.61130  Biso   1.000  C
  H39      1.0000 0.10950  0.12690  0.38640  Biso   1.000  H
  H40      1.0000 0.89050  0.87310  0.61360  Biso   1.000  H
  H41      1.0000 0.25620  0.14820  0.39650  Biso   1.000  H
  H42      1.0000 0.74380  0.85180  0.60350  Biso   1.000  H
  C25      1.0000 0.26600  0.14380  0.09180  Biso   1.000  C
  C26      1.0000 0.73400  0.85620  0.90820  Biso   1.000  C
  H43      1.0000 0.31650  0.09680  0.11570  Biso   1.000  H
  H44      1.0000 0.68350  0.90320  0.88430  Biso   1.000  H
  H45      1.0000 0.19210  0.13540  0.11780  Biso   1.000  H
  H46      1.0000 0.80790  0.86460  0.88220  Biso   1.000  H
  C27      1.0000 0.22630  0.12380  0.99000  Biso   1.000  C
  C28      1.0000 0.77370  0.87620  0.01000  Biso   1.000  C
  H47      1.0000 0.17150  0.16810  0.96640  Biso   1.000  H
  H48      1.0000 0.82850  0.83190  0.03360  Biso   1.000  H
  H49      1.0000 0.17920  0.05640  0.97310  Biso   1.000  H
  H50      1.0000 0.82080  0.94360  0.02690  Biso   1.000  H
  C29      1.0000 0.33870  0.13830  0.94810  Biso   1.000  C
  C30      1.0000 0.66130  0.86170  0.05190  Biso   1.000  C
  H51      1.0000 0.39110  0.09140  0.96900  Biso   1.000  H
  H52      1.0000 0.60890  0.90860  0.03100  Biso   1.000  H
  H53      1.0000 0.31120  0.12600  0.88150  Biso   1.000  H
  H54      1.0000 0.68880  0.87400  0.11850  Biso   1.000  H
  C31      1.0000 0.41340  0.24080  0.97450  Biso   1.000  C
  C32      1.0000 0.58660  0.75920  0.02550  Biso   1.000  C
  H55      1.0000 0.36320  0.28730  0.94900  Biso   1.000  H
  H56      1.0000 0.63680  0.71270  0.05100  Biso   1.000  H
  H57      1.0000 0.48780  0.24830  0.94910  Biso   1.000  H
  H58      1.0000 0.51220  0.75170  0.05090  Biso   1.000  H
  C33      1.0000 0.45210  0.26320  0.07710  Biso   1.000  C
  C34      1.0000 0.54790  0.73680  0.92290  Biso   1.000  C
  H59      1.0000 0.50990  0.22150  0.10180  Biso   1.000  H
  H60      1.0000 0.49010  0.77850  0.89820  Biso   1.000  H
  H61      1.0000 0.49590  0.33160  0.09290  Biso   1.000  H
  H62      1.0000 0.50410  0.66840  0.90710  Biso   1.000  H
  C35      1.0000 0.34070  0.24600  0.11970  Biso   1.000  C
  C36      1.0000 0.65930  0.75400  0.88030  Biso   1.000  C
  H63      1.0000 0.28680  0.29250  0.09800  Biso   1.000  H
  H64      1.0000 0.71320  0.70750  0.90200  Biso   1.000  H
  C37      1.0000 0.40650  0.39470  0.26450  Biso   1.000  C
  C38      1.0000 0.59350  0.60530  0.73550  Biso   1.000  C
  H65      1.0000 0.45140  0.41580  0.32790  Biso   1.000  H
  H66      1.0000 0.54860  0.58420  0.67210  Biso   1.000  H
  H67      1.0000 0.45770  0.42510  0.22460  Biso   1.000  H
  H68      1.0000 0.54230  0.57490  0.77540  Biso   1.000  H
  C39      1.0000 0.28230  0.42820  0.24690  Biso   1.000  C
  C40      1.0000 0.71770  0.57180  0.75310  Biso   1.000  C
  C41      1.0000 0.25190  0.38010  0.39740  Biso   1.000  C
  C42      1.0000 0.74810  0.61990  0.60260  Biso   1.000  C
  H69      1.0000 0.32450  0.35000  0.39730  Biso   1.000  H
  H70      1.0000 0.67550  0.65000  0.60270  Biso   1.000  H
  H71      1.0000 0.18310  0.32930  0.40530  Biso   1.000  H
  H72      1.0000 0.81690  0.67070  0.59470  Biso   1.000  H
  C43      1.0000 0.28320  0.46040  0.47500  Biso   1.000  C
  C44      1.0000 0.71680  0.53960  0.52500  Biso   1.000  C
  H73      1.0000 0.35150  0.51120  0.46650  Biso   1.000  H
  H74      1.0000 0.64850  0.48880  0.53350  Biso   1.000  H
  H75      1.0000 0.31180  0.43370  0.53250  Biso   1.000  H
  H76      1.0000 0.68820  0.56630  0.46750  Biso   1.000  H
  C45      1.0000 0.11440  0.54170  0.36630  Biso   1.000  C
  C46      1.0000 0.88560  0.45830  0.63370  Biso   1.000  C
  H77      1.0000 0.03600  0.56560  0.35540  Biso   1.000  H
  H78      1.0000 0.96400  0.43440  0.64460  Biso   1.000  H
  H79      1.0000 0.18020  0.59420  0.35700  Biso   1.000  H
  H80      1.0000 0.81980  0.40580  0.64300  Biso   1.000  H
  C47      1.0000 0.10150  0.45450  0.29880  Biso   1.000  C
  C48      1.0000 0.89850  0.54550  0.70120  Biso   1.000  C
  H81      1.0000 0.03440  0.40230  0.30670  Biso   1.000  H
  H82      1.0000 0.96560  0.59770  0.69330  Biso   1.000  H
  H83      1.0000 0.07930  0.47260  0.23660  Biso   1.000  H
  H84      1.0000 0.92070  0.52740  0.76340  Biso   1.000  H
  C49      1.0000 0.32800  0.51200  0.99500  Biso   1.000  C
  C50      1.0000 0.67200  0.48800  0.00500  Biso   1.000  C
  H85      1.0000 0.33660  0.47330  0.04590  Biso   1.000  H
  H86      1.0000 0.66340  0.52670  0.95410  Biso   1.000  H
  H87      1.0000 0.36570  0.58010  0.01600  Biso   1.000  H
  H88      1.0000 0.63430  0.41990  0.98400  Biso   1.000  H
  H89      1.0000 0.37050  0.48830  0.95020  Biso   1.000  H
  H90      1.0000 0.62950  0.51170  0.04980  Biso   1.000  H
  C51      1.0000 0.16500  0.50100  0.94200  Biso   1.000  C
  C52      1.0000 0.83500  0.49900  0.05800  Biso   1.000  C
  N5       1.0000 0.06210  0.48670  0.91440  Biso   1.000  N
  N6       1.0000 0.93790  0.51330  0.08560  Biso   1.000  N
  C53      1.0000 0.18900  0.49020  0.97350  Biso   1.000  C
  C54      1.0000 0.81100  0.50980  0.02650  Biso   1.000  C
  H91      1.0000 0.14480  0.51250  0.91860  Biso   1.000  H
  H92      1.0000 0.85520  0.48750  0.08140  Biso   1.000  H
  H93      1.0000 0.17700  0.52720  0.02680  Biso   1.000  H
  H94      1.0000 0.82300  0.47280  0.97320  Biso   1.000  H
  H95      1.0000 0.15550  0.42110  0.97450  Biso   1.000  H
  H96      1.0000 0.84450  0.57890  0.02550  Biso   1.000  H
  C55      1.0000 0.29300  0.50100  0.97400  Biso   1.000  C
  C56      1.0000 0.70700  0.49900  0.02600  Biso   1.000  C
  N7       1.0000 0.41900  0.51150  0.99600  Biso   1.000  N
  N8       1.0000 0.58100  0.48850  0.00400  Biso   1.000  N
  C57      1.0000 0.41800  0.68400  0.25700  Biso   1.000  C
  C58      1.0000 0.58200  0.31600  0.74300  Biso   1.000  C
  H97      1.0000 0.39610  0.66000  0.19250  Biso   1.000  H
  H98      1.0000 0.60390  0.34000  0.80750  Biso   1.000  H
  H99      1.0000 0.36070  0.72510  0.26930  Biso   1.000  H
  H100     1.0000 0.63930  0.27490  0.73070  Biso   1.000  H
  H101     1.0000 0.41310  0.62960  0.29310  Biso   1.000  H
  H102     1.0000 0.58690  0.37040  0.70690  Biso   1.000  H
  C59      1.0000 0.54000  0.74000  0.27900  Biso   1.000  C
  C60      1.0000 0.46000  0.26000  0.72100  Biso   1.000  C
  H103     1.0000 0.56020  0.74640  0.21930  Biso   1.000  H
  H104     1.0000 0.43980  0.25360  0.78070  Biso   1.000  H
  H105     1.0000 0.52830  0.80510  0.29950  Biso   1.000  H
  H106     1.0000 0.47170  0.19490  0.70050  Biso   1.000  H
  C61      1.0000 0.65600  0.73600  0.33500  Biso   1.000  C
  C62      1.0000 0.34400  0.26400  0.66500  Biso   1.000  C
  H107     1.0000 0.66090  0.66640  0.33560  Biso   1.000  H
  H108     1.0000 0.33910  0.33360  0.66440  Biso   1.000  H
  H109     1.0000 0.65580  0.76060  0.39720  Biso   1.000  H
  H110     1.0000 0.34420  0.23940  0.60280  Biso   1.000  H
  C63      1.0000 0.76400  0.78500  0.31300  Biso   1.000  C
  C64      1.0000 0.23600  0.21500  0.68700  Biso   1.000  C
  H111     1.0000 0.72360  0.82920  0.27440  Biso   1.000  H
  H112     1.0000 0.27640  0.17080  0.72560  Biso   1.000  H
  H113     1.0000 0.79740  0.82530  0.37210  Biso   1.000  H
  H114     1.0000 0.20260  0.17470  0.62790  Biso   1.000  H
  C65      1.0000 0.87300  0.80000  0.28400  Biso   1.000  C
  C66      1.0000 0.12700  0.20000  0.71600  Biso   1.000  C
  H115     1.0000 0.93970  0.82020  0.33890  Biso   1.000  H
  H116     1.0000 0.06030  0.17980  0.66110  Biso   1.000  H
  H117     1.0000 0.87180  0.85720  0.24970  Biso   1.000  H
  H118     1.0000 0.12820  0.14280  0.75030  Biso   1.000  H
  C67      1.0000 0.91100  0.73100  0.23200  Biso   1.000  C
  C68      1.0000 0.08900  0.26900  0.76800  Biso   1.000  C
  H119     1.0000 0.86390  0.66640  0.23510  Biso   1.000  H
  H120     1.0000 0.13610  0.33360  0.76490  Biso   1.000  H
  H121     1.0000 0.99910  0.73340  0.25460  Biso   1.000  H
  H122     1.0000 0.00090  0.26660  0.74540  Biso   1.000  H
  H123     1.0000 0.89590  0.74550  0.16870  Biso   1.000  H
  H124     1.0000 0.10410  0.25450  0.83130  Biso   1.000  H
  C69      1.0000 0.47300  0.70800  0.24900  Biso   1.000  C
  C70      1.0000 0.52700  0.29200  0.75100  Biso   1.000  C
  H125     1.0000 0.50870  0.77760  0.25850  Biso   1.000  H
  H126     1.0000 0.49130  0.22240  0.74150  Biso   1.000  H
  H127     1.0000 0.39880  0.69600  0.27390  Biso   1.000  H
  H128     1.0000 0.60120  0.30400  0.72610  Biso   1.000  H
  H129     1.0000 0.45100  0.68570  0.18460  Biso   1.000  H
  H130     1.0000 0.54900  0.31430  0.81540  Biso   1.000  H
  C71      1.0000 0.56000  0.65720  0.29430  Biso   1.000  C
  C72      1.0000 0.44000  0.34280  0.70570  Biso   1.000  C
  H131     1.0000 0.58530  0.68130  0.35940  Biso   1.000  H
  H132     1.0000 0.41470  0.31870  0.64060  Biso   1.000  H
  H133     1.0000 0.52310  0.58730  0.28840  Biso   1.000  H
  H134     1.0000 0.47690  0.41270  0.71160  Biso   1.000  H
  C73      1.0000 0.66100  0.67000  0.25800  Biso   1.000  C
  C74      1.0000 0.33900  0.33000  0.74200  Biso   1.000  C
  H135     1.0000 0.62740  0.68380  0.19600  Biso   1.000  H
  H136     1.0000 0.37260  0.31620  0.80400  Biso   1.000  H
  H137     1.0000 0.67660  0.60310  0.25090  Biso   1.000  H
  H138     1.0000 0.32340  0.39690  0.74910  Biso   1.000  H
  C75      1.0000 0.78200  0.72700  0.27900  Biso   1.000  C
  C76      1.0000 0.21800  0.27300  0.72100  Biso   1.000  C
  H139     1.0000 0.78160  0.78610  0.24710  Biso   1.000  H
  H140     1.0000 0.21840  0.21390  0.75290  Biso   1.000  H
  H141     1.0000 0.80660  0.74830  0.34490  Biso   1.000  H
  H142     1.0000 0.19340  0.25170  0.65510  Biso   1.000  H
  C77      1.0000 0.84400  0.69060  0.26100  Biso   1.000  C
  C78      1.0000 0.15600  0.30940  0.73900  Biso   1.000  C
  H143     1.0000 0.79980  0.64860  0.20490  Biso   1.000  H
  H144     1.0000 0.20020  0.35140  0.79510  Biso   1.000  H
  H145     1.0000 0.86040  0.64640  0.30820  Biso   1.000  H
  H146     1.0000 0.13960  0.35360  0.69180  Biso   1.000  H
  C79      1.0000 0.97500  0.73550  0.24460  Biso   1.000  C
  C80      1.0000 0.02500  0.26450  0.75540  Biso   1.000  C
  H147     1.0000 0.97760  0.80350  0.23380  Biso   1.000  H
  H148     1.0000 0.02240  0.19650  0.76620  Biso   1.000  H
  H149     1.0000 0.98850  0.69930  0.19170  Biso   1.000  H
  H150     1.0000 0.01150  0.30070  0.80830  Biso   1.000  H
  H151     1.0000 0.03900  0.73170  0.29780  Biso   1.000  H
  H152     1.0000 0.96100  0.26830  0.70220  Biso   1.000  H
