data_image0
_cell_length_a       11.3299
_cell_length_b       14.1649
_cell_length_c       15.2775
_cell_angle_alpha    93.884
_cell_angle_beta     101.814
_cell_angle_gamma    100.652

_symmetry_space_group_name_H-M    "P 1"
_symmetry_int_tables_number       1

loop_
  _symmetry_equiv_pos_as_xyz
  'x, y, z'

loop_
  _atom_site_label
  _atom_site_occupancy
  _atom_site_fract_x
  _atom_site_fract_y
  _atom_site_fract_z
  _atom_site_thermal_displace_type
  _atom_site_B_iso_or_equiv
  _atom_site_type_symbol
  Cu1      1.0000 0.80463  0.21550  0.29982  Biso   1.000  Cu
  Cu2      1.0000 0.19537  0.78450  0.70018  Biso   1.000  Cu
  Cu3      1.0000 0.69241  0.14010  0.43327  Biso   1.000  Cu
  Cu4      1.0000 0.30759  0.85990  0.56673  Biso   1.000  Cu
  Cu5      1.0000 0.57653  0.23488  0.30324  Biso   1.000  Cu
  Cu6      1.0000 0.42347  0.76512  0.69676  Biso   1.000  Cu
  Cu7      1.0000 0.76997  0.33907  0.43313  Biso   1.000  Cu
  Cu8      1.0000 0.23003  0.66093  0.56687  Biso   1.000  Cu
  I1       1.0000 0.61297  0.05964  0.26458  Biso   1.000  I
  I2       1.0000 0.38703  0.94036  0.73542  Biso   1.000  I
  I3       1.0000 0.93223  0.22597  0.47644  Biso   1.000  I
  I4       1.0000 0.06777  0.77403  0.52356  Biso   1.000  I
  I5       1.0000 0.74356  0.38156  0.26450  Biso   1.000  I
  I6       1.0000 0.25644  0.61844  0.73550  Biso   1.000  I
  I7       1.0000 0.55968  0.26442  0.48120  Biso   1.000  I
  I8       1.0000 0.44032  0.73558  0.51880  Biso   1.000  I
  S1       1.0000 0.95733  0.17657  0.23301  Biso   1.000  S
  S2       1.0000 0.04267  0.82343  0.76699  Biso   1.000  S
  S3       1.0000 0.33152  0.98356  0.47689  Biso   1.000  S
  S4       1.0000 0.66848  0.01644  0.52311  Biso   1.000  S
  S5       1.0000 0.38390  0.26287  0.24386  Biso   1.000  S
  S6       1.0000 0.61610  0.73713  0.75614  Biso   1.000  S
  S7       1.0000 0.15229  0.51362  0.48082  Biso   1.000  S
  S8       1.0000 0.84771  0.48638  0.51918  Biso   1.000  S
  O1       1.0000 0.05390  0.96420  0.16640  Biso   1.000  O
  O2       1.0000 0.94610  0.03580  0.83360  Biso   1.000  O
  O3       1.0000 0.25210  0.45970  0.17750  Biso   1.000  O
  O4       1.0000 0.74790  0.54030  0.82250  Biso   1.000  O
  N1       1.0000 0.16350  0.03360  0.30360  Biso   1.000  N
  N2       1.0000 0.83650  0.96640  0.69640  Biso   1.000  N
  N3       1.0000 0.21900  0.41880  0.31160  Biso   1.000  N
  N4       1.0000 0.78100  0.58120  0.68840  Biso   1.000  N
  C1       1.0000 0.77630  0.13750  0.07170  Biso   1.000  C
  C2       1.0000 0.22370  0.86250  0.92830  Biso   1.000  C
  H1       1.0000 0.73400  0.18390  0.09630  Biso   1.000  H
  H2       1.0000 0.26600  0.81610  0.90370  Biso   1.000  H
  H3       1.0000 0.74570  0.07380  0.08920  Biso   1.000  H
  H4       1.0000 0.25430  0.92620  0.91080  Biso   1.000  H
  C3       1.0000 0.74880  0.13340  0.96990  Biso   1.000  C
  C4       1.0000 0.25120  0.86660  0.03010  Biso   1.000  C
  H5       1.0000 0.78510  0.08280  0.94530  Biso   1.000  H
  H6       1.0000 0.21490  0.91720  0.05470  Biso   1.000  H
  H7       1.0000 0.65940  0.11640  0.94640  Biso   1.000  H
  H8       1.0000 0.34060  0.88360  0.05360  Biso   1.000  H
  C5       1.0000 0.79890  0.22810  0.93980  Biso   1.000  C
  C6       1.0000 0.20110  0.77190  0.06020  Biso   1.000  C
  H9       1.0000 0.75410  0.27660  0.95720  Biso   1.000  H
  H10      1.0000 0.24590  0.72340  0.04280  Biso   1.000  H
  H11      1.0000 0.78540  0.22110  0.87400  Biso   1.000  H
  H12      1.0000 0.21460  0.77890  0.12600  Biso   1.000  H
  C7       1.0000 0.93500  0.26290  0.98010  Biso   1.000  C
  C8       1.0000 0.06500  0.73710  0.01990  Biso   1.000  C
  H13      1.0000 0.98100  0.22020  0.95440  Biso   1.000  H
  H14      1.0000 0.01900  0.77980  0.04560  Biso   1.000  H
  H15      1.0000 0.96140  0.32800  0.96390  Biso   1.000  H
  H16      1.0000 0.03860  0.67200  0.03610  Biso   1.000  H
  C9       1.0000 0.96550  0.26520  0.08120  Biso   1.000  C
  C10      1.0000 0.03450  0.73480  0.91880  Biso   1.000  C
  H17      1.0000 0.93080  0.31550  0.10790  Biso   1.000  H
  H18      1.0000 0.06920  0.68450  0.89210  Biso   1.000  H
  H19      1.0000 0.05510  0.28110  0.10340  Biso   1.000  H
  H20      1.0000 0.94490  0.71890  0.89660  Biso   1.000  H
  C11      1.0000 0.91380  0.16760  0.10960  Biso   1.000  C
  C12      1.0000 0.08620  0.83240  0.89040  Biso   1.000  C
  H21      1.0000 0.95400  0.11870  0.08510  Biso   1.000  H
  H22      1.0000 0.04600  0.88130  0.91490  Biso   1.000  H
  C13      1.0000 0.94800  0.05070  0.25190  Biso   1.000  C
  C14      1.0000 0.05200  0.94930  0.74810  Biso   1.000  C
  H23      1.0000 0.94000  0.04330  0.31390  Biso   1.000  H
  H24      1.0000 0.06000  0.95670  0.68610  Biso   1.000  H
  H25      1.0000 0.87380  0.01170  0.21150  Biso   1.000  H
  H26      1.0000 0.12620  0.98830  0.78850  Biso   1.000  H
  C15      1.0000 0.05890  0.01290  0.23630  Biso   1.000  C
  C16      1.0000 0.94110  0.98710  0.76370  Biso   1.000  C
  C17      1.0000 0.27050  0.99350  0.29230  Biso   1.000  C
  C18      1.0000 0.72950  0.00650  0.70770  Biso   1.000  C
  H27      1.0000 0.34220  0.04610  0.29790  Biso   1.000  H
  H28      1.0000 0.65780  0.95390  0.70210  Biso   1.000  H
  H29      1.0000 0.25370  0.95830  0.23220  Biso   1.000  H
  H30      1.0000 0.74630  0.04170  0.76780  Biso   1.000  H
  C19      1.0000 0.29840  0.92560  0.36330  Biso   1.000  C
  C20      1.0000 0.70160  0.07440  0.63670  Biso   1.000  C
  H31      1.0000 0.36910  0.89860  0.35410  Biso   1.000  H
  H32      1.0000 0.63090  0.10140  0.64590  Biso   1.000  H
  H33      1.0000 0.22750  0.87180  0.35540  Biso   1.000  H
  H34      1.0000 0.77250  0.12820  0.64460  Biso   1.000  H
  C21      1.0000 0.19730  0.03670  0.46740  Biso   1.000  C
  C22      1.0000 0.80270  0.96330  0.53260  Biso   1.000  C
  H35      1.0000 0.12410  0.98540  0.46110  Biso   1.000  H
  H36      1.0000 0.87590  0.01460  0.53890  Biso   1.000  H
  H37      1.0000 0.20500  0.07910  0.52260  Biso   1.000  H
  H38      1.0000 0.79500  0.92090  0.47740  Biso   1.000  H
  C23      1.0000 0.18100  0.09440  0.38800  Biso   1.000  C
  C24      1.0000 0.81900  0.90560  0.61200  Biso   1.000  C
  H39      1.0000 0.10940  0.12440  0.38680  Biso   1.000  H
  H40      1.0000 0.89060  0.87560  0.61320  Biso   1.000  H
  H41      1.0000 0.25370  0.14620  0.39450  Biso   1.000  H
  H42      1.0000 0.74630  0.85380  0.60550  Biso   1.000  H
  C25      1.0000 0.26850  0.14350  0.09270  Biso   1.000  C
  C26      1.0000 0.73150  0.85650  0.90730  Biso   1.000  C
  H43      1.0000 0.31730  0.09650  0.11570  Biso   1.000  H
  H44      1.0000 0.68270  0.90350  0.88430  Biso   1.000  H
  H45      1.0000 0.19560  0.13570  0.11870  Biso   1.000  H
  H46      1.0000 0.80440  0.86430  0.88130  Biso   1.000  H
  C27      1.0000 0.22930  0.12490  0.99160  Biso   1.000  C
  C28      1.0000 0.77070  0.87510  0.00840  Biso   1.000  C
  H47      1.0000 0.17650  0.16940  0.96900  Biso   1.000  H
  H48      1.0000 0.82350  0.83060  0.03100  Biso   1.000  H
  H49      1.0000 0.18170  0.05870  0.97430  Biso   1.000  H
  H50      1.0000 0.81830  0.94130  0.02570  Biso   1.000  H
  C29      1.0000 0.34180  0.13880  0.94990  Biso   1.000  C
  C30      1.0000 0.65820  0.86120  0.05010  Biso   1.000  C
  H51      1.0000 0.39180  0.09140  0.96960  Biso   1.000  H
  H52      1.0000 0.60820  0.90860  0.03040  Biso   1.000  H
  H53      1.0000 0.31490  0.12760  0.88420  Biso   1.000  H
  H54      1.0000 0.68510  0.87240  0.11580  Biso   1.000  H
  C31      1.0000 0.41890  0.23970  0.97690  Biso   1.000  C
  C32      1.0000 0.58110  0.76030  0.02310  Biso   1.000  C
  H55      1.0000 0.37150  0.28680  0.95210  Biso   1.000  H
  H56      1.0000 0.62850  0.71320  0.04790  Biso   1.000  H
  H57      1.0000 0.49260  0.24580  0.95190  Biso   1.000  H
  H58      1.0000 0.50740  0.75420  0.04810  Biso   1.000  H
  C33      1.0000 0.45690  0.26120  0.07950  Biso   1.000  C
  C34      1.0000 0.54310  0.73880  0.92050  Biso   1.000  C
  H59      1.0000 0.51220  0.21900  0.10370  Biso   1.000  H
  H60      1.0000 0.48780  0.78100  0.89630  Biso   1.000  H
  H61      1.0000 0.50170  0.32840  0.09560  Biso   1.000  H
  H62      1.0000 0.49830  0.67160  0.90440  Biso   1.000  H
  C35      1.0000 0.34470  0.24540  0.12050  Biso   1.000  C
  C36      1.0000 0.65530  0.75460  0.87950  Biso   1.000  C
  H63      1.0000 0.29290  0.29180  0.09870  Biso   1.000  H
  H64      1.0000 0.70710  0.70820  0.90130  Biso   1.000  H
  C37      1.0000 0.40820  0.39340  0.26550  Biso   1.000  C
  C38      1.0000 0.59180  0.60660  0.73450  Biso   1.000  C
  H65      1.0000 0.45100  0.41400  0.32830  Biso   1.000  H
  H66      1.0000 0.54900  0.58600  0.67170  Biso   1.000  H
  H67      1.0000 0.46020  0.42370  0.22700  Biso   1.000  H
  H68      1.0000 0.53980  0.57630  0.77300  Biso   1.000  H
  C39      1.0000 0.28550  0.42650  0.24700  Biso   1.000  C
  C40      1.0000 0.71450  0.57350  0.75300  Biso   1.000  C
  C41      1.0000 0.25380  0.38080  0.39800  Biso   1.000  C
  C42      1.0000 0.74620  0.61920  0.60200  Biso   1.000  C
  H69      1.0000 0.32600  0.35180  0.39860  Biso   1.000  H
  H70      1.0000 0.67400  0.64820  0.60140  Biso   1.000  H
  H71      1.0000 0.18600  0.33030  0.40580  Biso   1.000  H
  H72      1.0000 0.81400  0.66970  0.59420  Biso   1.000  H
  C43      1.0000 0.28270  0.46020  0.47410  Biso   1.000  C
  C44      1.0000 0.71730  0.53980  0.52590  Biso   1.000  C
  H73      1.0000 0.35050  0.51030  0.46600  Biso   1.000  H
  H74      1.0000 0.64950  0.48970  0.53400  Biso   1.000  H
  H75      1.0000 0.30990  0.43410  0.53090  Biso   1.000  H
  H76      1.0000 0.69010  0.56590  0.46910  Biso   1.000  H
  C45      1.0000 0.11620  0.54070  0.36620  Biso   1.000  C
  C46      1.0000 0.88380  0.45930  0.63380  Biso   1.000  C
  H77      1.0000 0.03870  0.56380  0.35550  Biso   1.000  H
  H78      1.0000 0.96130  0.43620  0.64450  Biso   1.000  H
  H79      1.0000 0.18100  0.59300  0.35720  Biso   1.000  H
  H80      1.0000 0.81900  0.40700  0.64280  Biso   1.000  H
  C47      1.0000 0.10420  0.45390  0.29760  Biso   1.000  C
  C48      1.0000 0.89580  0.54610  0.70240  Biso   1.000  C
  H81      1.0000 0.03680  0.40230  0.30400  Biso   1.000  H
  H82      1.0000 0.96320  0.59770  0.69600  Biso   1.000  H
  H83      1.0000 0.08480  0.47270  0.23660  Biso   1.000  H
  H84      1.0000 0.91520  0.52730  0.76340  Biso   1.000  H
  C49      1.0000 0.31400  0.50400  0.99000  Biso   1.000  C
  C50      1.0000 0.68600  0.49600  0.01000  Biso   1.000  C
  H85      1.0000 0.32190  0.45730  0.03350  Biso   1.000  H
  H86      1.0000 0.67810  0.54270  0.96650  Biso   1.000  H
  H87      1.0000 0.35140  0.56850  0.02050  Biso   1.000  H
  H88      1.0000 0.64860  0.43150  0.97950  Biso   1.000  H
  H89      1.0000 0.35560  0.48980  0.94300  Biso   1.000  H
  H90      1.0000 0.64440  0.51020  0.05700  Biso   1.000  H
  C51      1.0000 0.16500  0.49900  0.94600  Biso   1.000  C
  C52      1.0000 0.83500  0.50100  0.05400  Biso   1.000  C
  N5       1.0000 0.06200  0.48710  0.91600  Biso   1.000  N
  N6       1.0000 0.93800  0.51290  0.08400  Biso   1.000  N
  C53      1.0000 0.20300  0.48800  0.97700  Biso   1.000  C
  C54      1.0000 0.79700  0.51200  0.02300  Biso   1.000  C
  H91      1.0000 0.15200  0.49310  0.91930  Biso   1.000  H
  H92      1.0000 0.84800  0.50690  0.08070  Biso   1.000  H
  H93      1.0000 0.18710  0.53230  0.02280  Biso   1.000  H
  H94      1.0000 0.81290  0.46770  0.97720  Biso   1.000  H
  H95      1.0000 0.18510  0.42270  0.99270  Biso   1.000  H
  H96      1.0000 0.81490  0.57730  0.00730  Biso   1.000  H
  C55      1.0000 0.30400  0.50800  0.97400  Biso   1.000  C
  C56      1.0000 0.69600  0.49200  0.02600  Biso   1.000  C
  N7       1.0000 0.42600  0.50600  0.99600  Biso   1.000  N
  N8       1.0000 0.57400  0.49400  0.00400  Biso   1.000  N
  C57      1.0000 0.42100  0.69300  0.24900  Biso   1.000  C
  C58      1.0000 0.57900  0.30700  0.75100  Biso   1.000  C
  H97      1.0000 0.39270  0.69400  0.18520  Biso   1.000  H
  H98      1.0000 0.60730  0.30600  0.81480  Biso   1.000  H
  H99      1.0000 0.37700  0.73040  0.28170  Biso   1.000  H
  H100     1.0000 0.62300  0.26960  0.71830  Biso   1.000  H
  H101     1.0000 0.40500  0.62630  0.26350  Biso   1.000  H
  H102     1.0000 0.59500  0.37370  0.73650  Biso   1.000  H
  C59      1.0000 0.54700  0.73100  0.27500  Biso   1.000  C
  C60      1.0000 0.45300  0.26900  0.72500  Biso   1.000  C
  H103     1.0000 0.57090  0.71950  0.21770  Biso   1.000  H
  H104     1.0000 0.42910  0.28050  0.78230  Biso   1.000  H
  H105     1.0000 0.54600  0.80040  0.28040  Biso   1.000  H
  H106     1.0000 0.45400  0.19960  0.71960  Biso   1.000  H
  C61      1.0000 0.65700  0.73100  0.33500  Biso   1.000  C
  C62      1.0000 0.34300  0.26900  0.66500  Biso   1.000  C
  H107     1.0000 0.66870  0.66450  0.33600  Biso   1.000  H
  H108     1.0000 0.33130  0.33550  0.66400  Biso   1.000  H
  H109     1.0000 0.64970  0.75390  0.39520  Biso   1.000  H
  H110     1.0000 0.35030  0.24610  0.60480  Biso   1.000  H
  C63      1.0000 0.76200  0.78800  0.31600  Biso   1.000  C
  C64      1.0000 0.23800  0.21200  0.68400  Biso   1.000  C
  H111     1.0000 0.72130  0.83190  0.27970  Biso   1.000  H
  H112     1.0000 0.27870  0.16810  0.72030  Biso   1.000  H
  H113     1.0000 0.79390  0.82560  0.37540  Biso   1.000  H
  H114     1.0000 0.20610  0.17440  0.62460  Biso   1.000  H
  C65      1.0000 0.86900  0.80100  0.28700  Biso   1.000  C
  C66      1.0000 0.13100  0.19900  0.71300  Biso   1.000  C
  H115     1.0000 0.93530  0.82330  0.34040  Biso   1.000  H
  H116     1.0000 0.06470  0.17670  0.65960  Biso   1.000  H
  H117     1.0000 0.86770  0.85660  0.25120  Biso   1.000  H
  H118     1.0000 0.13230  0.14340  0.74880  Biso   1.000  H
  C67      1.0000 0.90900  0.73300  0.23700  Biso   1.000  C
  C68      1.0000 0.09100  0.26700  0.76300  Biso   1.000  C
  H119     1.0000 0.87730  0.66930  0.25160  Biso   1.000  H
  H120     1.0000 0.12270  0.33070  0.74840  Biso   1.000  H
  H121     1.0000 0.99810  0.74580  0.25100  Biso   1.000  H
  H122     1.0000 0.00190  0.25420  0.74900  Biso   1.000  H
  H123     1.0000 0.87900  0.73700  0.17330  Biso   1.000  H
  H124     1.0000 0.12100  0.26300  0.82670  Biso   1.000  H
  C69      1.0000 0.47400  0.71000  0.25400  Biso   1.000  C
  C70      1.0000 0.52600  0.29000  0.74600  Biso   1.000  C
  H125     1.0000 0.51210  0.77830  0.26630  Biso   1.000  H
  H126     1.0000 0.48790  0.22170  0.73370  Biso   1.000  H
  H127     1.0000 0.40090  0.69790  0.27820  Biso   1.000  H
  H128     1.0000 0.59910  0.30210  0.72180  Biso   1.000  H
  H129     1.0000 0.45220  0.69190  0.18940  Biso   1.000  H
  H130     1.0000 0.54780  0.30810  0.81060  Biso   1.000  H
  C71      1.0000 0.55700  0.65600  0.29400  Biso   1.000  C
  C72      1.0000 0.44300  0.34400  0.70600  Biso   1.000  C
  H131     1.0000 0.57920  0.67530  0.35900  Biso   1.000  H
  H132     1.0000 0.42080  0.32470  0.64100  Biso   1.000  H
  H133     1.0000 0.51580  0.58760  0.28450  Biso   1.000  H
  H134     1.0000 0.48420  0.41240  0.71550  Biso   1.000  H
  C73      1.0000 0.66300  0.66400  0.26300  Biso   1.000  C
  C74      1.0000 0.33700  0.33600  0.73700  Biso   1.000  C
  H135     1.0000 0.63470  0.67100  0.19950  Biso   1.000  H
  H136     1.0000 0.36530  0.32900  0.80050  Biso   1.000  H
  H137     1.0000 0.67840  0.59790  0.26390  Biso   1.000  H
  H138     1.0000 0.32160  0.40210  0.73610  Biso   1.000  H
  C75      1.0000 0.78200  0.71900  0.28200  Biso   1.000  C
  C76      1.0000 0.21800  0.28100  0.71800  Biso   1.000  C
  H139     1.0000 0.78030  0.78260  0.26150  Biso   1.000  H
  H140     1.0000 0.21970  0.21740  0.73850  Biso   1.000  H
  H141     1.0000 0.81440  0.72840  0.34770  Biso   1.000  H
  H142     1.0000 0.18560  0.27160  0.65230  Biso   1.000  H
  C77      1.0000 0.84000  0.68700  0.25200  Biso   1.000  C
  C78      1.0000 0.16000  0.31300  0.74800  Biso   1.000  C
  H143     1.0000 0.79300  0.66180  0.19160  Biso   1.000  H
  H144     1.0000 0.20700  0.33820  0.80840  Biso   1.000  H
  H145     1.0000 0.85160  0.63040  0.28430  Biso   1.000  H
  H146     1.0000 0.14840  0.36960  0.71570  Biso   1.000  H
  C79      1.0000 0.96600  0.73400  0.24200  Biso   1.000  C
  C80      1.0000 0.03400  0.26600  0.75800  Biso   1.000  C
  H147     1.0000 0.96320  0.79570  0.21910  Biso   1.000  H
  H148     1.0000 0.03680  0.20430  0.78090  Biso   1.000  H
  H149     1.0000 0.99290  0.69230  0.19980  Biso   1.000  H
  H150     1.0000 0.00710  0.30770  0.80020  Biso   1.000  H
  H151     1.0000 0.02390  0.74320  0.29970  Biso   1.000  H
  H152     1.0000 0.97610  0.25680  0.70030  Biso   1.000  H
