data_image0
_cell_length_a       10.4687
_cell_length_b       8.7776
_cell_length_c       17.4451
_cell_angle_alpha    90
_cell_angle_beta     103.533
_cell_angle_gamma    90

_symmetry_space_group_name_H-M    "P 1"
_symmetry_int_tables_number       1

loop_
  _symmetry_equiv_pos_as_xyz
  'x, y, z'

loop_
  _atom_site_label
  _atom_site_occupancy
  _atom_site_fract_x
  _atom_site_fract_y
  _atom_site_fract_z
  _atom_site_thermal_displace_type
  _atom_site_B_iso_or_equiv
  _atom_site_type_symbol
  Cu1      1.0000 0.60769  0.46844  0.07078  Biso   1.000  Cu
  Cu2      1.0000 0.39231  0.96844  0.42922  Biso   1.000  Cu
  Cu3      1.0000 0.39231  0.53156  0.92922  Biso   1.000  Cu
  Cu4      1.0000 0.60769  0.03156  0.57078  Biso   1.000  Cu
  I1       1.0000 0.37816  0.32656  0.03596  Biso   1.000  I
  I2       1.0000 0.62184  0.82656  0.46404  Biso   1.000  I
  I3       1.0000 0.62184  0.67344  0.96404  Biso   1.000  I
  I4       1.0000 0.37816  0.17344  0.53596  Biso   1.000  I
  S1       1.0000 0.78663  0.30493  0.11563  Biso   1.000  S
  S2       1.0000 0.21337  0.80493  0.38437  Biso   1.000  S
  S3       1.0000 0.21337  0.69507  0.88437  Biso   1.000  S
  S4       1.0000 0.78663  0.19507  0.61563  Biso   1.000  S
  S5       1.0000 0.63705  0.60014  0.19357  Biso   1.000  S
  S6       1.0000 0.36295  0.10014  0.30643  Biso   1.000  S
  S7       1.0000 0.36295  0.39986  0.80643  Biso   1.000  S
  S8       1.0000 0.63705  0.89986  0.69357  Biso   1.000  S
  O1       1.0000 0.91950  0.03710  0.19952  Biso   1.000  O
  O2       1.0000 0.08050  0.53710  0.30048  Biso   1.000  O
  O3       1.0000 0.08050  0.96290  0.80048  Biso   1.000  O
  O4       1.0000 0.91950  0.46290  0.69952  Biso   1.000  O
  N1       1.0000 0.75320  0.92580  0.24078  Biso   1.000  N
  N2       1.0000 0.24680  0.42580  0.25922  Biso   1.000  N
  N3       1.0000 0.24680  0.07420  0.75922  Biso   1.000  N
  N4       1.0000 0.75320  0.57420  0.74078  Biso   1.000  N
  C1       1.0000 0.91820  0.32860  0.00150  Biso   1.000  C
  C2       1.0000 0.08180  0.82860  0.49850  Biso   1.000  C
  C3       1.0000 0.08180  0.67140  0.99850  Biso   1.000  C
  C4       1.0000 0.91820  0.17140  0.50150  Biso   1.000  C
  H1       1.0000 0.99470  0.36450  0.04230  Biso   1.000  H
  H2       1.0000 0.00530  0.86450  0.45770  Biso   1.000  H
  H3       1.0000 0.00530  0.63550  0.95770  Biso   1.000  H
  H4       1.0000 0.99470  0.13550  0.54230  Biso   1.000  H
  H5       1.0000 0.85990  0.41690  0.98400  Biso   1.000  H
  H6       1.0000 0.14010  0.91690  0.51600  Biso   1.000  H
  H7       1.0000 0.14010  0.58310  0.01600  Biso   1.000  H
  H8       1.0000 0.85990  0.08310  0.48400  Biso   1.000  H
  C5       1.0000 0.96590  0.26500  0.93100  Biso   1.000  C
  C6       1.0000 0.03410  0.76500  0.56900  Biso   1.000  C
  C7       1.0000 0.03410  0.73500  0.06900  Biso   1.000  C
  C8       1.0000 0.96590  0.23500  0.43100  Biso   1.000  C
  H9       1.0000 0.00720  0.34780  0.90680  Biso   1.000  H
  H10      1.0000 0.99280  0.84780  0.59320  Biso   1.000  H
  H11      1.0000 0.99280  0.65220  0.09320  Biso   1.000  H
  H12      1.0000 0.00720  0.15220  0.40680  Biso   1.000  H
  H13      1.0000 0.03320  0.18570  0.94970  Biso   1.000  H
  H14      1.0000 0.96680  0.68570  0.55030  Biso   1.000  H
  H15      1.0000 0.96680  0.81430  0.05030  Biso   1.000  H
  H16      1.0000 0.03320  0.31430  0.44970  Biso   1.000  H
  C9       1.0000 0.85330  0.19710  0.86960  Biso   1.000  C
  C10      1.0000 0.14670  0.69710  0.63040  Biso   1.000  C
  C11      1.0000 0.14670  0.80290  0.13040  Biso   1.000  C
  C12      1.0000 0.85330  0.30290  0.36960  Biso   1.000  C
  H17      1.0000 0.88750  0.15270  0.82620  Biso   1.000  H
  H18      1.0000 0.11250  0.65270  0.67380  Biso   1.000  H
  H19      1.0000 0.11250  0.84730  0.17380  Biso   1.000  H
  H20      1.0000 0.88750  0.34730  0.32620  Biso   1.000  H
  H21      1.0000 0.78990  0.27830  0.84720  Biso   1.000  H
  H22      1.0000 0.21010  0.77830  0.65280  Biso   1.000  H
  H23      1.0000 0.21010  0.72170  0.15280  Biso   1.000  H
  H24      1.0000 0.78990  0.22170  0.34720  Biso   1.000  H
  C13      1.0000 0.78400  0.07390  0.90640  Biso   1.000  C
  C14      1.0000 0.21600  0.57390  0.59360  Biso   1.000  C
  C15      1.0000 0.21600  0.92610  0.09360  Biso   1.000  C
  C16      1.0000 0.78400  0.42610  0.40640  Biso   1.000  C
  H25      1.0000 0.84570  0.98890  0.92470  Biso   1.000  H
  H26      1.0000 0.15430  0.48890  0.57530  Biso   1.000  H
  H27      1.0000 0.15430  0.01110  0.07530  Biso   1.000  H
  H28      1.0000 0.84570  0.51110  0.42470  Biso   1.000  H
  H29      1.0000 0.70890  0.03350  0.86600  Biso   1.000  H
  H30      1.0000 0.29110  0.53350  0.63400  Biso   1.000  H
  H31      1.0000 0.29110  0.96650  0.13400  Biso   1.000  H
  H32      1.0000 0.70890  0.46650  0.36600  Biso   1.000  H
  C17      1.0000 0.73450  0.13660  0.97570  Biso   1.000  C
  C18      1.0000 0.26550  0.63660  0.52430  Biso   1.000  C
  C19      1.0000 0.26550  0.86340  0.02430  Biso   1.000  C
  C20      1.0000 0.73450  0.36340  0.47570  Biso   1.000  C
  H33      1.0000 0.66550  0.21370  0.95630  Biso   1.000  H
  H34      1.0000 0.33450  0.71370  0.54370  Biso   1.000  H
  H35      1.0000 0.33450  0.78630  0.04370  Biso   1.000  H
  H36      1.0000 0.66550  0.28630  0.45630  Biso   1.000  H
  H37      1.0000 0.69470  0.05290  0.00030  Biso   1.000  H
  H38      1.0000 0.30530  0.55290  0.49970  Biso   1.000  H
  H39      1.0000 0.30530  0.94710  0.99970  Biso   1.000  H
  H40      1.0000 0.69470  0.44710  0.50030  Biso   1.000  H
  C21      1.0000 0.84410  0.20830  0.03696  Biso   1.000  C
  C22      1.0000 0.15590  0.70830  0.46304  Biso   1.000  C
  C23      1.0000 0.15590  0.79170  0.96304  Biso   1.000  C
  C24      1.0000 0.84410  0.29170  0.53696  Biso   1.000  C
  H41      1.0000 0.90740  0.12660  0.06110  Biso   1.000  H
  H42      1.0000 0.09260  0.62660  0.43890  Biso   1.000  H
  H43      1.0000 0.09260  0.87340  0.93890  Biso   1.000  H
  H44      1.0000 0.90740  0.37340  0.56110  Biso   1.000  H
  C25      1.0000 0.70850  0.15580  0.15910  Biso   1.000  C
  C26      1.0000 0.29150  0.65580  0.34090  Biso   1.000  C
  C27      1.0000 0.29150  0.84420  0.84090  Biso   1.000  C
  C28      1.0000 0.70850  0.34420  0.65910  Biso   1.000  C
  H45      1.0000 0.66280  0.20180  0.19710  Biso   1.000  H
  H46      1.0000 0.33720  0.70180  0.30290  Biso   1.000  H
  H47      1.0000 0.33720  0.79820  0.80290  Biso   1.000  H
  H48      1.0000 0.66280  0.29820  0.69710  Biso   1.000  H
  H49      1.0000 0.64130  0.10610  0.11710  Biso   1.000  H
  H50      1.0000 0.35870  0.60610  0.38290  Biso   1.000  H
  H51      1.0000 0.35870  0.89390  0.88290  Biso   1.000  H
  H52      1.0000 0.64130  0.39390  0.61710  Biso   1.000  H
  C29      1.0000 0.80380  0.03490  0.20146  Biso   1.000  C
  C30      1.0000 0.19620  0.53490  0.29854  Biso   1.000  C
  C31      1.0000 0.19620  0.96510  0.79854  Biso   1.000  C
  C32      1.0000 0.80380  0.46510  0.70146  Biso   1.000  C
  C33      1.0000 0.83350  0.79260  0.27070  Biso   1.000  C
  C34      1.0000 0.16650  0.29260  0.22930  Biso   1.000  C
  C35      1.0000 0.16650  0.20740  0.72930  Biso   1.000  C
  C36      1.0000 0.83350  0.70740  0.77070  Biso   1.000  C
  H53      1.0000 0.81390  0.75870  0.32080  Biso   1.000  H
  H54      1.0000 0.18610  0.25870  0.17920  Biso   1.000  H
  H55      1.0000 0.18610  0.24130  0.67920  Biso   1.000  H
  H56      1.0000 0.81390  0.74130  0.82080  Biso   1.000  H
  H57      1.0000 0.92770  0.82030  0.28140  Biso   1.000  H
  H58      1.0000 0.07230  0.32030  0.21860  Biso   1.000  H
  H59      1.0000 0.07230  0.17970  0.71860  Biso   1.000  H
  H60      1.0000 0.92770  0.67970  0.78140  Biso   1.000  H
  C37      1.0000 0.80630  0.66440  0.21170  Biso   1.000  C
  C38      1.0000 0.19370  0.16440  0.28830  Biso   1.000  C
  C39      1.0000 0.19370  0.33560  0.78830  Biso   1.000  C
  C40      1.0000 0.80630  0.83560  0.71170  Biso   1.000  C
  H61      1.0000 0.86560  0.57800  0.23160  Biso   1.000  H
  H62      1.0000 0.13440  0.07800  0.26840  Biso   1.000  H
  H63      1.0000 0.13440  0.42200  0.76840  Biso   1.000  H
  H64      1.0000 0.86560  0.92200  0.73160  Biso   1.000  H
  H65      1.0000 0.82510  0.69910  0.16150  Biso   1.000  H
  H66      1.0000 0.17490  0.19910  0.33850  Biso   1.000  H
  H67      1.0000 0.17490  0.30090  0.83850  Biso   1.000  H
  H68      1.0000 0.82510  0.80090  0.66150  Biso   1.000  H
  C41      1.0000 0.55610  0.78310  0.17200  Biso   1.000  C
  C42      1.0000 0.44390  0.28310  0.32800  Biso   1.000  C
  C43      1.0000 0.44390  0.21690  0.82800  Biso   1.000  C
  C44      1.0000 0.55610  0.71690  0.67200  Biso   1.000  C
  H69      1.0000 0.56580  0.81880  0.11980  Biso   1.000  H
  H70      1.0000 0.43420  0.31880  0.38020  Biso   1.000  H
  H71      1.0000 0.43420  0.18120  0.88020  Biso   1.000  H
  H72      1.0000 0.56580  0.68120  0.61980  Biso   1.000  H
  H73      1.0000 0.46110  0.77060  0.16920  Biso   1.000  H
  H74      1.0000 0.53890  0.27060  0.33080  Biso   1.000  H
  H75      1.0000 0.53890  0.22940  0.83080  Biso   1.000  H
  H76      1.0000 0.46110  0.72940  0.66920  Biso   1.000  H
  C45      1.0000 0.61230  0.90280  0.23400  Biso   1.000  C
  C46      1.0000 0.38770  0.40280  0.26600  Biso   1.000  C
  C47      1.0000 0.38770  0.09720  0.76600  Biso   1.000  C
  C48      1.0000 0.61230  0.59720  0.73400  Biso   1.000  C
  H77      1.0000 0.56550  0.00040  0.21960  Biso   1.000  H
  H78      1.0000 0.43450  0.50040  0.28040  Biso   1.000  H
  H79      1.0000 0.43450  0.99960  0.78040  Biso   1.000  H
  H80      1.0000 0.56550  0.49960  0.71960  Biso   1.000  H
  H81      1.0000 0.59790  0.87020  0.28570  Biso   1.000  H
  H82      1.0000 0.40210  0.37020  0.21430  Biso   1.000  H
  H83      1.0000 0.40210  0.12980  0.71430  Biso   1.000  H
  H84      1.0000 0.59790  0.62980  0.78570  Biso   1.000  H
