data_image0
_cell_length_a       9.464
_cell_length_b       6.119
_cell_length_c       19.69
_cell_angle_alpha    90
_cell_angle_beta     124.78
_cell_angle_gamma    90

_symmetry_space_group_name_H-M    "P 1"
_symmetry_int_tables_number       1

loop_
  _symmetry_equiv_pos_as_xyz
  'x, y, z'

loop_
  _atom_site_label
  _atom_site_occupancy
  _atom_site_fract_x
  _atom_site_fract_y
  _atom_site_fract_z
  _atom_site_thermal_displace_type
  _atom_site_B_iso_or_equiv
  _atom_site_type_symbol
  Cl1      1.0000 0.06190  0.92900  0.93100  Biso   1.000  Cl
  Cl2      1.0000 0.93810  0.42900  0.56900  Biso   1.000  Cl
  Cl3      1.0000 0.93810  0.07100  0.06900  Biso   1.000  Cl
  Cl4      1.0000 0.06190  0.57100  0.43100  Biso   1.000  Cl
  Cl5      1.0000 0.35210  0.29020  0.89460  Biso   1.000  Cl
  Cl6      1.0000 0.64790  0.79020  0.60540  Biso   1.000  Cl
  Cl7      1.0000 0.64790  0.70980  0.10540  Biso   1.000  Cl
  Cl8      1.0000 0.35210  0.20980  0.39460  Biso   1.000  Cl
  Cu1      1.0000 0.10390  0.05210  0.83470  Biso   1.000  Cu
  Cu2      1.0000 0.89610  0.55210  0.66530  Biso   1.000  Cu
  Cu3      1.0000 0.89610  0.94790  0.16530  Biso   1.000  Cu
  Cu4      1.0000 0.10390  0.44790  0.33470  Biso   1.000  Cu
  C1       1.0000 0.40920  0.34550  0.60750  Biso   1.000  C
  C2       1.0000 0.59080  0.84550  0.89250  Biso   1.000  C
  C3       1.0000 0.59080  0.65450  0.39250  Biso   1.000  C
  C4       1.0000 0.40920  0.15450  0.10750  Biso   1.000  C
  C5       1.0000 0.30690  0.16770  0.66920  Biso   1.000  C
  C6       1.0000 0.69310  0.66770  0.83080  Biso   1.000  C
  C7       1.0000 0.69310  0.83230  0.33080  Biso   1.000  C
  C8       1.0000 0.30690  0.33230  0.16920  Biso   1.000  C
  C9       1.0000 0.24530  0.99740  0.61150  Biso   1.000  C
  C10      1.0000 0.75470  0.49740  0.88850  Biso   1.000  C
  C11      1.0000 0.75470  0.00260  0.38850  Biso   1.000  C
  C12      1.0000 0.24530  0.50260  0.11150  Biso   1.000  C
  C13      1.0000 0.26920  0.01010  0.54990  Biso   1.000  C
  C14      1.0000 0.73080  0.51010  0.95010  Biso   1.000  C
  C15      1.0000 0.73080  0.98990  0.45010  Biso   1.000  C
  C16      1.0000 0.26920  0.48990  0.04990  Biso   1.000  C
  C17      1.0000 0.18490  0.92380  0.70340  Biso   1.000  C
  C18      1.0000 0.81510  0.42380  0.79660  Biso   1.000  C
  C19      1.0000 0.81510  0.07620  0.29660  Biso   1.000  C
  C20      1.0000 0.18490  0.57620  0.20340  Biso   1.000  C
  H1       1.0000 0.37400  0.21000  0.50300  Biso   1.000  H
  H2       1.0000 0.62600  0.71000  0.99700  Biso   1.000  H
  H3       1.0000 0.62600  0.79000  0.49700  Biso   1.000  H
  H4       1.0000 0.37400  0.29000  0.00300  Biso   1.000  H
  H5       1.0000 0.47700  0.48200  0.60300  Biso   1.000  H
  H6       1.0000 0.52300  0.98200  0.89700  Biso   1.000  H
  H7       1.0000 0.52300  0.51800  0.39700  Biso   1.000  H
  H8       1.0000 0.47700  0.01800  0.10300  Biso   1.000  H
  H9       1.0000 0.22500  0.88500  0.50300  Biso   1.000  H
  H10      1.0000 0.77500  0.38500  0.99700  Biso   1.000  H
  H11      1.0000 0.77500  0.11500  0.49700  Biso   1.000  H
  H12      1.0000 0.22500  0.61500  0.00300  Biso   1.000  H
  H13      1.0000 0.11100  0.69500  0.60400  Biso   1.000  H
  H14      1.0000 0.88900  0.19500  0.89600  Biso   1.000  H
  H15      1.0000 0.88900  0.30500  0.39600  Biso   1.000  H
  H16      1.0000 0.11100  0.80500  0.10400  Biso   1.000  H
  H17      1.0000 0.29700  0.22300  0.77500  Biso   1.000  H
  H18      1.0000 0.70300  0.72300  0.72500  Biso   1.000  H
  H19      1.0000 0.70300  0.77700  0.22500  Biso   1.000  H
  H20      1.0000 0.29700  0.27700  0.27500  Biso   1.000  H
  N1       1.0000 0.35270  0.19090  0.55110  Biso   1.000  N
  N2       1.0000 0.64730  0.69090  0.94890  Biso   1.000  N
  N3       1.0000 0.64730  0.80910  0.44890  Biso   1.000  N
  N4       1.0000 0.35270  0.30910  0.05110  Biso   1.000  N
  N5       1.0000 0.38950  0.34570  0.66880  Biso   1.000  N
  N6       1.0000 0.61050  0.84570  0.83120  Biso   1.000  N
  N7       1.0000 0.61050  0.65430  0.33120  Biso   1.000  N
  N8       1.0000 0.38950  0.15430  0.16880  Biso   1.000  N
  N9       1.0000 0.17050  0.84740  0.63480  Biso   1.000  N
  N10      1.0000 0.82950  0.34740  0.86520  Biso   1.000  N
  N11      1.0000 0.82950  0.15260  0.36520  Biso   1.000  N
  N12      1.0000 0.17050  0.65260  0.13480  Biso   1.000  N
  N13      1.0000 0.26770  0.12100  0.72410  Biso   1.000  N
  N14      1.0000 0.73230  0.62100  0.77590  Biso   1.000  N
  N15      1.0000 0.73230  0.87900  0.27590  Biso   1.000  N
  N16      1.0000 0.26770  0.37900  0.22410  Biso   1.000  N
  S1       1.0000 0.12500  0.79050  0.75790  Biso   1.000  S
  S2       1.0000 0.87500  0.29050  0.74210  Biso   1.000  S
  S3       1.0000 0.87500  0.20950  0.24210  Biso   1.000  S
  S4       1.0000 0.12500  0.70950  0.25790  Biso   1.000  S
