data_image0
_cell_length_a       12.7209
_cell_length_b       13.0515
_cell_length_c       16.7648
_cell_angle_alpha    68.655
_cell_angle_beta     70.397
_cell_angle_gamma    68.19

_symmetry_space_group_name_H-M    "P 1"
_symmetry_int_tables_number       1

loop_
  _symmetry_equiv_pos_as_xyz
  'x, y, z'

loop_
  _atom_site_label
  _atom_site_occupancy
  _atom_site_fract_x
  _atom_site_fract_y
  _atom_site_fract_z
  _atom_site_thermal_displace_type
  _atom_site_B_iso_or_equiv
  _atom_site_type_symbol
  I1       1.0000 0.70459  0.05255  0.75795  Biso   1.000  I
  I2       1.0000 0.29541  0.94745  0.24205  Biso   1.000  I
  I3       1.0000 0.94533  0.22001  0.76438  Biso   1.000  I
  I4       1.0000 0.05467  0.77999  0.23562  Biso   1.000  I
  Cu1      1.0000 0.81235  0.21578  0.67539  Biso   1.000  Cu
  Cu2      1.0000 0.18765  0.78422  0.32461  Biso   1.000  Cu
  Cu3      1.0000 0.74806  0.16163  0.84408  Biso   1.000  Cu
  Cu4      1.0000 0.25194  0.83837  0.15592  Biso   1.000  Cu
  Cl1      1.0000 0.67530  0.70860  0.92770  Biso   1.000  Cl
  Cl2      1.0000 0.32470  0.29140  0.07230  Biso   1.000  Cl
  Cl3      1.0000 0.77530  0.59060  0.79240  Biso   1.000  Cl
  Cl4      1.0000 0.22470  0.40940  0.20760  Biso   1.000  Cl
  Cl5      1.0000 0.57340  0.78490  0.78010  Biso   1.000  Cl
  Cl6      1.0000 0.42660  0.21510  0.21990  Biso   1.000  Cl
  Cl7      1.0000 0.63400  0.73390  0.28250  Biso   1.000  Cl
  Cl8      1.0000 0.36600  0.26610  0.71750  Biso   1.000  Cl
  Cl9      1.0000 0.76170  0.63500  0.41830  Biso   1.000  Cl
  Cl10     1.0000 0.23830  0.36500  0.58170  Biso   1.000  Cl
  Cl11     1.0000 0.85430  0.56350  0.25870  Biso   1.000  Cl
  Cl12     1.0000 0.14570  0.43650  0.74130  Biso   1.000  Cl
  Cl13     1.0000 0.63650  0.76450  0.95520  Biso   1.000  Cl
  Cl14     1.0000 0.36350  0.23550  0.04480  Biso   1.000  Cl
  Cl15     1.0000 0.76160  0.58920  0.86550  Biso   1.000  Cl
  Cl16     1.0000 0.23840  0.41080  0.13450  Biso   1.000  Cl
  Cl17     1.0000 0.55430  0.75750  0.81870  Biso   1.000  Cl
  Cl18     1.0000 0.44570  0.24250  0.18130  Biso   1.000  Cl
  Cl19     1.0000 0.63620  0.70330  0.38450  Biso   1.000  Cl
  Cl20     1.0000 0.36380  0.29670  0.61550  Biso   1.000  Cl
  Cl21     1.0000 0.85670  0.59960  0.43130  Biso   1.000  Cl
  Cl22     1.0000 0.14330  0.40040  0.56870  Biso   1.000  Cl
  Cl23     1.0000 0.82720  0.57300  0.27760  Biso   1.000  Cl
  Cl24     1.0000 0.17280  0.42700  0.72240  Biso   1.000  Cl
  S1       1.0000 0.01158  0.28133  0.25213  Biso   1.000  S
  S2       1.0000 0.98842  0.71867  0.74787  Biso   1.000  S
  S3       1.0000 0.09300  0.22040  0.96527  Biso   1.000  S
  S4       1.0000 0.90700  0.77960  0.03473  Biso   1.000  S
  S5       1.0000 0.69354  0.37923  0.10505  Biso   1.000  S
  S6       1.0000 0.30646  0.62077  0.89495  Biso   1.000  S
  S7       1.0000 0.33430  0.01787  0.72743  Biso   1.000  S
  S8       1.0000 0.66570  0.98213  0.27257  Biso   1.000  S
  S9       1.0000 0.25208  0.10743  0.44317  Biso   1.000  S
  S10      1.0000 0.74792  0.89257  0.55683  Biso   1.000  S
  S11      1.0000 0.40030  0.70790  0.58941  Biso   1.000  S
  S12      1.0000 0.59970  0.29210  0.41059  Biso   1.000  S
  N1       1.0000 0.89610  0.20830  0.54950  Biso   1.000  N
  N2       1.0000 0.10390  0.79170  0.45050  Biso   1.000  N
  N3       1.0000 0.39330  0.69640  0.14040  Biso   1.000  N
  N4       1.0000 0.60670  0.30360  0.85960  Biso   1.000  N
  N5       1.0000 0.25380  0.91990  0.02530  Biso   1.000  N
  N6       1.0000 0.74620  0.08010  0.97470  Biso   1.000  N
  N7       1.0000 0.69010  0.37720  0.64570  Biso   1.000  N
  N8       1.0000 0.30990  0.62280  0.35430  Biso   1.000  N
  C1       1.0000 0.88590  0.14210  0.51020  Biso   1.000  C
  C2       1.0000 0.11410  0.85790  0.48980  Biso   1.000  C
  H1       1.0000 0.85450  0.08170  0.54510  Biso   1.000  H
  H2       1.0000 0.14550  0.91830  0.45490  Biso   1.000  H
  C3       1.0000 0.91960  0.15770  0.42000  Biso   1.000  C
  C4       1.0000 0.08040  0.84230  0.58000  Biso   1.000  C
  H3       1.0000 0.91050  0.10900  0.39540  Biso   1.000  H
  H4       1.0000 0.08950  0.89100  0.60460  Biso   1.000  H
  C5       1.0000 0.96710  0.24730  0.36670  Biso   1.000  C
  C6       1.0000 0.03290  0.75270  0.63330  Biso   1.000  C
  C7       1.0000 0.98220  0.31250  0.40860  Biso   1.000  C
  C8       1.0000 0.01780  0.68750  0.59140  Biso   1.000  C
  H5       1.0000 0.01810  0.37030  0.37600  Biso   1.000  H
  H6       1.0000 0.98190  0.62970  0.62400  Biso   1.000  H
  C9       1.0000 0.94460  0.29250  0.49780  Biso   1.000  C
  C10      1.0000 0.05540  0.70750  0.50220  Biso   1.000  C
  H7       1.0000 0.95310  0.33980  0.52400  Biso   1.000  H
  H8       1.0000 0.04690  0.66020  0.47600  Biso   1.000  H
  C11      1.0000 0.96040  0.19450  0.22030  Biso   1.000  C
  C12      1.0000 0.03960  0.80550  0.77970  Biso   1.000  C
  H9       1.0000 0.99830  0.11390  0.24350  Biso   1.000  H
  H10      1.0000 0.00170  0.88610  0.75650  Biso   1.000  H
  H11      1.0000 0.87710  0.20790  0.24370  Biso   1.000  H
  H12      1.0000 0.12290  0.79210  0.75630  Biso   1.000  H
  C13      1.0000 0.98730  0.22540  0.12380  Biso   1.000  C
  C14      1.0000 0.01270  0.77460  0.87620  Biso   1.000  C
  C15      1.0000 0.07970  0.16160  0.07510  Biso   1.000  C
  C16      1.0000 0.92030  0.83840  0.92490  Biso   1.000  C
  H13      1.0000 0.13010  0.09290  0.09970  Biso   1.000  H
  H14      1.0000 0.86990  0.90710  0.90030  Biso   1.000  H
  C17      1.0000 0.97530  0.33420  0.98170  Biso   1.000  C
  C18      1.0000 0.02470  0.66580  0.01830  Biso   1.000  C
  H15      1.0000 0.94690  0.39440  0.93640  Biso   1.000  H
  H16      1.0000 0.05310  0.60560  0.06360  Biso   1.000  H
  C19      1.0000 0.92800  0.32750  0.06740  Biso   1.000  C
  C20      1.0000 0.07200  0.67250  0.93260  Biso   1.000  C
  C21      1.0000 0.82100  0.41500  0.10020  Biso   1.000  C
  C22      1.0000 0.17900  0.58500  0.89980  Biso   1.000  C
  H17      1.0000 0.82050  0.49100  0.06090  Biso   1.000  H
  H18      1.0000 0.17950  0.50900  0.93910  Biso   1.000  H
  H19      1.0000 0.82050  0.41480  0.15830  Biso   1.000  H
  H20      1.0000 0.17950  0.58520  0.84170  Biso   1.000  H
  C23      1.0000 0.57980  0.50300  0.12230  Biso   1.000  C
  C24      1.0000 0.42020  0.49700  0.87770  Biso   1.000  C
  C25      1.0000 0.47550  0.51810  0.10530  Biso   1.000  C
  C26      1.0000 0.52450  0.48190  0.89470  Biso   1.000  C
  H21      1.0000 0.46600  0.46310  0.08750  Biso   1.000  H
  H22      1.0000 0.53400  0.53690  0.91250  Biso   1.000  H
  C27      1.0000 0.38620  0.61480  0.11490  Biso   1.000  C
  C28      1.0000 0.61380  0.38520  0.88510  Biso   1.000  C
  H23      1.0000 0.31660  0.62380  0.10280  Biso   1.000  H
  H24      1.0000 0.68340  0.37620  0.89720  Biso   1.000  H
  C29      1.0000 0.49270  0.68070  0.15700  Biso   1.000  C
  C30      1.0000 0.50730  0.31930  0.84300  Biso   1.000  C
  H25      1.0000 0.49950  0.73680  0.17530  Biso   1.000  H
  H26      1.0000 0.50050  0.26320  0.82470  Biso   1.000  H
  C31      1.0000 0.58900  0.58530  0.14880  Biso   1.000  C
  C32      1.0000 0.41100  0.41470  0.85120  Biso   1.000  C
  H27      1.0000 0.65770  0.57830  0.16120  Biso   1.000  H
  H28      1.0000 0.34230  0.42170  0.83880  Biso   1.000  H
  C33      1.0000 0.18750  0.90770  0.98440  Biso   1.000  C
  C34      1.0000 0.81250  0.09230  0.01560  Biso   1.000  C
  H29      1.0000 0.12490  0.87890  0.01890  Biso   1.000  H
  H30      1.0000 0.87510  0.12110  0.98110  Biso   1.000  H
  C35      1.0000 0.20560  0.93480  0.89470  Biso   1.000  C
  C36      1.0000 0.79440  0.06520  0.10530  Biso   1.000  C
  H31      1.0000 0.15710  0.92390  0.86950  Biso   1.000  H
  H32      1.0000 0.84290  0.07610  0.13050  Biso   1.000  H
  C37      1.0000 0.29760  0.97860  0.84280  Biso   1.000  C
  C38      1.0000 0.70240  0.02140  0.15720  Biso   1.000  C
  C39      1.0000 0.36560  0.99430  0.88440  Biso   1.000  C
  C40      1.0000 0.63440  0.00570  0.11560  Biso   1.000  C
  H33      1.0000 0.42730  0.02530  0.85180  Biso   1.000  H
  H34      1.0000 0.57270  0.97470  0.14820  Biso   1.000  H
  C41      1.0000 0.34000  0.96320  0.97530  Biso   1.000  C
  C42      1.0000 0.66000  0.03680  0.02470  Biso   1.000  C
  H35      1.0000 0.38660  0.97340  0.00260  Biso   1.000  H
  H36      1.0000 0.61340  0.02660  0.99740  Biso   1.000  H
  C43      1.0000 0.24660  0.96150  0.69850  Biso   1.000  C
  C44      1.0000 0.75340  0.03850  0.30150  Biso   1.000  C
  H37      1.0000 0.16470  0.99370  0.72260  Biso   1.000  H
  H38      1.0000 0.83530  0.00630  0.27740  Biso   1.000  H
  H39      1.0000 0.26610  0.87870  0.72210  Biso   1.000  H
  H40      1.0000 0.73390  0.12130  0.27790  Biso   1.000  H
  C45      1.0000 0.27140  0.99380  0.59970  Biso   1.000  C
  C46      1.0000 0.72860  0.00620  0.40030  Biso   1.000  C
  C47      1.0000 0.20330  0.08850  0.55430  Biso   1.000  C
  C48      1.0000 0.79670  0.91150  0.44570  Biso   1.000  C
  H41      1.0000 0.13760  0.13780  0.58040  Biso   1.000  H
  H42      1.0000 0.86240  0.86220  0.41960  Biso   1.000  H
  C49      1.0000 0.36560  0.98580  0.45850  Biso   1.000  C
  C50      1.0000 0.63440  0.01420  0.54150  Biso   1.000  C
  H43      1.0000 0.42030  0.95800  0.41260  Biso   1.000  H
  H44      1.0000 0.57970  0.04200  0.58740  Biso   1.000  H
  C51      1.0000 0.36770  0.93490  0.54310  Biso   1.000  C
  C52      1.0000 0.63230  0.06510  0.45690  Biso   1.000  C
  C53      1.0000 0.45580  0.82500  0.57480  Biso   1.000  C
  C54      1.0000 0.54420  0.17500  0.42520  Biso   1.000  C
  H45      1.0000 0.52980  0.81960  0.53200  Biso   1.000  H
  H46      1.0000 0.47020  0.18040  0.46800  Biso   1.000  H
  H47      1.0000 0.46720  0.82180  0.63010  Biso   1.000  H
  H48      1.0000 0.53280  0.17820  0.36990  Biso   1.000  H
  C55      1.0000 0.69430  0.47200  0.65450  Biso   1.000  C
  C56      1.0000 0.30570  0.52800  0.34550  Biso   1.000  C
  H49      1.0000 0.75670  0.46800  0.67380  Biso   1.000  H
  H50      1.0000 0.24330  0.53200  0.32620  Biso   1.000  H
  C57      1.0000 0.61050  0.57800  0.63660  Biso   1.000  C
  C58      1.0000 0.38950  0.42200  0.36340  Biso   1.000  C
  H51      1.0000 0.61940  0.64310  0.64120  Biso   1.000  H
  H52      1.0000 0.38060  0.35690  0.35880  Biso   1.000  H
  C59      1.0000 0.51590  0.58440  0.61230  Biso   1.000  C
  C60      1.0000 0.48410  0.41560  0.38770  Biso   1.000  C
  C61      1.0000 0.51110  0.48330  0.60450  Biso   1.000  C
  C62      1.0000 0.48890  0.51670  0.39550  Biso   1.000  C
  H53      1.0000 0.44810  0.48330  0.58820  Biso   1.000  H
  H54      1.0000 0.55190  0.51670  0.41180  Biso   1.000  H
  C63      1.0000 0.59900  0.38480  0.62080  Biso   1.000  C
  C64      1.0000 0.40100  0.61520  0.37920  Biso   1.000  C
  H55      1.0000 0.59440  0.31920  0.61380  Biso   1.000  H
  H56      1.0000 0.40560  0.68080  0.38620  Biso   1.000  H
  C65      1.0000 0.70250  0.72300  0.81560  Biso   1.000  C
  C66      1.0000 0.29750  0.27700  0.18440  Biso   1.000  C
  H57      1.0000 0.75240  0.77400  0.78340  Biso   1.000  H
  H58      1.0000 0.24760  0.22600  0.21660  Biso   1.000  H
  C67      1.0000 0.77240  0.67680  0.30490  Biso   1.000  C
  C68      1.0000 0.22760  0.32320  0.69510  Biso   1.000  C
  H59      1.0000 0.81200  0.73710  0.27770  Biso   1.000  H
  H60      1.0000 0.18800  0.26290  0.72230  Biso   1.000  H
  C69      1.0000 0.67810  0.73220  0.85480  Biso   1.000  C
  C70      1.0000 0.32190  0.26780  0.14520  Biso   1.000  C
  H61      1.0000 0.72490  0.78200  0.81120  Biso   1.000  H
  H62      1.0000 0.27510  0.21800  0.18880  Biso   1.000  H
  C71      1.0000 0.78690  0.66350  0.34480  Biso   1.000  C
  C72      1.0000 0.21310  0.33650  0.65520  Biso   1.000  C
  H63      1.0000 0.81040  0.73320  0.30900  Biso   1.000  H
  H64      1.0000 0.18960  0.26680  0.69100  Biso   1.000  H
