data_image0
_cell_length_a       10.0063
_cell_length_b       14.6856
_cell_length_c       15.2104
_cell_angle_alpha    88.738
_cell_angle_beta     80.324
_cell_angle_gamma    81.463

_symmetry_space_group_name_H-M    "P 1"
_symmetry_int_tables_number       1

loop_
  _symmetry_equiv_pos_as_xyz
  'x, y, z'

loop_
  _atom_site_label
  _atom_site_occupancy
  _atom_site_fract_x
  _atom_site_fract_y
  _atom_site_fract_z
  _atom_site_thermal_displace_type
  _atom_site_B_iso_or_equiv
  _atom_site_type_symbol
  I1       1.0000 0.61885  0.33204  0.62115  Biso   1.000  I
  I2       1.0000 0.38115  0.66796  0.37885  Biso   1.000  I
  I3       1.0000 0.81944  0.33171  0.85877  Biso   1.000  I
  I4       1.0000 0.18056  0.66829  0.14123  Biso   1.000  I
  Cu1      1.0000 0.60611  0.29001  0.79027  Biso   1.000  Cu
  Cu2      1.0000 0.39389  0.70999  0.20973  Biso   1.000  Cu
  Cu3      1.0000 0.84221  0.27897  0.69223  Biso   1.000  Cu
  Cu4      1.0000 0.15779  0.72103  0.30777  Biso   1.000  Cu
  S1       1.0000 0.03465  0.38779  0.07140  Biso   1.000  S
  S2       1.0000 0.96535  0.61221  0.92860  Biso   1.000  S
  S3       1.0000 0.76098  0.46812  0.36454  Biso   1.000  S
  S4       1.0000 0.23902  0.53188  0.63546  Biso   1.000  S
  S5       1.0000 0.04370  0.17607  0.34845  Biso   1.000  S
  S6       1.0000 0.95630  0.82393  0.65155  Biso   1.000  S
  S7       1.0000 0.60521  0.64386  0.57963  Biso   1.000  S
  S8       1.0000 0.39479  0.35614  0.42037  Biso   1.000  S
  S9       1.0000 0.34391  0.58426  0.87336  Biso   1.000  S
  S10      1.0000 0.65609  0.41574  0.12664  Biso   1.000  S
  S11      1.0000 0.58210  0.84531  0.85994  Biso   1.000  S
  S12      1.0000 0.41790  0.15469  0.14006  Biso   1.000  S
  N1       1.0000 0.43250  0.34500  0.87240  Biso   1.000  N
  N2       1.0000 0.56750  0.65500  0.12760  Biso   1.000  N
  N3       1.0000 0.10890  0.86520  0.31750  Biso   1.000  N
  N4       1.0000 0.89110  0.13480  0.68250  Biso   1.000  N
  N5       1.0000 0.99400  0.67990  0.38750  Biso   1.000  N
  N6       1.0000 0.00600  0.32010  0.61250  Biso   1.000  N
  N7       1.0000 0.59290  0.15050  0.81070  Biso   1.000  N
  N8       1.0000 0.40710  0.84950  0.18930  Biso   1.000  N
  C1       1.0000 0.43360  0.36160  0.95780  Biso   1.000  C
  C2       1.0000 0.56640  0.63840  0.04220  Biso   1.000  C
  H1       1.0000 0.51770  0.36350  0.97540  Biso   1.000  H
  H2       1.0000 0.48230  0.63650  0.02460  Biso   1.000  H
  C3       1.0000 0.31810  0.37600  0.02120  Biso   1.000  C
  C4       1.0000 0.68190  0.62400  0.97880  Biso   1.000  C
  H3       1.0000 0.32520  0.38690  0.08020  Biso   1.000  H
  H4       1.0000 0.67480  0.61310  0.91980  Biso   1.000  H
  C5       1.0000 0.19160  0.37430  0.99770  Biso   1.000  C
  C6       1.0000 0.80840  0.62570  0.00230  Biso   1.000  C
  C7       1.0000 0.18820  0.36080  0.90910  Biso   1.000  C
  C8       1.0000 0.81180  0.63920  0.09090  Biso   1.000  C
  H5       1.0000 0.10490  0.36110  0.88950  Biso   1.000  H
  H6       1.0000 0.89510  0.63890  0.11050  Biso   1.000  H
  C9       1.0000 0.30860  0.34690  0.84980  Biso   1.000  C
  C10      1.0000 0.69140  0.65310  0.15020  Biso   1.000  C
  H7       1.0000 0.30390  0.33820  0.79010  Biso   1.000  H
  H8       1.0000 0.69610  0.66180  0.20990  Biso   1.000  H
  C11      1.0000 0.08900  0.39140  0.17900  Biso   1.000  C
  C12      1.0000 0.91100  0.60860  0.82100  Biso   1.000  C
  H9       1.0000 0.15150  0.33600  0.18730  Biso   1.000  H
  H10      1.0000 0.84850  0.66400  0.81270  Biso   1.000  H
  H11      1.0000 0.13660  0.44390  0.18180  Biso   1.000  H
  H12      1.0000 0.86340  0.55610  0.81820  Biso   1.000  H
  C13      1.0000 0.96550  0.39880  0.25090  Biso   1.000  C
  C14      1.0000 0.03450  0.60120  0.74910  Biso   1.000  C
  C15      1.0000 0.90190  0.47950  0.28610  Biso   1.000  C
  C16      1.0000 0.09810  0.52050  0.71390  Biso   1.000  C
  H13      1.0000 0.93090  0.53570  0.26980  Biso   1.000  H
  H14      1.0000 0.06910  0.46430  0.73020  Biso   1.000  H
  C17      1.0000 0.89830  0.32350  0.28680  Biso   1.000  C
  C18      1.0000 0.10170  0.67650  0.71320  Biso   1.000  C
  C19      1.0000 0.78730  0.35270  0.34850  Biso   1.000  C
  C20      1.0000 0.21270  0.64730  0.65150  Biso   1.000  C
  H15      1.0000 0.73090  0.31340  0.37900  Biso   1.000  H
  H16      1.0000 0.26910  0.68660  0.62100  Biso   1.000  H
  C21      1.0000 0.94670  0.22430  0.26400  Biso   1.000  C
  C22      1.0000 0.05330  0.77570  0.73600  Biso   1.000  C
  H17      1.0000 0.00390  0.21850  0.20560  Biso   1.000  H
  H18      1.0000 0.99610  0.78150  0.79440  Biso   1.000  H
  H19      1.0000 0.86910  0.19200  0.26300  Biso   1.000  H
  H20      1.0000 0.13090  0.80800  0.73700  Biso   1.000  H
  C23      1.0000 0.06810  0.05630  0.33110  Biso   1.000  C
  C24      1.0000 0.93190  0.94370  0.66890  Biso   1.000  C
  C25      1.0000 0.04250  0.01300  0.25750  Biso   1.000  C
  C26      1.0000 0.95750  0.98700  0.74250  Biso   1.000  C
  H21      1.0000 0.01130  0.04720  0.21100  Biso   1.000  H
  H22      1.0000 0.98870  0.95280  0.78900  Biso   1.000  H
  C27      1.0000 0.06400  0.91850  0.25410  Biso   1.000  C
  C28      1.0000 0.93600  0.08150  0.74590  Biso   1.000  C
  H23      1.0000 0.04590  0.89020  0.20410  Biso   1.000  H
  H24      1.0000 0.95410  0.10980  0.79590  Biso   1.000  H
  C29      1.0000 0.12950  0.90770  0.38850  Biso   1.000  C
  C30      1.0000 0.87050  0.09230  0.61150  Biso   1.000  C
  H25      1.0000 0.15610  0.87180  0.43540  Biso   1.000  H
  H26      1.0000 0.84390  0.12820  0.56460  Biso   1.000  H
  C31      1.0000 0.11400  0.00220  0.39750  Biso   1.000  C
  C32      1.0000 0.88600  0.99780  0.60250  Biso   1.000  C
  H27      1.0000 0.13430  0.02860  0.44780  Biso   1.000  H
  H28      1.0000 0.86570  0.97140  0.55220  Biso   1.000  H
  C33      1.0000 0.00190  0.63920  0.46610  Biso   1.000  C
  C34      1.0000 0.99810  0.36080  0.53390  Biso   1.000  C
  H29      1.0000 0.08840  0.61940  0.48020  Biso   1.000  H
  H30      1.0000 0.91160  0.38060  0.51980  Biso   1.000  H
  C35      1.0000 0.88810  0.62460  0.52830  Biso   1.000  C
  C36      1.0000 0.11190  0.37540  0.47170  Biso   1.000  C
  H31      1.0000 0.89870  0.59530  0.58200  Biso   1.000  H
  H32      1.0000 0.10130  0.40470  0.41800  Biso   1.000  H
  C37      1.0000 0.75900  0.65450  0.50840  Biso   1.000  C
  C38      1.0000 0.24100  0.34550  0.49160  Biso   1.000  C
  C39      1.0000 0.75080  0.69530  0.42480  Biso   1.000  C
  C40      1.0000 0.24920  0.30470  0.57520  Biso   1.000  C
  H33      1.0000 0.66580  0.71460  0.40820  Biso   1.000  H
  H34      1.0000 0.33420  0.28540  0.59180  Biso   1.000  H
  C41      1.0000 0.86700  0.70630  0.36860  Biso   1.000  C
  C42      1.0000 0.13300  0.29370  0.63140  Biso   1.000  C
  H35      1.0000 0.85900  0.73370  0.31360  Biso   1.000  H
  H36      1.0000 0.14100  0.26630  0.68640  Biso   1.000  H
  C43      1.0000 0.66150  0.61820  0.68670  Biso   1.000  C
  C44      1.0000 0.33850  0.38180  0.31330  Biso   1.000  C
  H37      1.0000 0.72320  0.66030  0.69740  Biso   1.000  H
  H38      1.0000 0.27680  0.33970  0.30260  Biso   1.000  H
  H39      1.0000 0.71020  0.55600  0.68620  Biso   1.000  H
  H40      1.0000 0.28980  0.44400  0.31380  Biso   1.000  H
  C45      1.0000 0.54030  0.62800  0.75790  Biso   1.000  C
  C46      1.0000 0.45970  0.37200  0.24210  Biso   1.000  C
  C47      1.0000 0.48300  0.55400  0.79400  Biso   1.000  C
  C48      1.0000 0.51700  0.44600  0.20600  Biso   1.000  C
  H41      1.0000 0.51680  0.49350  0.77680  Biso   1.000  H
  H42      1.0000 0.48320  0.50650  0.22320  Biso   1.000  H
  C49      1.0000 0.46640  0.71110  0.79680  Biso   1.000  C
  C50      1.0000 0.53360  0.28890  0.20320  Biso   1.000  C
  C51      1.0000 0.35870  0.69790  0.86000  Biso   1.000  C
  C52      1.0000 0.64130  0.30210  0.14000  Biso   1.000  C
  H43      1.0000 0.29990  0.74520  0.89220  Biso   1.000  H
  H44      1.0000 0.70010  0.25480  0.10780  Biso   1.000  H
  C53      1.0000 0.50300  0.80500  0.77290  Biso   1.000  C
  C54      1.0000 0.49700  0.19500  0.22710  Biso   1.000  C
  H45      1.0000 0.56580  0.80220  0.71670  Biso   1.000  H
  H46      1.0000 0.43420  0.19780  0.28330  Biso   1.000  H
  H47      1.0000 0.42110  0.84720  0.76620  Biso   1.000  H
  H48      1.0000 0.57890  0.15280  0.23380  Biso   1.000  H
  C55      1.0000 0.58460  0.96260  0.83600  Biso   1.000  C
  C56      1.0000 0.41540  0.03740  0.16400  Biso   1.000  C
  C57      1.0000 0.55690  0.00490  0.75920  Biso   1.000  C
  C58      1.0000 0.44310  0.99510  0.24080  Biso   1.000  C
  H49      1.0000 0.53410  0.97140  0.71410  Biso   1.000  H
  H50      1.0000 0.46590  0.02860  0.28590  Biso   1.000  H
  C59      1.0000 0.56290  0.09780  0.74890  Biso   1.000  C
  C60      1.0000 0.43710  0.90220  0.25110  Biso   1.000  C
  H51      1.0000 0.54490  0.12520  0.69560  Biso   1.000  H
  H52      1.0000 0.45510  0.87480  0.30440  Biso   1.000  H
  C61      1.0000 0.61960  0.10870  0.88540  Biso   1.000  C
  C62      1.0000 0.38040  0.89130  0.11460  Biso   1.000  C
  H53      1.0000 0.64050  0.14380  0.93000  Biso   1.000  H
  H54      1.0000 0.35950  0.85620  0.07000  Biso   1.000  H
  C63      1.0000 0.61790  0.01660  0.90000  Biso   1.000  C
  C64      1.0000 0.38210  0.98340  0.10000  Biso   1.000  C
  H55      1.0000 0.63920  0.99030  0.95300  Biso   1.000  H
  H56      1.0000 0.36080  0.00970  0.04700  Biso   1.000  H
  C65      1.0000 0.42990  0.97300  0.53310  Biso   1.000  C
  C66      1.0000 0.57010  0.02700  0.46690  Biso   1.000  C
  C67      1.0000 0.42640  0.06770  0.52380  Biso   1.000  C
  C68      1.0000 0.57360  0.93230  0.47620  Biso   1.000  C
  C69      1.0000 0.53610  0.10290  0.47320  Biso   1.000  C
  C70      1.0000 0.46390  0.89710  0.52680  Biso   1.000  C
  C71      1.0000 0.64930  0.04340  0.43180  Biso   1.000  C
  C72      1.0000 0.35070  0.95660  0.56820  Biso   1.000  C
  C73      1.0000 0.65280  0.94880  0.44110  Biso   1.000  C
  C74      1.0000 0.34720  0.05120  0.55890  Biso   1.000  C
  C75      1.0000 0.54310  0.91360  0.49180  Biso   1.000  C
  C76      1.0000 0.45690  0.08640  0.50820  Biso   1.000  C
  C77      1.0000 0.31090  0.93490  0.58700  Biso   1.000  C
  C78      1.0000 0.68910  0.06510  0.41300  Biso   1.000  C
  C79      1.0000 0.90410  0.94450  0.04430  Biso   1.000  C
  C80      1.0000 0.09590  0.05550  0.95570  Biso   1.000  C
  C81      1.0000 0.87210  0.03930  0.05480  Biso   1.000  C
  C82      1.0000 0.12790  0.96070  0.94520  Biso   1.000  C
  C83      1.0000 0.03490  0.90380  0.98720  Biso   1.000  C
  C84      1.0000 0.96510  0.09620  0.01280  Biso   1.000  C
  C85      1.0000 0.80420  0.88330  0.08410  Biso   1.000  C
  C86      1.0000 0.19580  0.11670  0.91590  Biso   1.000  C
