data_image0
_cell_length_a       8.3397
_cell_length_b       10.5367
_cell_length_c       11.5415
_cell_angle_alpha    71.781
_cell_angle_beta     72.749
_cell_angle_gamma    78.765

_symmetry_space_group_name_H-M    "P 1"
_symmetry_int_tables_number       1

loop_
  _symmetry_equiv_pos_as_xyz
  'x, y, z'

loop_
  _atom_site_label
  _atom_site_occupancy
  _atom_site_fract_x
  _atom_site_fract_y
  _atom_site_fract_z
  _atom_site_thermal_displace_type
  _atom_site_B_iso_or_equiv
  _atom_site_type_symbol
  I1       1.0000 0.37425  0.84865  0.44614  Biso   1.000  I
  I2       1.0000 0.62575  0.15135  0.55386  Biso   1.000  I
  Cu1      1.0000 0.50249  0.92100  0.63017  Biso   1.000  Cu
  Cu2      1.0000 0.49751  0.07900  0.36983  Biso   1.000  Cu
  S1       1.0000 0.71063  0.95095  0.95075  Biso   1.000  S
  S2       1.0000 0.28937  0.04905  0.04925  Biso   1.000  S
  S3       1.0000 0.95130  0.62060  0.32159  Biso   1.000  S
  S4       1.0000 0.04870  0.37940  0.67841  Biso   1.000  S
  S5       1.0000 0.76480  0.47492  0.01046  Biso   1.000  S
  S6       1.0000 0.23520  0.52508  0.98954  Biso   1.000  S
  N1       1.0000 0.26880  0.93970  0.74590  Biso   1.000  N
  N2       1.0000 0.73120  0.06030  0.25410  Biso   1.000  N
  C1       1.0000 0.04000  0.34260  0.35900  Biso   1.000  C
  C2       1.0000 0.96000  0.65740  0.64100  Biso   1.000  C
  H1       1.0000 0.92710  0.33150  0.37350  Biso   1.000  H
  H2       1.0000 0.07290  0.66850  0.62650  Biso   1.000  H
  C3       1.0000 0.97800  0.02280  0.75690  Biso   1.000  C
  C4       1.0000 0.02200  0.97720  0.24310  Biso   1.000  C
  H3       1.0000 0.89850  0.07950  0.71680  Biso   1.000  H
  H4       1.0000 0.10150  0.92050  0.28320  Biso   1.000  H
  N3       1.0000 0.32300  0.23960  0.34890  Biso   1.000  N
  N4       1.0000 0.67700  0.76040  0.65110  Biso   1.000  N
  C5       1.0000 0.92770  0.94120  0.87890  Biso   1.000  C
  C6       1.0000 0.07230  0.05880  0.12110  Biso   1.000  C
  C7       1.0000 0.21910  0.86520  0.86450  Biso   1.000  C
  C8       1.0000 0.78090  0.13480  0.13550  Biso   1.000  C
  H5       1.0000 0.30190  0.81170  0.90300  Biso   1.000  H
  H6       1.0000 0.69810  0.18830  0.09700  Biso   1.000  H
  C9       1.0000 0.15940  0.23350  0.36560  Biso   1.000  C
  C10      1.0000 0.84060  0.76650  0.63440  Biso   1.000  C
  H7       1.0000 0.12420  0.14950  0.38290  Biso   1.000  H
  H8       1.0000 0.87580  0.85050  0.61710  Biso   1.000  H
  C11      1.0000 0.72400  0.68190  0.09130  Biso   1.000  C
  C12      1.0000 0.27600  0.31810  0.90870  Biso   1.000  C
  C13      1.0000 0.69520  0.82410  0.10080  Biso   1.000  C
  C14      1.0000 0.30480  0.17590  0.89920  Biso   1.000  C
  H9       1.0000 0.58390  0.83860  0.15540  Biso   1.000  H
  H10      1.0000 0.41610  0.16140  0.84460  Biso   1.000  H
  H11      1.0000 0.77740  0.83560  0.14000  Biso   1.000  H
  H12      1.0000 0.22260  0.16440  0.86000  Biso   1.000  H
  C15      1.0000 0.05440  0.86220  0.93330  Biso   1.000  C
  C16      1.0000 0.94560  0.13780  0.06670  Biso   1.000  C
  H13      1.0000 0.02760  0.80780  0.01570  Biso   1.000  H
  H14      1.0000 0.97240  0.19220  0.98430  Biso   1.000  H
  C17      1.0000 0.74990  0.56810  0.19350  Biso   1.000  C
  C18      1.0000 0.25010  0.43190  0.80650  Biso   1.000  C
  C19      1.0000 0.75250  0.57730  0.31910  Biso   1.000  C
  C20      1.0000 0.24750  0.42270  0.68090  Biso   1.000  C
  H15      1.0000 0.66240  0.64460  0.34400  Biso   1.000  H
  H16      1.0000 0.33760  0.35540  0.65600  Biso   1.000  H
  H17      1.0000 0.73000  0.49170  0.38070  Biso   1.000  H
  H18      1.0000 0.27000  0.50830  0.61930  Biso   1.000  H
  C21      1.0000 0.36490  0.36330  0.32350  Biso   1.000  C
  C22      1.0000 0.63510  0.63670  0.67650  Biso   1.000  C
  H19      1.0000 0.47760  0.37180  0.31310  Biso   1.000  H
  H20      1.0000 0.52240  0.62820  0.68690  Biso   1.000  H
  C23      1.0000 0.08770  0.47000  0.33050  Biso   1.000  C
  C24      1.0000 0.91230  0.53000  0.66950  Biso   1.000  C
  C25      1.0000 0.14630  0.01850  0.69660  Biso   1.000  C
  C26      1.0000 0.85370  0.98150  0.30340  Biso   1.000  C
  H21      1.0000 0.17750  0.07450  0.61540  Biso   1.000  H
  H22      1.0000 0.82250  0.92550  0.38460  Biso   1.000  H
  C27      1.0000 0.77300  0.45070  0.16170  Biso   1.000  C
  C28      1.0000 0.22700  0.54930  0.83830  Biso   1.000  C
  H23      1.0000 0.79120  0.36640  0.21650  Biso   1.000  H
  H24      1.0000 0.20880  0.63360  0.78350  Biso   1.000  H
  C29      1.0000 0.25500  0.47820  0.31160  Biso   1.000  C
  C30      1.0000 0.74500  0.52180  0.68840  Biso   1.000  C
  H25      1.0000 0.29400  0.56140  0.29080  Biso   1.000  H
  H26      1.0000 0.70600  0.43860  0.70920  Biso   1.000  H
  C31      1.0000 0.72660  0.64440  0.98900  Biso   1.000  C
  C32      1.0000 0.27340  0.35560  0.01100  Biso   1.000  C
  H27      1.0000 0.70930  0.70500  0.91430  Biso   1.000  H
  H28      1.0000 0.29070  0.29500  0.08570  Biso   1.000  H
