data_image0
_cell_length_a       9.252
_cell_length_b       16.453
_cell_length_c       14.991
_cell_angle_alpha    90
_cell_angle_beta     104.904
_cell_angle_gamma    90

_symmetry_space_group_name_H-M    "P 1"
_symmetry_int_tables_number       1

loop_
  _symmetry_equiv_pos_as_xyz
  'x, y, z'

loop_
  _atom_site_label
  _atom_site_occupancy
  _atom_site_fract_x
  _atom_site_fract_y
  _atom_site_fract_z
  _atom_site_thermal_displace_type
  _atom_site_B_iso_or_equiv
  _atom_site_type_symbol
  I1       1.0000 0.18141  0.05369  0.11751  Biso   1.000  I
  I2       1.0000 0.31859  0.55369  0.38249  Biso   1.000  I
  I3       1.0000 0.81859  0.94631  0.88249  Biso   1.000  I
  I4       1.0000 0.68141  0.44631  0.61751  Biso   1.000  I
  Cu1      1.0000 0.02629  0.05823  0.94473  Biso   1.000  Cu
  Cu2      1.0000 0.47371  0.55823  0.55527  Biso   1.000  Cu
  Cu3      1.0000 0.97371  0.94177  0.05527  Biso   1.000  Cu
  Cu4      1.0000 0.52629  0.44177  0.44473  Biso   1.000  Cu
  S1       1.0000 0.82955  0.91063  0.58575  Biso   1.000  S
  S2       1.0000 0.67045  0.41063  0.91425  Biso   1.000  S
  S3       1.0000 0.17045  0.08937  0.41425  Biso   1.000  S
  S4       1.0000 0.32955  0.58937  0.08575  Biso   1.000  S
  S5       1.0000 0.43012  0.11126  0.64751  Biso   1.000  S
  S6       1.0000 0.06988  0.61126  0.85249  Biso   1.000  S
  S7       1.0000 0.56988  0.88874  0.35249  Biso   1.000  S
  S8       1.0000 0.93012  0.38874  0.14751  Biso   1.000  S
  S9       1.0000 0.85030  0.19292  0.52831  Biso   1.000  S
  S10      1.0000 0.64970  0.69292  0.97169  Biso   1.000  S
  S11      1.0000 0.14970  0.80708  0.47169  Biso   1.000  S
  S12      1.0000 0.35030  0.30708  0.02831  Biso   1.000  S
  C1       1.0000 0.73370  0.81820  0.58550  Biso   1.000  C
  C2       1.0000 0.76630  0.31820  0.91450  Biso   1.000  C
  C3       1.0000 0.26630  0.18180  0.41450  Biso   1.000  C
  C4       1.0000 0.23370  0.68180  0.08550  Biso   1.000  C
  N1       1.0000 0.16550  0.06520  0.85850  Biso   1.000  N
  N2       1.0000 0.33450  0.56520  0.64150  Biso   1.000  N
  N3       1.0000 0.83450  0.93480  0.14150  Biso   1.000  N
  N4       1.0000 0.66550  0.43480  0.35850  Biso   1.000  N
  C5       1.0000 0.74100  0.06810  0.58720  Biso   1.000  C
  C6       1.0000 0.75900  0.56810  0.91280  Biso   1.000  C
  C7       1.0000 0.25900  0.93190  0.41280  Biso   1.000  C
  C8       1.0000 0.24100  0.43190  0.08720  Biso   1.000  C
  C9       1.0000 0.62220  0.13040  0.71000  Biso   1.000  C
  C10      1.0000 0.87780  0.63040  0.79000  Biso   1.000  C
  C11      1.0000 0.37780  0.86960  0.29000  Biso   1.000  C
  C12      1.0000 0.12220  0.36960  0.21000  Biso   1.000  C
  H1       1.0000 0.62960  0.18080  0.74440  Biso   1.000  H
  H2       1.0000 0.87040  0.68080  0.75560  Biso   1.000  H
  H3       1.0000 0.37040  0.81920  0.25560  Biso   1.000  H
  H4       1.0000 0.12960  0.31920  0.24440  Biso   1.000  H
  H5       1.0000 0.65970  0.08650  0.75290  Biso   1.000  H
  H6       1.0000 0.84030  0.58650  0.74710  Biso   1.000  H
  H7       1.0000 0.34030  0.91350  0.24710  Biso   1.000  H
  H8       1.0000 0.15970  0.41350  0.25290  Biso   1.000  H
  N5       1.0000 0.58980  0.66720  0.57510  Biso   1.000  N
  N6       1.0000 0.91020  0.16720  0.92490  Biso   1.000  N
  N7       1.0000 0.41020  0.33280  0.42490  Biso   1.000  N
  N8       1.0000 0.08980  0.83280  0.07510  Biso   1.000  N
  C13      1.0000 0.69270  0.98340  0.60150  Biso   1.000  C
  C14      1.0000 0.80730  0.48340  0.89850  Biso   1.000  C
  C15      1.0000 0.30730  0.01660  0.39850  Biso   1.000  C
  C16      1.0000 0.19270  0.51660  0.10150  Biso   1.000  C
  H9       1.0000 0.59740  0.97220  0.55800  Biso   1.000  H
  H10      1.0000 0.90260  0.47220  0.94200  Biso   1.000  H
  H11      1.0000 0.40260  0.02780  0.44200  Biso   1.000  H
  H12      1.0000 0.09740  0.52780  0.05800  Biso   1.000  H
  H13      1.0000 0.67950  0.97830  0.66340  Biso   1.000  H
  H14      1.0000 0.82050  0.47830  0.83660  Biso   1.000  H
  H15      1.0000 0.32050  0.02170  0.33660  Biso   1.000  H
  H16      1.0000 0.17950  0.52170  0.16340  Biso   1.000  H
  C17      1.0000 0.76190  0.20650  0.61260  Biso   1.000  C
  C18      1.0000 0.73810  0.70650  0.88740  Biso   1.000  C
  C19      1.0000 0.23810  0.79350  0.38740  Biso   1.000  C
  C20      1.0000 0.26190  0.29350  0.11260  Biso   1.000  C
  H17      1.0000 0.75020  0.25690  0.63810  Biso   1.000  H
  H18      1.0000 0.74980  0.75690  0.86190  Biso   1.000  H
  H19      1.0000 0.24980  0.74310  0.36190  Biso   1.000  H
  H20      1.0000 0.25020  0.24310  0.13810  Biso   1.000  H
  C21      1.0000 0.31050  0.07790  0.88530  Biso   1.000  C
  C22      1.0000 0.18950  0.57790  0.61470  Biso   1.000  C
  C23      1.0000 0.68950  0.92210  0.11470  Biso   1.000  C
  C24      1.0000 0.81050  0.42210  0.38530  Biso   1.000  C
  H21      1.0000 0.35560  0.07800  0.94840  Biso   1.000  H
  H22      1.0000 0.14440  0.57800  0.55160  Biso   1.000  H
  H23      1.0000 0.64440  0.92200  0.05160  Biso   1.000  H
  H24      1.0000 0.85560  0.42200  0.44840  Biso   1.000  H
  C25      1.0000 0.70980  0.13590  0.63920  Biso   1.000  C
  C26      1.0000 0.79020  0.63590  0.86080  Biso   1.000  C
  C27      1.0000 0.29020  0.86410  0.36080  Biso   1.000  C
  C28      1.0000 0.20980  0.36410  0.13920  Biso   1.000  C
  C29      1.0000 0.78760  0.75010  0.55030  Biso   1.000  C
  C30      1.0000 0.71240  0.25010  0.94970  Biso   1.000  C
  C31      1.0000 0.21240  0.24990  0.44970  Biso   1.000  C
  C32      1.0000 0.28760  0.74990  0.05030  Biso   1.000  C
  H25      1.0000 0.87410  0.75340  0.52970  Biso   1.000  H
  H26      1.0000 0.62590  0.25340  0.97030  Biso   1.000  H
  H27      1.0000 0.12590  0.24660  0.47030  Biso   1.000  H
  H28      1.0000 0.37410  0.74660  0.02970  Biso   1.000  H
  C33      1.0000 0.71220  0.67760  0.54580  Biso   1.000  C
  C34      1.0000 0.78780  0.17760  0.95420  Biso   1.000  C
  C35      1.0000 0.28780  0.32240  0.45420  Biso   1.000  C
  C36      1.0000 0.21220  0.82240  0.04580  Biso   1.000  C
  H29      1.0000 0.74930  0.63290  0.52070  Biso   1.000  H
  H30      1.0000 0.75070  0.13290  0.97930  Biso   1.000  H
  H31      1.0000 0.25070  0.36710  0.47930  Biso   1.000  H
  H32      1.0000 0.24930  0.86710  0.02070  Biso   1.000  H
  C37      1.0000 0.10610  0.06540  0.76720  Biso   1.000  C
  C38      1.0000 0.39390  0.56540  0.73280  Biso   1.000  C
  C39      1.0000 0.89390  0.93460  0.23280  Biso   1.000  C
  C40      1.0000 0.60610  0.43460  0.26720  Biso   1.000  C
  H33      1.0000 0.00360  0.05690  0.74600  Biso   1.000  H
  H34      1.0000 0.49640  0.55690  0.75400  Biso   1.000  H
  H35      1.0000 0.99640  0.94310  0.25400  Biso   1.000  H
  H36      1.0000 0.50360  0.44310  0.24600  Biso   1.000  H
  C41      1.0000 0.81570  0.09130  0.52500  Biso   1.000  C
  C42      1.0000 0.68430  0.59130  0.97500  Biso   1.000  C
  C43      1.0000 0.18430  0.90870  0.47500  Biso   1.000  C
  C44      1.0000 0.31570  0.40870  0.02500  Biso   1.000  C
  H37      1.0000 0.84500  0.05560  0.48480  Biso   1.000  H
  H38      1.0000 0.65500  0.55560  0.01520  Biso   1.000  H
  H39      1.0000 0.15500  0.94440  0.51520  Biso   1.000  H
  H40      1.0000 0.34500  0.44440  0.98480  Biso   1.000  H
  C45      1.0000 0.60950  0.80790  0.61750  Biso   1.000  C
  C46      1.0000 0.89050  0.30790  0.88250  Biso   1.000  C
  C47      1.0000 0.39050  0.19210  0.38250  Biso   1.000  C
  C48      1.0000 0.10950  0.69210  0.11750  Biso   1.000  C
  H41      1.0000 0.57100  0.85130  0.64380  Biso   1.000  H
  H42      1.0000 0.92900  0.35130  0.85620  Biso   1.000  H
  H43      1.0000 0.42900  0.14870  0.35620  Biso   1.000  H
  H44      1.0000 0.07100  0.64870  0.14380  Biso   1.000  H
  C49      1.0000 0.33680  0.09200  0.73260  Biso   1.000  C
  C50      1.0000 0.16320  0.59200  0.76740  Biso   1.000  C
  C51      1.0000 0.66320  0.90800  0.26740  Biso   1.000  C
  C52      1.0000 0.83680  0.40800  0.23260  Biso   1.000  C
  C53      1.0000 0.54110  0.73280  0.61090  Biso   1.000  C
  C54      1.0000 0.95890  0.23280  0.88910  Biso   1.000  C
  C55      1.0000 0.45890  0.26720  0.38910  Biso   1.000  C
  C56      1.0000 0.04110  0.76720  0.11090  Biso   1.000  C
  H45      1.0000 0.45600  0.72770  0.63260  Biso   1.000  H
  H46      1.0000 0.04400  0.22770  0.86740  Biso   1.000  H
  H47      1.0000 0.54400  0.27230  0.36740  Biso   1.000  H
  H48      1.0000 0.95600  0.77230  0.13260  Biso   1.000  H
  C57      1.0000 0.18470  0.07730  0.70320  Biso   1.000  C
  C58      1.0000 0.31530  0.57730  0.79680  Biso   1.000  C
  C59      1.0000 0.81530  0.92270  0.29680  Biso   1.000  C
  C60      1.0000 0.68470  0.42270  0.20320  Biso   1.000  C
  H49      1.0000 0.13700  0.07540  0.64050  Biso   1.000  H
  H50      1.0000 0.36300  0.57540  0.85950  Biso   1.000  H
  H51      1.0000 0.86300  0.92460  0.35950  Biso   1.000  H
  H52      1.0000 0.63700  0.42460  0.14050  Biso   1.000  H
  C61      1.0000 0.40020  0.09120  0.82610  Biso   1.000  C
  C62      1.0000 0.09980  0.59120  0.67390  Biso   1.000  C
  C63      1.0000 0.59980  0.90880  0.17390  Biso   1.000  C
  C64      1.0000 0.90020  0.40880  0.32610  Biso   1.000  C
  H53      1.0000 0.50250  0.09950  0.84930  Biso   1.000  H
  H54      1.0000 0.99750  0.59950  0.65070  Biso   1.000  H
  H55      1.0000 0.49750  0.90050  0.15070  Biso   1.000  H
  H56      1.0000 0.00250  0.40050  0.34930  Biso   1.000  H
  Cl1      1.0000 0.90530  0.63109  0.35330  Biso   1.000  Cl
  Cl2      1.0000 0.59470  0.13109  0.14670  Biso   1.000  Cl
  Cl3      1.0000 0.09470  0.36891  0.64670  Biso   1.000  Cl
  Cl4      1.0000 0.40530  0.86891  0.85330  Biso   1.000  Cl
  C65      1.0000 0.69600  0.66350  0.30710  Biso   1.000  C
  C66      1.0000 0.80400  0.16350  0.19290  Biso   1.000  C
  C67      1.0000 0.30400  0.33650  0.69290  Biso   1.000  C
  C68      1.0000 0.19600  0.83650  0.80710  Biso   1.000  C
  H57      1.0000 0.63010  0.61780  0.30740  Biso   1.000  H
  H58      1.0000 0.86990  0.11780  0.19260  Biso   1.000  H
  H59      1.0000 0.36990  0.38220  0.69260  Biso   1.000  H
  H60      1.0000 0.13010  0.88220  0.80740  Biso   1.000  H
  H61      1.0000 0.67150  0.70690  0.34440  Biso   1.000  H
  H62      1.0000 0.82850  0.20690  0.15560  Biso   1.000  H
  H63      1.0000 0.32850  0.29310  0.65560  Biso   1.000  H
  H64      1.0000 0.17150  0.79310  0.84440  Biso   1.000  H
  Cl5      1.0000 0.68310  0.69390  0.20400  Biso   1.000  Cl
  Cl6      1.0000 0.81690  0.19390  0.29600  Biso   1.000  Cl
  Cl7      1.0000 0.31690  0.30610  0.79600  Biso   1.000  Cl
  Cl8      1.0000 0.18310  0.80610  0.70400  Biso   1.000  Cl
