data_image0
_cell_length_a       14.2378
_cell_length_b       10.8114
_cell_length_c       28.5382
_cell_angle_alpha    90
_cell_angle_beta     101.954
_cell_angle_gamma    90

_symmetry_space_group_name_H-M    "P 1"
_symmetry_int_tables_number       1

loop_
  _symmetry_equiv_pos_as_xyz
  'x, y, z'

loop_
  _atom_site_label
  _atom_site_occupancy
  _atom_site_fract_x
  _atom_site_fract_y
  _atom_site_fract_z
  _atom_site_thermal_displace_type
  _atom_site_B_iso_or_equiv
  _atom_site_type_symbol
  Cu1      1.0000 0.22931  0.30910  0.30340  Biso   1.000  Cu
  Cu2      1.0000 0.77069  0.80910  0.19660  Biso   1.000  Cu
  Cu3      1.0000 0.77069  0.69090  0.69660  Biso   1.000  Cu
  Cu4      1.0000 0.22931  0.19090  0.80340  Biso   1.000  Cu
  Cu5      1.0000 0.27230  0.46297  0.21480  Biso   1.000  Cu
  Cu6      1.0000 0.72770  0.96297  0.28520  Biso   1.000  Cu
  Cu7      1.0000 0.72770  0.53703  0.78520  Biso   1.000  Cu
  Cu8      1.0000 0.27230  0.03703  0.71480  Biso   1.000  Cu
  P1       1.0000 0.25048  0.32088  0.38065  Biso   1.000  P
  P2       1.0000 0.74952  0.82088  0.11935  Biso   1.000  P
  P3       1.0000 0.74952  0.67912  0.61935  Biso   1.000  P
  P4       1.0000 0.25048  0.17912  0.88065  Biso   1.000  P
  P5       1.0000 0.22975  0.39031  0.14255  Biso   1.000  P
  P6       1.0000 0.77025  0.89031  0.35745  Biso   1.000  P
  P7       1.0000 0.77025  0.60969  0.85745  Biso   1.000  P
  P8       1.0000 0.22975  0.10969  0.64255  Biso   1.000  P
  O1       1.0000 0.35010  0.36970  0.27534  Biso   1.000  O
  O2       1.0000 0.64990  0.86970  0.22466  Biso   1.000  O
  O3       1.0000 0.64990  0.63030  0.72466  Biso   1.000  O
  O4       1.0000 0.35010  0.13030  0.77534  Biso   1.000  O
  O5       1.0000 0.16230  0.42830  0.25226  Biso   1.000  O
  O6       1.0000 0.83770  0.92830  0.24774  Biso   1.000  O
  O7       1.0000 0.83770  0.57170  0.74774  Biso   1.000  O
  O8       1.0000 0.16230  0.07170  0.75226  Biso   1.000  O
  N1       1.0000 0.69330  0.14510  0.26443  Biso   1.000  N
  N2       1.0000 0.30670  0.64510  0.23557  Biso   1.000  N
  N3       1.0000 0.30670  0.85490  0.73557  Biso   1.000  N
  N4       1.0000 0.69330  0.35490  0.76443  Biso   1.000  N
  N5       1.0000 0.80250  0.64110  0.23269  Biso   1.000  N
  N6       1.0000 0.19750  0.14110  0.26731  Biso   1.000  N
  N7       1.0000 0.19750  0.35890  0.76731  Biso   1.000  N
  N8       1.0000 0.80250  0.85890  0.73269  Biso   1.000  N
  C1       1.0000 0.74280  0.19030  0.23369  Biso   1.000  C
  C2       1.0000 0.25720  0.69030  0.26631  Biso   1.000  C
  C3       1.0000 0.25720  0.80970  0.76631  Biso   1.000  C
  C4       1.0000 0.74280  0.30970  0.73369  Biso   1.000  C
  H1       1.0000 0.79840  0.14650  0.22960  Biso   1.000  H
  H2       1.0000 0.20160  0.64650  0.27040  Biso   1.000  H
  H3       1.0000 0.20160  0.85350  0.77040  Biso   1.000  H
  H4       1.0000 0.79840  0.35350  0.72960  Biso   1.000  H
  C5       1.0000 0.71850  0.29750  0.20708  Biso   1.000  C
  C6       1.0000 0.28150  0.79750  0.29292  Biso   1.000  C
  C7       1.0000 0.28150  0.70250  0.79292  Biso   1.000  C
  C8       1.0000 0.71850  0.20250  0.70708  Biso   1.000  C
  H5       1.0000 0.75780  0.32610  0.18620  Biso   1.000  H
  H6       1.0000 0.24220  0.82610  0.31380  Biso   1.000  H
  H7       1.0000 0.24220  0.67390  0.81380  Biso   1.000  H
  H8       1.0000 0.75780  0.17390  0.68620  Biso   1.000  H
  C9       1.0000 0.63740  0.36170  0.21122  Biso   1.000  C
  C10      1.0000 0.36260  0.86170  0.28878  Biso   1.000  C
  C11      1.0000 0.36260  0.63830  0.78878  Biso   1.000  C
  C12      1.0000 0.63740  0.13830  0.71122  Biso   1.000  C
  H9       1.0000 0.61850  0.43370  0.19260  Biso   1.000  H
  H10      1.0000 0.38150  0.93370  0.30740  Biso   1.000  H
  H11      1.0000 0.38150  0.56630  0.80740  Biso   1.000  H
  H12      1.0000 0.61850  0.06630  0.69260  Biso   1.000  H
  C13      1.0000 0.58250  0.31780  0.24404  Biso   1.000  C
  C14      1.0000 0.41750  0.81780  0.25596  Biso   1.000  C
  C15      1.0000 0.41750  0.68220  0.75596  Biso   1.000  C
  C16      1.0000 0.58250  0.18220  0.74404  Biso   1.000  C
  C17      1.0000 0.49570  0.37550  0.24828  Biso   1.000  C
  C18      1.0000 0.50430  0.87550  0.25172  Biso   1.000  C
  C19      1.0000 0.50430  0.62450  0.75172  Biso   1.000  C
  C20      1.0000 0.49570  0.12450  0.74828  Biso   1.000  C
  H13      1.0000 0.47660  0.44930  0.23080  Biso   1.000  H
  H14      1.0000 0.52340  0.94930  0.26920  Biso   1.000  H
  H15      1.0000 0.52340  0.55070  0.76920  Biso   1.000  H
  H16      1.0000 0.47660  0.05070  0.73080  Biso   1.000  H
  C21      1.0000 0.43720  0.32680  0.27742  Biso   1.000  C
  C22      1.0000 0.56280  0.82680  0.22258  Biso   1.000  C
  C23      1.0000 0.56280  0.67320  0.72258  Biso   1.000  C
  C24      1.0000 0.43720  0.17320  0.77742  Biso   1.000  C
  C25      1.0000 0.47430  0.22710  0.30772  Biso   1.000  C
  C26      1.0000 0.52570  0.72710  0.19228  Biso   1.000  C
  C27      1.0000 0.52570  0.77290  0.69228  Biso   1.000  C
  C28      1.0000 0.47430  0.27290  0.80772  Biso   1.000  C
  H17      1.0000 0.43970  0.19890  0.33080  Biso   1.000  H
  H18      1.0000 0.56030  0.69890  0.16920  Biso   1.000  H
  H19      1.0000 0.56030  0.80110  0.66920  Biso   1.000  H
  H20      1.0000 0.43970  0.30110  0.83080  Biso   1.000  H
  C29      1.0000 0.55900  0.16990  0.30467  Biso   1.000  C
  C30      1.0000 0.44100  0.66990  0.19533  Biso   1.000  C
  C31      1.0000 0.44100  0.83010  0.69533  Biso   1.000  C
  C32      1.0000 0.55900  0.33010  0.80467  Biso   1.000  C
  H21      1.0000 0.58140  0.10180  0.32500  Biso   1.000  H
  H22      1.0000 0.41860  0.60180  0.17500  Biso   1.000  H
  H23      1.0000 0.41860  0.89820  0.67500  Biso   1.000  H
  H24      1.0000 0.58140  0.39820  0.82500  Biso   1.000  H
  C33      1.0000 0.61390  0.21240  0.27097  Biso   1.000  C
  C34      1.0000 0.38610  0.71240  0.22903  Biso   1.000  C
  C35      1.0000 0.38610  0.78760  0.72903  Biso   1.000  C
  C36      1.0000 0.61390  0.28760  0.77097  Biso   1.000  C
  C37      1.0000 0.74750  0.60700  0.26258  Biso   1.000  C
  C38      1.0000 0.25250  0.10700  0.23742  Biso   1.000  C
  C39      1.0000 0.25250  0.39300  0.73742  Biso   1.000  C
  C40      1.0000 0.74750  0.89300  0.76258  Biso   1.000  C
  H25      1.0000 0.68760  0.64790  0.26020  Biso   1.000  H
  H26      1.0000 0.31240  0.14790  0.23980  Biso   1.000  H
  H27      1.0000 0.31240  0.35210  0.73980  Biso   1.000  H
  H28      1.0000 0.68760  0.85210  0.76020  Biso   1.000  H
  C41      1.0000 0.77160  0.51460  0.29754  Biso   1.000  C
  C42      1.0000 0.22840  0.01460  0.20246  Biso   1.000  C
  C43      1.0000 0.22840  0.48540  0.70246  Biso   1.000  C
  C44      1.0000 0.77160  0.98540  0.79754  Biso   1.000  C
  H29      1.0000 0.72810  0.49250  0.31730  Biso   1.000  H
  H30      1.0000 0.27190  0.99250  0.18270  Biso   1.000  H
  H31      1.0000 0.27190  0.50750  0.68270  Biso   1.000  H
  H32      1.0000 0.72810  0.00750  0.81730  Biso   1.000  H
  C45      1.0000 0.85870  0.45700  0.30273  Biso   1.000  C
  C46      1.0000 0.14130  0.95700  0.19727  Biso   1.000  C
  C47      1.0000 0.14130  0.54300  0.69727  Biso   1.000  C
  C48      1.0000 0.85870  0.04300  0.80273  Biso   1.000  C
  H33      1.0000 0.87680  0.39480  0.32640  Biso   1.000  H
  H34      1.0000 0.12320  0.89480  0.17360  Biso   1.000  H
  H35      1.0000 0.12320  0.60520  0.67360  Biso   1.000  H
  H36      1.0000 0.87680  0.10520  0.82640  Biso   1.000  H
  C49      1.0000 0.92200  0.49140  0.27222  Biso   1.000  C
  C50      1.0000 0.07800  0.99140  0.22778  Biso   1.000  C
  C51      1.0000 0.07800  0.50860  0.72778  Biso   1.000  C
  C52      1.0000 0.92200  0.00860  0.77222  Biso   1.000  C
  C53      1.0000 0.01370  0.43790  0.27677  Biso   1.000  C
  C54      1.0000 0.98630  0.93790  0.22323  Biso   1.000  C
  C55      1.0000 0.98630  0.56210  0.72323  Biso   1.000  C
  C56      1.0000 0.01370  0.06210  0.77677  Biso   1.000  C
  H37      1.0000 0.03400  0.37680  0.30060  Biso   1.000  H
  H38      1.0000 0.96600  0.87680  0.19940  Biso   1.000  H
  H39      1.0000 0.96600  0.62320  0.69940  Biso   1.000  H
  H40      1.0000 0.03400  0.12320  0.80060  Biso   1.000  H
  C57      1.0000 0.07510  0.47280  0.24694  Biso   1.000  C
  C58      1.0000 0.92490  0.97280  0.25306  Biso   1.000  C
  C59      1.0000 0.92490  0.52720  0.75306  Biso   1.000  C
  C60      1.0000 0.07510  0.02720  0.74694  Biso   1.000  C
  C61      1.0000 0.03850  0.55890  0.20957  Biso   1.000  C
  C62      1.0000 0.96150  0.05890  0.29043  Biso   1.000  C
  C63      1.0000 0.96150  0.44110  0.79043  Biso   1.000  C
  C64      1.0000 0.03850  0.94110  0.70957  Biso   1.000  C
  H41      1.0000 0.07720  0.57900  0.18720  Biso   1.000  H
  H42      1.0000 0.92280  0.07900  0.31280  Biso   1.000  H
  H43      1.0000 0.92280  0.42100  0.81280  Biso   1.000  H
  H44      1.0000 0.07720  0.92100  0.68720  Biso   1.000  H
  C65      1.0000 0.95030  0.61360  0.20451  Biso   1.000  C
  C66      1.0000 0.04970  0.11360  0.29549  Biso   1.000  C
  C67      1.0000 0.04970  0.38640  0.79549  Biso   1.000  C
  C68      1.0000 0.95030  0.88640  0.70451  Biso   1.000  C
  H45      1.0000 0.92980  0.67280  0.17990  Biso   1.000  H
  H46      1.0000 0.07020  0.17280  0.32010  Biso   1.000  H
  H47      1.0000 0.07020  0.32720  0.82010  Biso   1.000  H
  H48      1.0000 0.92980  0.82720  0.67990  Biso   1.000  H
  C69      1.0000 0.88930  0.58130  0.23644  Biso   1.000  C
  C70      1.0000 0.11070  0.08130  0.26356  Biso   1.000  C
  C71      1.0000 0.11070  0.41870  0.76356  Biso   1.000  C
  C72      1.0000 0.88930  0.91870  0.73644  Biso   1.000  C
  C73      1.0000 0.15100  0.31850  0.41259  Biso   1.000  C
  C74      1.0000 0.84900  0.81850  0.08741  Biso   1.000  C
  C75      1.0000 0.84900  0.68150  0.58741  Biso   1.000  C
  C76      1.0000 0.15100  0.18150  0.91259  Biso   1.000  C
  C77      1.0000 0.09050  0.42060  0.40608  Biso   1.000  C
  C78      1.0000 0.90950  0.92060  0.09392  Biso   1.000  C
  C79      1.0000 0.90950  0.57940  0.59392  Biso   1.000  C
  C80      1.0000 0.09050  0.07940  0.90608  Biso   1.000  C
  H49      1.0000 0.09940  0.48360  0.38420  Biso   1.000  H
  H50      1.0000 0.90060  0.98360  0.11580  Biso   1.000  H
  H51      1.0000 0.90060  0.51640  0.61580  Biso   1.000  H
  H52      1.0000 0.09940  0.01640  0.88420  Biso   1.000  H
  C81      1.0000 0.01670  0.43160  0.43120  Biso   1.000  C
  C82      1.0000 0.98330  0.93160  0.06880  Biso   1.000  C
  C83      1.0000 0.98330  0.56840  0.56880  Biso   1.000  C
  C84      1.0000 0.01670  0.06840  0.93120  Biso   1.000  C
  H53      1.0000 0.97620  0.50230  0.42710  Biso   1.000  H
  H54      1.0000 0.02380  0.00230  0.07290  Biso   1.000  H
  H55      1.0000 0.02380  0.49770  0.57290  Biso   1.000  H
  H56      1.0000 0.97620  0.99770  0.92710  Biso   1.000  H
  C85      1.0000 0.00330  0.33600  0.46290  Biso   1.000  C
  C86      1.0000 0.99670  0.83600  0.03710  Biso   1.000  C
  C87      1.0000 0.99670  0.66400  0.53710  Biso   1.000  C
  C88      1.0000 0.00330  0.16400  0.96290  Biso   1.000  C
  H57      1.0000 0.95380  0.34270  0.48050  Biso   1.000  H
  H58      1.0000 0.04620  0.84270  0.01950  Biso   1.000  H
  H59      1.0000 0.04620  0.65730  0.51950  Biso   1.000  H
  H60      1.0000 0.95380  0.15730  0.98050  Biso   1.000  H
  C89      1.0000 0.06090  0.23400  0.46820  Biso   1.000  C
  C90      1.0000 0.93910  0.73400  0.03180  Biso   1.000  C
  C91      1.0000 0.93910  0.76600  0.53180  Biso   1.000  C
  C92      1.0000 0.06090  0.26600  0.96820  Biso   1.000  C
  H61      1.0000 0.04980  0.16890  0.48880  Biso   1.000  H
  H62      1.0000 0.95020  0.66890  0.01120  Biso   1.000  H
  H63      1.0000 0.95020  0.83110  0.51120  Biso   1.000  H
  H64      1.0000 0.04980  0.33110  0.98880  Biso   1.000  H
  C93      1.0000 0.13630  0.22410  0.44371  Biso   1.000  C
  C94      1.0000 0.86370  0.72410  0.05629  Biso   1.000  C
  C95      1.0000 0.86370  0.77590  0.55629  Biso   1.000  C
  C96      1.0000 0.13630  0.27590  0.94371  Biso   1.000  C
  H65      1.0000 0.17710  0.15370  0.44820  Biso   1.000  H
  H66      1.0000 0.82290  0.65370  0.05180  Biso   1.000  H
  H67      1.0000 0.82290  0.84630  0.55180  Biso   1.000  H
  H68      1.0000 0.17710  0.34630  0.94820  Biso   1.000  H
  C97      1.0000 0.31600  0.45240  0.40984  Biso   1.000  C
  C98      1.0000 0.68400  0.95240  0.09016  Biso   1.000  C
  C99      1.0000 0.68400  0.54760  0.59016  Biso   1.000  C
  C100     1.0000 0.31600  0.04760  0.90984  Biso   1.000  C
  C101     1.0000 0.33290  0.47030  0.45973  Biso   1.000  C
  C102     1.0000 0.66710  0.97030  0.04027  Biso   1.000  C
  C103     1.0000 0.66710  0.52970  0.54027  Biso   1.000  C
  C104     1.0000 0.33290  0.02970  0.95973  Biso   1.000  C
  H69      1.0000 0.30790  0.41240  0.47900  Biso   1.000  H
  H70      1.0000 0.69210  0.91240  0.02100  Biso   1.000  H
  H71      1.0000 0.69210  0.58760  0.52100  Biso   1.000  H
  H72      1.0000 0.30790  0.08760  0.97900  Biso   1.000  H
  C105     1.0000 0.38450  0.56900  0.48097  Biso   1.000  C
  C106     1.0000 0.61550  0.06900  0.01903  Biso   1.000  C
  C107     1.0000 0.61550  0.43100  0.51903  Biso   1.000  C
  C108     1.0000 0.38450  0.93100  0.98097  Biso   1.000  C
  H73      1.0000 0.39650  0.57820  0.51480  Biso   1.000  H
  H74      1.0000 0.60350  0.07820  0.98520  Biso   1.000  H
  H75      1.0000 0.60350  0.42180  0.48520  Biso   1.000  H
  H76      1.0000 0.39650  0.92180  0.01480  Biso   1.000  H
  C109     1.0000 0.41990  0.65680  0.45294  Biso   1.000  C
  C110     1.0000 0.58010  0.15680  0.04706  Biso   1.000  C
  C111     1.0000 0.58010  0.34320  0.54706  Biso   1.000  C
  C112     1.0000 0.41990  0.84320  0.95294  Biso   1.000  C
  H77      1.0000 0.45550  0.72600  0.46760  Biso   1.000  H
  H78      1.0000 0.54450  0.22600  0.03240  Biso   1.000  H
  H79      1.0000 0.54450  0.27400  0.53240  Biso   1.000  H
  H80      1.0000 0.45550  0.77400  0.96760  Biso   1.000  H
  C113     1.0000 0.40270  0.64200  0.40382  Biso   1.000  C
  C114     1.0000 0.59730  0.14200  0.09618  Biso   1.000  C
  C115     1.0000 0.59730  0.35800  0.59618  Biso   1.000  C
  C116     1.0000 0.40270  0.85800  0.90382  Biso   1.000  C
  H81      1.0000 0.42610  0.70190  0.38470  Biso   1.000  H
  H82      1.0000 0.57390  0.20190  0.11530  Biso   1.000  H
  H83      1.0000 0.57390  0.29810  0.61530  Biso   1.000  H
  H84      1.0000 0.42610  0.79810  0.88470  Biso   1.000  H
  C117     1.0000 0.35170  0.54090  0.38203  Biso   1.000  C
  C118     1.0000 0.64830  0.04090  0.11797  Biso   1.000  C
  C119     1.0000 0.64830  0.45910  0.61797  Biso   1.000  C
  C120     1.0000 0.35170  0.95910  0.88203  Biso   1.000  C
  H85      1.0000 0.34100  0.53140  0.34820  Biso   1.000  H
  H86      1.0000 0.65900  0.03140  0.15180  Biso   1.000  H
  H87      1.0000 0.65900  0.46860  0.65180  Biso   1.000  H
  H88      1.0000 0.34100  0.96860  0.84820  Biso   1.000  H
  C121     1.0000 0.32620  0.19090  0.40457  Biso   1.000  C
  C122     1.0000 0.67380  0.69090  0.09543  Biso   1.000  C
  C123     1.0000 0.67380  0.80910  0.59543  Biso   1.000  C
  C124     1.0000 0.32620  0.30910  0.90457  Biso   1.000  C
  C125     1.0000 0.29510  0.07180  0.39097  Biso   1.000  C
  C126     1.0000 0.70490  0.57180  0.10903  Biso   1.000  C
  C127     1.0000 0.70490  0.92820  0.60903  Biso   1.000  C
  C128     1.0000 0.29510  0.42820  0.89097  Biso   1.000  C
  H89      1.0000 0.23160  0.06010  0.37300  Biso   1.000  H
  H90      1.0000 0.76840  0.56010  0.12700  Biso   1.000  H
  H91      1.0000 0.76840  0.93990  0.62700  Biso   1.000  H
  H92      1.0000 0.23160  0.43990  0.87300  Biso   1.000  H
  C129     1.0000 0.35470  0.96880  0.40305  Biso   1.000  C
  C130     1.0000 0.64530  0.46880  0.09695  Biso   1.000  C
  C131     1.0000 0.64530  0.03120  0.59695  Biso   1.000  C
  C132     1.0000 0.35470  0.53120  0.90305  Biso   1.000  C
  H93      1.0000 0.33130  0.88780  0.39470  Biso   1.000  H
  H94      1.0000 0.66870  0.38780  0.10530  Biso   1.000  H
  H95      1.0000 0.66870  0.11220  0.60530  Biso   1.000  H
  H96      1.0000 0.33130  0.61220  0.89470  Biso   1.000  H
  C133     1.0000 0.44770  0.98700  0.42720  Biso   1.000  C
  C134     1.0000 0.55230  0.48700  0.07280  Biso   1.000  C
  C135     1.0000 0.55230  0.01300  0.57280  Biso   1.000  C
  C136     1.0000 0.44770  0.51300  0.92720  Biso   1.000  C
  H97      1.0000 0.48970  0.91820  0.43450  Biso   1.000  H
  H98      1.0000 0.51030  0.41820  0.06550  Biso   1.000  H
  H99      1.0000 0.51030  0.08180  0.56550  Biso   1.000  H
  H100     1.0000 0.48970  0.58180  0.93450  Biso   1.000  H
  C137     1.0000 0.48080  0.10470  0.44080  Biso   1.000  C
  C138     1.0000 0.51920  0.60470  0.05920  Biso   1.000  C
  C139     1.0000 0.51920  0.89530  0.55920  Biso   1.000  C
  C140     1.0000 0.48080  0.39530  0.94080  Biso   1.000  C
  H101     1.0000 0.54520  0.11640  0.45740  Biso   1.000  H
  H102     1.0000 0.45480  0.61640  0.04260  Biso   1.000  H
  H103     1.0000 0.45480  0.88360  0.54260  Biso   1.000  H
  H104     1.0000 0.54520  0.38360  0.95740  Biso   1.000  H
  C141     1.0000 0.42040  0.20520  0.43027  Biso   1.000  C
  C142     1.0000 0.57960  0.70520  0.06973  Biso   1.000  C
  C143     1.0000 0.57960  0.79480  0.56973  Biso   1.000  C
  C144     1.0000 0.42040  0.29480  0.93027  Biso   1.000  C
  H105     1.0000 0.44310  0.28530  0.44070  Biso   1.000  H
  H106     1.0000 0.55690  0.78530  0.05930  Biso   1.000  H
  H107     1.0000 0.55690  0.71470  0.55930  Biso   1.000  H
  H108     1.0000 0.44310  0.21470  0.94070  Biso   1.000  H
  C145     1.0000 0.28030  0.24500  0.12560  Biso   1.000  C
  C146     1.0000 0.71970  0.74500  0.37440  Biso   1.000  C
  C147     1.0000 0.71970  0.75500  0.87440  Biso   1.000  C
  C148     1.0000 0.28030  0.25500  0.62560  Biso   1.000  C
  C149     1.0000 0.23070  0.16990  0.08886  Biso   1.000  C
  C150     1.0000 0.76930  0.66990  0.41114  Biso   1.000  C
  C151     1.0000 0.76930  0.83010  0.91114  Biso   1.000  C
  C152     1.0000 0.23070  0.33010  0.58886  Biso   1.000  C
  H109     1.0000 0.16990  0.19460  0.07070  Biso   1.000  H
  H110     1.0000 0.83010  0.69460  0.42930  Biso   1.000  H
  H111     1.0000 0.83010  0.80540  0.92930  Biso   1.000  H
  H112     1.0000 0.16990  0.30540  0.57070  Biso   1.000  H
  C153     1.0000 0.27190  0.05790  0.07919  Biso   1.000  C
  C154     1.0000 0.72810  0.55790  0.42081  Biso   1.000  C
  C155     1.0000 0.72810  0.94210  0.92081  Biso   1.000  C
  C156     1.0000 0.27190  0.44210  0.57919  Biso   1.000  C
  H113     1.0000 0.23930  0.00660  0.05400  Biso   1.000  H
  H114     1.0000 0.76070  0.50660  0.44600  Biso   1.000  H
  H115     1.0000 0.76070  0.99340  0.94600  Biso   1.000  H
  H116     1.0000 0.23930  0.49340  0.55400  Biso   1.000  H
  C157     1.0000 0.35960  0.02120  0.10595  Biso   1.000  C
  C158     1.0000 0.64040  0.52120  0.39405  Biso   1.000  C
  C159     1.0000 0.64040  0.97880  0.89405  Biso   1.000  C
  C160     1.0000 0.35960  0.47880  0.60595  Biso   1.000  C
  H117     1.0000 0.38660  0.94460  0.09900  Biso   1.000  H
  H118     1.0000 0.61340  0.44460  0.40100  Biso   1.000  H
  H119     1.0000 0.61340  0.05540  0.90100  Biso   1.000  H
  H120     1.0000 0.38660  0.55540  0.59900  Biso   1.000  H
  C161     1.0000 0.40820  0.09390  0.14242  Biso   1.000  C
  C162     1.0000 0.59180  0.59390  0.35758  Biso   1.000  C
  C163     1.0000 0.59180  0.90610  0.85758  Biso   1.000  C
  C164     1.0000 0.40820  0.40610  0.64242  Biso   1.000  C
  H121     1.0000 0.46790  0.06730  0.16110  Biso   1.000  H
  H122     1.0000 0.53210  0.56730  0.33890  Biso   1.000  H
  H123     1.0000 0.53210  0.93270  0.83890  Biso   1.000  H
  H124     1.0000 0.46790  0.43270  0.66110  Biso   1.000  H
  C165     1.0000 0.36900  0.20790  0.15178  Biso   1.000  C
  C166     1.0000 0.63100  0.70790  0.34822  Biso   1.000  C
  C167     1.0000 0.63100  0.79210  0.84822  Biso   1.000  C
  C168     1.0000 0.36900  0.29210  0.65178  Biso   1.000  C
  H125     1.0000 0.40340  0.26000  0.17620  Biso   1.000  H
  H126     1.0000 0.59660  0.76000  0.32380  Biso   1.000  H
  H127     1.0000 0.59660  0.74000  0.82380  Biso   1.000  H
  H128     1.0000 0.40340  0.24000  0.67620  Biso   1.000  H
  C169     1.0000 0.24500  0.49810  0.09546  Biso   1.000  C
  C170     1.0000 0.75500  0.99810  0.40454  Biso   1.000  C
  C171     1.0000 0.75500  0.50190  0.90454  Biso   1.000  C
  C172     1.0000 0.24500  0.00190  0.59546  Biso   1.000  C
  C173     1.0000 0.23170  0.62190  0.10390  Biso   1.000  C
  C174     1.0000 0.76830  0.12190  0.39610  Biso   1.000  C
  C175     1.0000 0.76830  0.37810  0.89610  Biso   1.000  C
  C176     1.0000 0.23170  0.87810  0.60390  Biso   1.000  C
  H129     1.0000 0.21990  0.64690  0.13400  Biso   1.000  H
  H130     1.0000 0.78010  0.14690  0.36600  Biso   1.000  H
  H131     1.0000 0.78010  0.35310  0.86600  Biso   1.000  H
  H132     1.0000 0.21990  0.85310  0.63400  Biso   1.000  H
  C177     1.0000 0.23530  0.71110  0.06900  Biso   1.000  C
  C178     1.0000 0.76470  0.21110  0.43100  Biso   1.000  C
  C179     1.0000 0.76470  0.28890  0.93100  Biso   1.000  C
  C180     1.0000 0.23530  0.78890  0.56900  Biso   1.000  C
  H133     1.0000 0.22530  0.79600  0.07500  Biso   1.000  H
  H134     1.0000 0.77470  0.29600  0.42500  Biso   1.000  H
  H135     1.0000 0.77470  0.20400  0.92500  Biso   1.000  H
  H136     1.0000 0.22530  0.70400  0.57500  Biso   1.000  H
  C181     1.0000 0.25390  0.67300  0.02520  Biso   1.000  C
  C182     1.0000 0.74610  0.17300  0.47480  Biso   1.000  C
  C183     1.0000 0.74610  0.32700  0.97480  Biso   1.000  C
  C184     1.0000 0.25390  0.82700  0.52520  Biso   1.000  C
  H137     1.0000 0.25560  0.73270  0.00100  Biso   1.000  H
  H138     1.0000 0.74440  0.23270  0.49900  Biso   1.000  H
  H139     1.0000 0.74440  0.26730  0.99900  Biso   1.000  H
  H140     1.0000 0.25560  0.76730  0.50100  Biso   1.000  H
  C185     1.0000 0.26980  0.55130  0.01646  Biso   1.000  C
  C186     1.0000 0.73020  0.05130  0.48354  Biso   1.000  C
  C187     1.0000 0.73020  0.44870  0.98354  Biso   1.000  C
  C188     1.0000 0.26980  0.94870  0.51646  Biso   1.000  C
  H141     1.0000 0.28390  0.52770  0.98660  Biso   1.000  H
  H142     1.0000 0.71610  0.02770  0.51340  Biso   1.000  H
  H143     1.0000 0.71610  0.47230  0.01340  Biso   1.000  H
  H144     1.0000 0.28390  0.97230  0.48660  Biso   1.000  H
  C189     1.0000 0.26530  0.46030  0.05149  Biso   1.000  C
  C190     1.0000 0.73470  0.96030  0.44851  Biso   1.000  C
  C191     1.0000 0.73470  0.53970  0.94851  Biso   1.000  C
  C192     1.0000 0.26530  0.03970  0.55149  Biso   1.000  C
  H145     1.0000 0.27580  0.37560  0.04540  Biso   1.000  H
  H146     1.0000 0.72420  0.87560  0.45460  Biso   1.000  H
  H147     1.0000 0.72420  0.62440  0.95460  Biso   1.000  H
  H148     1.0000 0.27580  0.12440  0.54540  Biso   1.000  H
  C193     1.0000 0.10050  0.35810  0.12675  Biso   1.000  C
  C194     1.0000 0.89950  0.85810  0.37325  Biso   1.000  C
  C195     1.0000 0.89950  0.64190  0.87325  Biso   1.000  C
  C196     1.0000 0.10050  0.14190  0.62675  Biso   1.000  C
  C197     1.0000 0.03880  0.41150  0.08862  Biso   1.000  C
  C198     1.0000 0.96120  0.91150  0.41138  Biso   1.000  C
  C199     1.0000 0.96120  0.58850  0.91138  Biso   1.000  C
  C200     1.0000 0.03880  0.08850  0.58862  Biso   1.000  C
  H149     1.0000 0.06270  0.46840  0.06860  Biso   1.000  H
  H150     1.0000 0.93730  0.96840  0.43140  Biso   1.000  H
  H151     1.0000 0.93730  0.53160  0.93140  Biso   1.000  H
  H152     1.0000 0.06270  0.03160  0.56860  Biso   1.000  H
  C201     1.0000 0.94050  0.38240  0.07920  Biso   1.000  C
  C202     1.0000 0.05950  0.88240  0.42080  Biso   1.000  C
  C203     1.0000 0.05950  0.61760  0.92080  Biso   1.000  C
  C204     1.0000 0.94050  0.11760  0.57920  Biso   1.000  C
  H153     1.0000 0.89810  0.41870  0.05270  Biso   1.000  H
  H154     1.0000 0.10190  0.91870  0.44730  Biso   1.000  H
  H155     1.0000 0.10190  0.58130  0.94730  Biso   1.000  H
  H156     1.0000 0.89810  0.08130  0.55270  Biso   1.000  H
  C205     1.0000 0.90570  0.29990  0.10890  Biso   1.000  C
  C206     1.0000 0.09430  0.79990  0.39110  Biso   1.000  C
  C207     1.0000 0.09430  0.70010  0.89110  Biso   1.000  C
  C208     1.0000 0.90570  0.20010  0.60890  Biso   1.000  C
  H157     1.0000 0.83940  0.27970  0.10260  Biso   1.000  H
  H158     1.0000 0.16060  0.77970  0.39740  Biso   1.000  H
  H159     1.0000 0.16060  0.72030  0.89740  Biso   1.000  H
  H160     1.0000 0.83940  0.22030  0.60260  Biso   1.000  H
  C209     1.0000 0.96690  0.24730  0.14750  Biso   1.000  C
  C210     1.0000 0.03310  0.74730  0.35250  Biso   1.000  C
  C211     1.0000 0.03310  0.75270  0.85250  Biso   1.000  C
  C212     1.0000 0.96690  0.25270  0.64750  Biso   1.000  C
  H161     1.0000 0.94270  0.19110  0.16770  Biso   1.000  H
  H162     1.0000 0.05730  0.69110  0.33230  Biso   1.000  H
  H163     1.0000 0.05730  0.80890  0.83230  Biso   1.000  H
  H164     1.0000 0.94270  0.30890  0.66770  Biso   1.000  H
  C213     1.0000 0.06400  0.27650  0.15692  Biso   1.000  C
  C214     1.0000 0.93600  0.77650  0.34308  Biso   1.000  C
  C215     1.0000 0.93600  0.72350  0.84308  Biso   1.000  C
  C216     1.0000 0.06400  0.22350  0.65692  Biso   1.000  C
  H165     1.0000 0.10590  0.24120  0.18380  Biso   1.000  H
  H166     1.0000 0.89410  0.74120  0.31620  Biso   1.000  H
  H167     1.0000 0.89410  0.75880  0.81620  Biso   1.000  H
  H168     1.0000 0.10590  0.25880  0.68380  Biso   1.000  H
