data_image0
_cell_length_a       8.8201
_cell_length_b       14.3
_cell_length_c       13.556
_cell_angle_alpha    90
_cell_angle_beta     92.241
_cell_angle_gamma    90

_symmetry_space_group_name_H-M    "P 1"
_symmetry_int_tables_number       1

loop_
  _symmetry_equiv_pos_as_xyz
  'x, y, z'

loop_
  _atom_site_label
  _atom_site_occupancy
  _atom_site_fract_x
  _atom_site_fract_y
  _atom_site_fract_z
  _atom_site_thermal_displace_type
  _atom_site_B_iso_or_equiv
  _atom_site_type_symbol
  Cu1      1.0000 0.08898  0.50000  0.40873  Biso   1.000  Cu
  Cu2      1.0000 0.58898  0.00000  0.40873  Biso   1.000  Cu
  Cu3      1.0000 0.91102  0.50000  0.59127  Biso   1.000  Cu
  Cu4      1.0000 0.41102  0.00000  0.59127  Biso   1.000  Cu
  Cu5      1.0000 0.18646  0.37937  0.76177  Biso   1.000  Cu
  Cu6      1.0000 0.68646  0.87937  0.76177  Biso   1.000  Cu
  Cu7      1.0000 0.81354  0.37937  0.23823  Biso   1.000  Cu
  Cu8      1.0000 0.31354  0.87937  0.23823  Biso   1.000  Cu
  Cu9      1.0000 0.81354  0.62063  0.23823  Biso   1.000  Cu
  Cu10     1.0000 0.31354  0.12063  0.23823  Biso   1.000  Cu
  Cu11     1.0000 0.18646  0.62063  0.76177  Biso   1.000  Cu
  Cu12     1.0000 0.68646  0.12063  0.76177  Biso   1.000  Cu
  Cu13     1.0000 0.97604  0.78730  0.10360  Biso   1.000  Cu
  Cu14     1.0000 0.47604  0.28730  0.10360  Biso   1.000  Cu
  Cu15     1.0000 0.02396  0.78730  0.89640  Biso   1.000  Cu
  Cu16     1.0000 0.52396  0.28730  0.89640  Biso   1.000  Cu
  Cu17     1.0000 0.02396  0.21270  0.89640  Biso   1.000  Cu
  Cu18     1.0000 0.52396  0.71270  0.89640  Biso   1.000  Cu
  Cu19     1.0000 0.97604  0.21270  0.10360  Biso   1.000  Cu
  Cu20     1.0000 0.47604  0.71270  0.10360  Biso   1.000  Cu
  I1       1.0000 0.21894  0.50000  0.58723  Biso   1.000  I
  I2       1.0000 0.71894  0.00000  0.58723  Biso   1.000  I
  I3       1.0000 0.78106  0.50000  0.41277  Biso   1.000  I
  I4       1.0000 0.28106  0.00000  0.41277  Biso   1.000  I
  N1       1.0000 0.03250  0.64580  0.25710  Biso   1.000  N
  N2       1.0000 0.53250  0.14580  0.25710  Biso   1.000  N
  N3       1.0000 0.96750  0.64580  0.74290  Biso   1.000  N
  N4       1.0000 0.46750  0.14580  0.74290  Biso   1.000  N
  N5       1.0000 0.96750  0.35420  0.74290  Biso   1.000  N
  N6       1.0000 0.46750  0.85420  0.74290  Biso   1.000  N
  N7       1.0000 0.03250  0.35420  0.25710  Biso   1.000  N
  N8       1.0000 0.53250  0.85420  0.25710  Biso   1.000  N
  N9       1.0000 0.08280  0.72280  0.21670  Biso   1.000  N
  N10      1.0000 0.58280  0.22280  0.21670  Biso   1.000  N
  N11      1.0000 0.91720  0.72280  0.78330  Biso   1.000  N
  N12      1.0000 0.41720  0.22280  0.78330  Biso   1.000  N
  N13      1.0000 0.91720  0.27720  0.78330  Biso   1.000  N
  N14      1.0000 0.41720  0.77720  0.78330  Biso   1.000  N
  N15      1.0000 0.08280  0.27720  0.21670  Biso   1.000  N
  N16      1.0000 0.58280  0.77720  0.21670  Biso   1.000  N
  N17      1.0000 0.21350  0.74900  0.26360  Biso   1.000  N
  N18      1.0000 0.71350  0.24900  0.26360  Biso   1.000  N
  N19      1.0000 0.78650  0.74900  0.73640  Biso   1.000  N
  N20      1.0000 0.28650  0.24900  0.73640  Biso   1.000  N
  N21      1.0000 0.78650  0.25100  0.73640  Biso   1.000  N
  N22      1.0000 0.28650  0.75100  0.73640  Biso   1.000  N
  N23      1.0000 0.21350  0.25100  0.26360  Biso   1.000  N
  N24      1.0000 0.71350  0.75100  0.26360  Biso   1.000  N
  N25      1.0000 0.12940  0.61900  0.32990  Biso   1.000  N
  N26      1.0000 0.62940  0.11900  0.32990  Biso   1.000  N
  N27      1.0000 0.87060  0.61900  0.67010  Biso   1.000  N
  N28      1.0000 0.37060  0.11900  0.67010  Biso   1.000  N
  N29      1.0000 0.87060  0.38100  0.67010  Biso   1.000  N
  N30      1.0000 0.37060  0.88100  0.67010  Biso   1.000  N
  N31      1.0000 0.12940  0.38100  0.32990  Biso   1.000  N
  N32      1.0000 0.62940  0.88100  0.32990  Biso   1.000  N
  N33      1.0000 0.34090  0.45420  0.83510  Biso   1.000  N
  N34      1.0000 0.84090  0.95420  0.83510  Biso   1.000  N
  N35      1.0000 0.65910  0.45420  0.16490  Biso   1.000  N
  N36      1.0000 0.15910  0.95420  0.16490  Biso   1.000  N
  N37      1.0000 0.65910  0.54580  0.16490  Biso   1.000  N
  N38      1.0000 0.15910  0.04580  0.16490  Biso   1.000  N
  N39      1.0000 0.34090  0.54580  0.83510  Biso   1.000  N
  N40      1.0000 0.84090  0.04580  0.83510  Biso   1.000  N
  N41      1.0000 0.47850  0.42360  0.86660  Biso   1.000  N
  N42      1.0000 0.97850  0.92360  0.86660  Biso   1.000  N
  N43      1.0000 0.52150  0.42360  0.13340  Biso   1.000  N
  N44      1.0000 0.02150  0.92360  0.13340  Biso   1.000  N
  N45      1.0000 0.52150  0.57640  0.13340  Biso   1.000  N
  N46      1.0000 0.02150  0.07640  0.13340  Biso   1.000  N
  N47      1.0000 0.47850  0.57640  0.86660  Biso   1.000  N
  N48      1.0000 0.97850  0.07640  0.86660  Biso   1.000  N
  N49      1.0000 0.80140  0.75560  0.02010  Biso   1.000  N
  N50      1.0000 0.30140  0.25560  0.02010  Biso   1.000  N
  N51      1.0000 0.19860  0.75560  0.97990  Biso   1.000  N
  N52      1.0000 0.69860  0.25560  0.97990  Biso   1.000  N
  N53      1.0000 0.19860  0.24440  0.97990  Biso   1.000  N
  N54      1.0000 0.69860  0.74440  0.97990  Biso   1.000  N
  N55      1.0000 0.80140  0.24440  0.02010  Biso   1.000  N
  N56      1.0000 0.30140  0.74440  0.02010  Biso   1.000  N
  C1       1.0000 0.24040  0.68370  0.33160  Biso   1.000  C
  C2       1.0000 0.74040  0.18370  0.33160  Biso   1.000  C
  C3       1.0000 0.75960  0.68370  0.66840  Biso   1.000  C
  C4       1.0000 0.25960  0.18370  0.66840  Biso   1.000  C
  C5       1.0000 0.75960  0.31630  0.66840  Biso   1.000  C
  C6       1.0000 0.25960  0.81630  0.66840  Biso   1.000  C
  C7       1.0000 0.24040  0.31630  0.33160  Biso   1.000  C
  C8       1.0000 0.74040  0.81630  0.33160  Biso   1.000  C
  C9       1.0000 0.37410  0.68280  0.40140  Biso   1.000  C
  C10      1.0000 0.87410  0.18280  0.40140  Biso   1.000  C
  C11      1.0000 0.62590  0.68280  0.59860  Biso   1.000  C
  C12      1.0000 0.12590  0.18280  0.59860  Biso   1.000  C
  C13      1.0000 0.62590  0.31720  0.59860  Biso   1.000  C
  C14      1.0000 0.12590  0.81720  0.59860  Biso   1.000  C
  C15      1.0000 0.37410  0.31720  0.40140  Biso   1.000  C
  C16      1.0000 0.87410  0.81720  0.40140  Biso   1.000  C
  H1       1.0000 0.40680  0.74580  0.41420  Biso   1.000  H
  H2       1.0000 0.90680  0.24580  0.41420  Biso   1.000  H
  H3       1.0000 0.59320  0.74580  0.58580  Biso   1.000  H
  H4       1.0000 0.09320  0.24580  0.58580  Biso   1.000  H
  H5       1.0000 0.59320  0.25420  0.58580  Biso   1.000  H
  H6       1.0000 0.09320  0.75420  0.58580  Biso   1.000  H
  H7       1.0000 0.40680  0.25420  0.41420  Biso   1.000  H
  H8       1.0000 0.90680  0.75420  0.41420  Biso   1.000  H
  H9       1.0000 0.34720  0.65380  0.46210  Biso   1.000  H
  H10      1.0000 0.84720  0.15380  0.46210  Biso   1.000  H
  H11      1.0000 0.65280  0.65380  0.53790  Biso   1.000  H
  H12      1.0000 0.15280  0.15380  0.53790  Biso   1.000  H
  H13      1.0000 0.65280  0.34620  0.53790  Biso   1.000  H
  H14      1.0000 0.15280  0.84620  0.53790  Biso   1.000  H
  H15      1.0000 0.34720  0.34620  0.46210  Biso   1.000  H
  H16      1.0000 0.84720  0.84620  0.46210  Biso   1.000  H
  H17      1.0000 0.45490  0.64830  0.37300  Biso   1.000  H
  H18      1.0000 0.95490  0.14830  0.37300  Biso   1.000  H
  H19      1.0000 0.54510  0.64830  0.62700  Biso   1.000  H
  H20      1.0000 0.04510  0.14830  0.62700  Biso   1.000  H
  H21      1.0000 0.54510  0.35170  0.62700  Biso   1.000  H
  H22      1.0000 0.04510  0.85170  0.62700  Biso   1.000  H
  H23      1.0000 0.45490  0.35170  0.37300  Biso   1.000  H
  H24      1.0000 0.95490  0.85170  0.37300  Biso   1.000  H
  C17      1.0000 0.56210  0.50000  0.88350  Biso   1.000  C
  C18      1.0000 0.06210  0.00000  0.88350  Biso   1.000  C
  C19      1.0000 0.43790  0.50000  0.11650  Biso   1.000  C
  C20      1.0000 0.93790  0.00000  0.11650  Biso   1.000  C
  C21      1.0000 0.72360  0.50000  0.91530  Biso   1.000  C
  C22      1.0000 0.22360  0.00000  0.91530  Biso   1.000  C
  C23      1.0000 0.27640  0.50000  0.08470  Biso   1.000  C
  C24      1.0000 0.77640  0.00000  0.08470  Biso   1.000  C
  H25      1.0000 0.78300  0.47670  0.86280  Biso   1.000  H
  H26      1.0000 0.28300  0.97670  0.86280  Biso   1.000  H
  H27      1.0000 0.21700  0.47670  0.13720  Biso   1.000  H
  H28      1.0000 0.71700  0.97670  0.13720  Biso   1.000  H
  H29      1.0000 0.21700  0.52330  0.13720  Biso   1.000  H
  H30      1.0000 0.71700  0.02330  0.13720  Biso   1.000  H
  H31      1.0000 0.78300  0.52330  0.86280  Biso   1.000  H
  H32      1.0000 0.28300  0.02330  0.86280  Biso   1.000  H
  H33      1.0000 0.73820  0.46070  0.97230  Biso   1.000  H
  H34      1.0000 0.23820  0.96070  0.97230  Biso   1.000  H
  H35      1.0000 0.26180  0.46070  0.02770  Biso   1.000  H
  H36      1.0000 0.76180  0.96070  0.02770  Biso   1.000  H
  H37      1.0000 0.26180  0.53930  0.02770  Biso   1.000  H
  H38      1.0000 0.76180  0.03930  0.02770  Biso   1.000  H
  H39      1.0000 0.73820  0.53930  0.97230  Biso   1.000  H
  H40      1.0000 0.23820  0.03930  0.97230  Biso   1.000  H
  H41      1.0000 0.75490  0.56260  0.93150  Biso   1.000  H
  H42      1.0000 0.25490  0.06260  0.93150  Biso   1.000  H
  H43      1.0000 0.24510  0.56260  0.06850  Biso   1.000  H
  H44      1.0000 0.74510  0.06260  0.06850  Biso   1.000  H
  H45      1.0000 0.24510  0.43740  0.06850  Biso   1.000  H
  H46      1.0000 0.74510  0.93740  0.06850  Biso   1.000  H
  H47      1.0000 0.75490  0.43740  0.93150  Biso   1.000  H
  H48      1.0000 0.25490  0.93740  0.93150  Biso   1.000  H
