data_image0
_cell_length_a       20.7315
_cell_length_b       8.8557
_cell_length_c       12.0833
_cell_angle_alpha    90
_cell_angle_beta     110.731
_cell_angle_gamma    90

_symmetry_space_group_name_H-M    "P 1"
_symmetry_int_tables_number       1

loop_
  _symmetry_equiv_pos_as_xyz
  'x, y, z'

loop_
  _atom_site_label
  _atom_site_occupancy
  _atom_site_fract_x
  _atom_site_fract_y
  _atom_site_fract_z
  _atom_site_thermal_displace_type
  _atom_site_B_iso_or_equiv
  _atom_site_type_symbol
  Cu1      1.0000 0.15626  0.50272  0.74153  Biso   1.000  Cu
  Cu2      1.0000 0.65626  0.00272  0.74153  Biso   1.000  Cu
  Cu3      1.0000 0.84374  0.50272  0.75847  Biso   1.000  Cu
  Cu4      1.0000 0.34374  0.00272  0.75847  Biso   1.000  Cu
  Cu5      1.0000 0.84374  0.49728  0.25847  Biso   1.000  Cu
  Cu6      1.0000 0.34374  0.99728  0.25847  Biso   1.000  Cu
  Cu7      1.0000 0.15626  0.49728  0.24153  Biso   1.000  Cu
  Cu8      1.0000 0.65626  0.99728  0.24153  Biso   1.000  Cu
  Cu9      1.0000 0.25244  0.66443  0.09491  Biso   1.000  Cu
  Cu10     1.0000 0.75244  0.16443  0.09491  Biso   1.000  Cu
  Cu11     1.0000 0.74756  0.66443  0.40509  Biso   1.000  Cu
  Cu12     1.0000 0.24756  0.16443  0.40509  Biso   1.000  Cu
  Cu13     1.0000 0.74756  0.33557  0.90509  Biso   1.000  Cu
  Cu14     1.0000 0.24756  0.83557  0.90509  Biso   1.000  Cu
  Cu15     1.0000 0.25244  0.33557  0.59491  Biso   1.000  Cu
  Cu16     1.0000 0.75244  0.83557  0.59491  Biso   1.000  Cu
  C1       1.0000 0.14400  0.17050  0.93330  Biso   1.000  C
  C2       1.0000 0.64400  0.67050  0.93330  Biso   1.000  C
  C3       1.0000 0.85600  0.17050  0.56670  Biso   1.000  C
  C4       1.0000 0.35600  0.67050  0.56670  Biso   1.000  C
  C5       1.0000 0.85600  0.82950  0.06670  Biso   1.000  C
  C6       1.0000 0.35600  0.32950  0.06670  Biso   1.000  C
  C7       1.0000 0.14400  0.82950  0.43330  Biso   1.000  C
  C8       1.0000 0.64400  0.32950  0.43330  Biso   1.000  C
  C9       1.0000 0.15490  0.07740  0.03080  Biso   1.000  C
  C10      1.0000 0.65490  0.57740  0.03080  Biso   1.000  C
  C11      1.0000 0.84510  0.07740  0.46920  Biso   1.000  C
  C12      1.0000 0.34510  0.57740  0.46920  Biso   1.000  C
  C13      1.0000 0.84510  0.92260  0.96920  Biso   1.000  C
  C14      1.0000 0.34510  0.42260  0.96920  Biso   1.000  C
  C15      1.0000 0.15490  0.92260  0.53080  Biso   1.000  C
  C16      1.0000 0.65490  0.42260  0.53080  Biso   1.000  C
  H1       1.0000 0.19330  0.01460  0.05640  Biso   1.000  H
  H2       1.0000 0.69330  0.51460  0.05640  Biso   1.000  H
  H3       1.0000 0.80670  0.01460  0.44360  Biso   1.000  H
  H4       1.0000 0.30670  0.51460  0.44360  Biso   1.000  H
  H5       1.0000 0.80670  0.98540  0.94360  Biso   1.000  H
  H6       1.0000 0.30670  0.48540  0.94360  Biso   1.000  H
  H7       1.0000 0.19330  0.98540  0.55640  Biso   1.000  H
  H8       1.0000 0.69330  0.48540  0.55640  Biso   1.000  H
  C17      1.0000 0.10830  0.07810  0.09020  Biso   1.000  C
  C18      1.0000 0.60830  0.57810  0.09020  Biso   1.000  C
  C19      1.0000 0.89170  0.07810  0.40980  Biso   1.000  C
  C20      1.0000 0.39170  0.57810  0.40980  Biso   1.000  C
  C21      1.0000 0.89170  0.92190  0.90980  Biso   1.000  C
  C22      1.0000 0.39170  0.42190  0.90980  Biso   1.000  C
  C23      1.0000 0.10830  0.92190  0.59020  Biso   1.000  C
  C24      1.0000 0.60830  0.42190  0.59020  Biso   1.000  C
  H9       1.0000 0.11600  0.01460  0.15500  Biso   1.000  H
  H10      1.0000 0.61600  0.51460  0.15500  Biso   1.000  H
  H11      1.0000 0.88400  0.01460  0.34500  Biso   1.000  H
  H12      1.0000 0.38400  0.51460  0.34500  Biso   1.000  H
  H13      1.0000 0.88400  0.98540  0.84500  Biso   1.000  H
  H14      1.0000 0.38400  0.48540  0.84500  Biso   1.000  H
  H15      1.0000 0.11600  0.98540  0.65500  Biso   1.000  H
  H16      1.0000 0.61600  0.48540  0.65500  Biso   1.000  H
  C25      1.0000 0.05170  0.16990  0.05560  Biso   1.000  C
  C26      1.0000 0.55170  0.66990  0.05560  Biso   1.000  C
  C27      1.0000 0.94830  0.16990  0.44440  Biso   1.000  C
  C28      1.0000 0.44830  0.66990  0.44440  Biso   1.000  C
  C29      1.0000 0.94830  0.83010  0.94440  Biso   1.000  C
  C30      1.0000 0.44830  0.33010  0.94440  Biso   1.000  C
  C31      1.0000 0.05170  0.83010  0.55560  Biso   1.000  C
  C32      1.0000 0.55170  0.33010  0.55560  Biso   1.000  C
  H17      1.0000 0.02130  0.17040  0.09660  Biso   1.000  H
  H18      1.0000 0.52130  0.67040  0.09660  Biso   1.000  H
  H19      1.0000 0.97870  0.17040  0.40340  Biso   1.000  H
  H20      1.0000 0.47870  0.67040  0.40340  Biso   1.000  H
  H21      1.0000 0.97870  0.82960  0.90340  Biso   1.000  H
  H22      1.0000 0.47870  0.32960  0.90340  Biso   1.000  H
  H23      1.0000 0.02130  0.82960  0.59660  Biso   1.000  H
  H24      1.0000 0.52130  0.32960  0.59660  Biso   1.000  H
  C33      1.0000 0.04060  0.26280  0.95740  Biso   1.000  C
  C34      1.0000 0.54060  0.76280  0.95740  Biso   1.000  C
  C35      1.0000 0.95940  0.26280  0.54260  Biso   1.000  C
  C36      1.0000 0.45940  0.76280  0.54260  Biso   1.000  C
  C37      1.0000 0.95940  0.73720  0.04260  Biso   1.000  C
  C38      1.0000 0.45940  0.23720  0.04260  Biso   1.000  C
  C39      1.0000 0.04060  0.73720  0.45740  Biso   1.000  C
  C40      1.0000 0.54060  0.23720  0.45740  Biso   1.000  C
  C41      1.0000 0.08660  0.26380  0.89710  Biso   1.000  C
  C42      1.0000 0.58660  0.76380  0.89710  Biso   1.000  C
  C43      1.0000 0.91340  0.26380  0.60290  Biso   1.000  C
  C44      1.0000 0.41340  0.76380  0.60290  Biso   1.000  C
  C45      1.0000 0.91340  0.73620  0.10290  Biso   1.000  C
  C46      1.0000 0.41340  0.23620  0.10290  Biso   1.000  C
  C47      1.0000 0.08660  0.73620  0.39710  Biso   1.000  C
  C48      1.0000 0.58660  0.23620  0.39710  Biso   1.000  C
  H25      1.0000 0.07880  0.32730  0.83240  Biso   1.000  H
  H26      1.0000 0.57880  0.82730  0.83240  Biso   1.000  H
  H27      1.0000 0.92120  0.32730  0.66760  Biso   1.000  H
  H28      1.0000 0.42120  0.82730  0.66760  Biso   1.000  H
  H29      1.0000 0.92120  0.67270  0.16760  Biso   1.000  H
  H30      1.0000 0.42120  0.17270  0.16760  Biso   1.000  H
  H31      1.0000 0.07880  0.67270  0.33240  Biso   1.000  H
  H32      1.0000 0.57880  0.17270  0.33240  Biso   1.000  H
  C49      1.0000 0.19110  0.17160  0.86610  Biso   1.000  C
  C50      1.0000 0.69110  0.67160  0.86610  Biso   1.000  C
  C51      1.0000 0.80890  0.17160  0.63390  Biso   1.000  C
  C52      1.0000 0.30890  0.67160  0.63390  Biso   1.000  C
  C53      1.0000 0.80890  0.82840  0.13390  Biso   1.000  C
  C54      1.0000 0.30890  0.32840  0.13390  Biso   1.000  C
  C55      1.0000 0.19110  0.82840  0.36610  Biso   1.000  C
  C56      1.0000 0.69110  0.32840  0.36610  Biso   1.000  C
  C57      1.0000 0.98140  0.36070  0.91280  Biso   1.000  C
  C58      1.0000 0.48140  0.86070  0.91280  Biso   1.000  C
  C59      1.0000 0.01860  0.36070  0.58720  Biso   1.000  C
  C60      1.0000 0.51860  0.86070  0.58720  Biso   1.000  C
  C61      1.0000 0.01860  0.63930  0.08720  Biso   1.000  C
  C62      1.0000 0.51860  0.13930  0.08720  Biso   1.000  C
  C63      1.0000 0.98140  0.63930  0.41280  Biso   1.000  C
  C64      1.0000 0.48140  0.13930  0.41280  Biso   1.000  C
  I1       1.0000 0.13804  0.68540  0.90406  Biso   1.000  I
  I2       1.0000 0.63804  0.18540  0.90406  Biso   1.000  I
  I3       1.0000 0.86196  0.68540  0.59594  Biso   1.000  I
  I4       1.0000 0.36196  0.18540  0.59594  Biso   1.000  I
  I5       1.0000 0.86196  0.31460  0.09594  Biso   1.000  I
  I6       1.0000 0.36196  0.81460  0.09594  Biso   1.000  I
  I7       1.0000 0.13804  0.31460  0.40406  Biso   1.000  I
  I8       1.0000 0.63804  0.81460  0.40406  Biso   1.000  I
  N1       1.0000 0.19388  0.28340  0.79330  Biso   1.000  N
  N2       1.0000 0.69388  0.78340  0.79330  Biso   1.000  N
  N3       1.0000 0.80612  0.28340  0.70670  Biso   1.000  N
  N4       1.0000 0.30612  0.78340  0.70670  Biso   1.000  N
  N5       1.0000 0.80612  0.71660  0.20670  Biso   1.000  N
  N6       1.0000 0.30612  0.21660  0.20670  Biso   1.000  N
  N7       1.0000 0.19388  0.71660  0.29330  Biso   1.000  N
  N8       1.0000 0.69388  0.21660  0.29330  Biso   1.000  N
  N9       1.0000 0.24022  0.23850  0.74600  Biso   1.000  N
  N10      1.0000 0.74022  0.73850  0.74600  Biso   1.000  N
  N11      1.0000 0.75978  0.23850  0.75400  Biso   1.000  N
  N12      1.0000 0.25978  0.73850  0.75400  Biso   1.000  N
  N13      1.0000 0.75978  0.76150  0.25400  Biso   1.000  N
  N14      1.0000 0.25978  0.26150  0.25400  Biso   1.000  N
  N15      1.0000 0.24022  0.76150  0.24600  Biso   1.000  N
  N16      1.0000 0.74022  0.26150  0.24600  Biso   1.000  N
  N17      1.0000 0.26482  0.10820  0.79060  Biso   1.000  N
  N18      1.0000 0.76482  0.60820  0.79060  Biso   1.000  N
  N19      1.0000 0.73518  0.10820  0.70940  Biso   1.000  N
  N20      1.0000 0.23518  0.60820  0.70940  Biso   1.000  N
  N21      1.0000 0.73518  0.89180  0.20940  Biso   1.000  N
  N22      1.0000 0.23518  0.39180  0.20940  Biso   1.000  N
  N23      1.0000 0.26482  0.89180  0.29060  Biso   1.000  N
  N24      1.0000 0.76482  0.39180  0.29060  Biso   1.000  N
  N25      1.0000 0.23487  0.06150  0.86540  Biso   1.000  N
  N26      1.0000 0.73487  0.56150  0.86540  Biso   1.000  N
  N27      1.0000 0.76513  0.06150  0.63460  Biso   1.000  N
  N28      1.0000 0.26513  0.56150  0.63460  Biso   1.000  N
  N29      1.0000 0.76513  0.93850  0.13460  Biso   1.000  N
  N30      1.0000 0.26513  0.43850  0.13460  Biso   1.000  N
  N31      1.0000 0.23487  0.93850  0.36540  Biso   1.000  N
  N32      1.0000 0.73487  0.43850  0.36540  Biso   1.000  N
  N33      1.0000 0.93480  0.43740  0.87130  Biso   1.000  N
  N34      1.0000 0.43480  0.93740  0.87130  Biso   1.000  N
  N35      1.0000 0.06520  0.43740  0.62870  Biso   1.000  N
  N36      1.0000 0.56520  0.93740  0.62870  Biso   1.000  N
  N37      1.0000 0.06520  0.56260  0.12870  Biso   1.000  N
  N38      1.0000 0.56520  0.06260  0.12870  Biso   1.000  N
  N39      1.0000 0.93480  0.56260  0.37130  Biso   1.000  N
  N40      1.0000 0.43480  0.06260  0.37130  Biso   1.000  N
