data_image0
_cell_length_a       26.193
_cell_length_b       8.5613
_cell_length_c       8.2997
_cell_angle_alpha    90
_cell_angle_beta     104.008
_cell_angle_gamma    90

_symmetry_space_group_name_H-M    "P 1"
_symmetry_int_tables_number       1

loop_
  _symmetry_equiv_pos_as_xyz
  'x, y, z'

loop_
  _atom_site_label
  _atom_site_occupancy
  _atom_site_fract_x
  _atom_site_fract_y
  _atom_site_fract_z
  _atom_site_thermal_displace_type
  _atom_site_B_iso_or_equiv
  _atom_site_type_symbol
  I1       1.0000 0.07113  0.00000  0.85081  Biso   1.000  I
  I2       1.0000 0.57113  0.50000  0.85081  Biso   1.000  I
  I3       1.0000 0.92887  0.00000  0.14919  Biso   1.000  I
  I4       1.0000 0.42887  0.50000  0.14919  Biso   1.000  I
  I5       1.0000 0.22811  0.00000  0.19166  Biso   1.000  I
  I6       1.0000 0.72811  0.50000  0.19166  Biso   1.000  I
  I7       1.0000 0.77189  0.00000  0.80834  Biso   1.000  I
  I8       1.0000 0.27189  0.50000  0.80834  Biso   1.000  I
  Cu1      1.0000 0.05044  0.30805  0.69711  Biso   1.000  Cu
  Cu2      1.0000 0.55044  0.80805  0.69711  Biso   1.000  Cu
  Cu3      1.0000 0.94956  0.30805  0.30289  Biso   1.000  Cu
  Cu4      1.0000 0.44956  0.80805  0.30289  Biso   1.000  Cu
  Cu5      1.0000 0.94956  0.69195  0.30289  Biso   1.000  Cu
  Cu6      1.0000 0.44956  0.19195  0.30289  Biso   1.000  Cu
  Cu7      1.0000 0.05044  0.69195  0.69711  Biso   1.000  Cu
  Cu8      1.0000 0.55044  0.19195  0.69711  Biso   1.000  Cu
  Cu9      1.0000 0.14303  0.15597  0.09665  Biso   1.000  Cu
  Cu10     1.0000 0.64303  0.65597  0.09665  Biso   1.000  Cu
  Cu11     1.0000 0.85697  0.15597  0.90335  Biso   1.000  Cu
  Cu12     1.0000 0.35697  0.65597  0.90335  Biso   1.000  Cu
  Cu13     1.0000 0.85697  0.84403  0.90335  Biso   1.000  Cu
  Cu14     1.0000 0.35697  0.34403  0.90335  Biso   1.000  Cu
  Cu15     1.0000 0.14303  0.84403  0.09665  Biso   1.000  Cu
  Cu16     1.0000 0.64303  0.34403  0.09665  Biso   1.000  Cu
  Cu17     1.0000 0.00000  0.18311  0.00000  Biso   1.000  Cu
  Cu18     1.0000 0.50000  0.68311  0.00000  Biso   1.000  Cu
  Cu19     1.0000 0.00000  0.81689  0.00000  Biso   1.000  Cu
  Cu20     1.0000 0.50000  0.31689  0.00000  Biso   1.000  Cu
  N1       1.0000 0.14153  0.37200  0.99040  Biso   1.000  N
  N2       1.0000 0.64153  0.87200  0.99040  Biso   1.000  N
  N3       1.0000 0.85847  0.37200  0.00960  Biso   1.000  N
  N4       1.0000 0.35847  0.87200  0.00960  Biso   1.000  N
  N5       1.0000 0.85847  0.62800  0.00960  Biso   1.000  N
  N6       1.0000 0.35847  0.12800  0.00960  Biso   1.000  N
  N7       1.0000 0.14153  0.62800  0.99040  Biso   1.000  N
  N8       1.0000 0.64153  0.12800  0.99040  Biso   1.000  N
  N9       1.0000 0.97302  0.28170  0.66730  Biso   1.000  N
  N10      1.0000 0.47302  0.78170  0.66730  Biso   1.000  N
  N11      1.0000 0.02698  0.28170  0.33270  Biso   1.000  N
  N12      1.0000 0.52698  0.78170  0.33270  Biso   1.000  N
  N13      1.0000 0.02698  0.71830  0.33270  Biso   1.000  N
  N14      1.0000 0.52698  0.21830  0.33270  Biso   1.000  N
  N15      1.0000 0.97302  0.71830  0.66730  Biso   1.000  N
  N16      1.0000 0.47302  0.21830  0.66730  Biso   1.000  N
  N17      1.0000 0.95325  0.23800  0.79040  Biso   1.000  N
  N18      1.0000 0.45325  0.73800  0.79040  Biso   1.000  N
  N19      1.0000 0.04675  0.23800  0.20960  Biso   1.000  N
  N20      1.0000 0.54675  0.73800  0.20960  Biso   1.000  N
  N21      1.0000 0.04675  0.76200  0.20960  Biso   1.000  N
  N22      1.0000 0.54675  0.26200  0.20960  Biso   1.000  N
  N23      1.0000 0.95325  0.76200  0.79040  Biso   1.000  N
  N24      1.0000 0.45325  0.26200  0.79040  Biso   1.000  N
  N25      1.0000 0.10114  0.42290  0.86840  Biso   1.000  N
  N26      1.0000 0.60114  0.92290  0.86840  Biso   1.000  N
  N27      1.0000 0.89886  0.42290  0.13160  Biso   1.000  N
  N28      1.0000 0.39886  0.92290  0.13160  Biso   1.000  N
  N29      1.0000 0.89886  0.57710  0.13160  Biso   1.000  N
  N30      1.0000 0.39886  0.07710  0.13160  Biso   1.000  N
  N31      1.0000 0.10114  0.57710  0.86840  Biso   1.000  N
  N32      1.0000 0.60114  0.07710  0.86840  Biso   1.000  N
  N33      1.0000 0.09853  0.20980  0.26540  Biso   1.000  N
  N34      1.0000 0.59853  0.70980  0.26540  Biso   1.000  N
  N35      1.0000 0.90147  0.20980  0.73460  Biso   1.000  N
  N36      1.0000 0.40147  0.70980  0.73460  Biso   1.000  N
  N37      1.0000 0.90147  0.79020  0.73460  Biso   1.000  N
  N38      1.0000 0.40147  0.29020  0.73460  Biso   1.000  N
  N39      1.0000 0.09853  0.79020  0.26540  Biso   1.000  N
  N40      1.0000 0.59853  0.29020  0.26540  Biso   1.000  N
  C1       1.0000 0.21230  0.50000  0.20590  Biso   1.000  C
  C2       1.0000 0.71230  0.00000  0.20590  Biso   1.000  C
  C3       1.0000 0.78770  0.50000  0.79410  Biso   1.000  C
  C4       1.0000 0.28770  0.00000  0.79410  Biso   1.000  C
  H1       1.0000 0.22550  0.39540  0.22620  Biso   1.000  H
  H2       1.0000 0.72550  0.89540  0.22620  Biso   1.000  H
  H3       1.0000 0.77450  0.39540  0.77380  Biso   1.000  H
  H4       1.0000 0.27450  0.89540  0.77380  Biso   1.000  H
  H5       1.0000 0.77450  0.60460  0.77380  Biso   1.000  H
  H6       1.0000 0.27450  0.10460  0.77380  Biso   1.000  H
  H7       1.0000 0.22550  0.60460  0.22620  Biso   1.000  H
  H8       1.0000 0.72550  0.10460  0.22620  Biso   1.000  H
  H9       1.0000 0.20270  0.53900  0.30300  Biso   1.000  H
  H10      1.0000 0.70270  0.03900  0.30300  Biso   1.000  H
  H11      1.0000 0.79730  0.53900  0.69700  Biso   1.000  H
  H12      1.0000 0.29730  0.03900  0.69700  Biso   1.000  H
  H13      1.0000 0.79730  0.46100  0.69700  Biso   1.000  H
  H14      1.0000 0.29730  0.96100  0.69700  Biso   1.000  H
  H15      1.0000 0.20270  0.46100  0.30300  Biso   1.000  H
  H16      1.0000 0.70270  0.96100  0.30300  Biso   1.000  H
  H17      1.0000 0.23910  0.56560  0.18060  Biso   1.000  H
  H18      1.0000 0.73910  0.06560  0.18060  Biso   1.000  H
  H19      1.0000 0.76090  0.56560  0.81940  Biso   1.000  H
  H20      1.0000 0.26090  0.06560  0.81940  Biso   1.000  H
  H21      1.0000 0.76090  0.43440  0.81940  Biso   1.000  H
  H22      1.0000 0.26090  0.93440  0.81940  Biso   1.000  H
  H23      1.0000 0.23910  0.43440  0.18060  Biso   1.000  H
  H24      1.0000 0.73910  0.93440  0.18060  Biso   1.000  H
  C5       1.0000 0.16540  0.50000  0.06370  Biso   1.000  C
  C6       1.0000 0.66540  0.00000  0.06370  Biso   1.000  C
  C7       1.0000 0.83460  0.50000  0.93630  Biso   1.000  C
  C8       1.0000 0.33460  0.00000  0.93630  Biso   1.000  C
  N41      1.0000 0.93457  0.28290  0.52770  Biso   1.000  N
  N42      1.0000 0.43457  0.78290  0.52770  Biso   1.000  N
  N43      1.0000 0.06543  0.28290  0.47230  Biso   1.000  N
  N44      1.0000 0.56543  0.78290  0.47230  Biso   1.000  N
  N45      1.0000 0.06543  0.71710  0.47230  Biso   1.000  N
  N46      1.0000 0.56543  0.21710  0.47230  Biso   1.000  N
  N47      1.0000 0.93457  0.71710  0.52770  Biso   1.000  N
  N48      1.0000 0.43457  0.21710  0.52770  Biso   1.000  N
  C9       1.0000 0.10920  0.23890  0.42830  Biso   1.000  C
  C10      1.0000 0.60920  0.73890  0.42830  Biso   1.000  C
  C11      1.0000 0.89080  0.23890  0.57170  Biso   1.000  C
  C12      1.0000 0.39080  0.73890  0.57170  Biso   1.000  C
  C13      1.0000 0.89080  0.76110  0.57170  Biso   1.000  C
  C14      1.0000 0.39080  0.26110  0.57170  Biso   1.000  C
  C15      1.0000 0.10920  0.76110  0.42830  Biso   1.000  C
  C16      1.0000 0.60920  0.26110  0.42830  Biso   1.000  C
  C17      1.0000 0.16190  0.22450  0.54450  Biso   1.000  C
  C18      1.0000 0.66190  0.72450  0.54450  Biso   1.000  C
  C19      1.0000 0.83810  0.22450  0.45550  Biso   1.000  C
  C20      1.0000 0.33810  0.72450  0.45550  Biso   1.000  C
  C21      1.0000 0.83810  0.77550  0.45550  Biso   1.000  C
  C22      1.0000 0.33810  0.27550  0.45550  Biso   1.000  C
  C23      1.0000 0.16190  0.77550  0.54450  Biso   1.000  C
  C24      1.0000 0.66190  0.27550  0.54450  Biso   1.000  C
  H25      1.0000 0.15860  0.17140  0.64340  Biso   1.000  H
  H26      1.0000 0.65860  0.67140  0.64340  Biso   1.000  H
  H27      1.0000 0.84140  0.17140  0.35660  Biso   1.000  H
  H28      1.0000 0.34140  0.67140  0.35660  Biso   1.000  H
  H29      1.0000 0.84140  0.82860  0.35660  Biso   1.000  H
  H30      1.0000 0.34140  0.32860  0.35660  Biso   1.000  H
  H31      1.0000 0.15860  0.82860  0.64340  Biso   1.000  H
  H32      1.0000 0.65860  0.32860  0.64340  Biso   1.000  H
  H33      1.0000 0.17630  0.32670  0.57290  Biso   1.000  H
  H34      1.0000 0.67630  0.82670  0.57290  Biso   1.000  H
  H35      1.0000 0.82370  0.32670  0.42710  Biso   1.000  H
  H36      1.0000 0.32370  0.82670  0.42710  Biso   1.000  H
  H37      1.0000 0.82370  0.67330  0.42710  Biso   1.000  H
  H38      1.0000 0.32370  0.17330  0.42710  Biso   1.000  H
  H39      1.0000 0.17630  0.67330  0.57290  Biso   1.000  H
  H40      1.0000 0.67630  0.17330  0.57290  Biso   1.000  H
  H41      1.0000 0.18480  0.16610  0.49230  Biso   1.000  H
  H42      1.0000 0.68480  0.66610  0.49230  Biso   1.000  H
  H43      1.0000 0.81520  0.16610  0.50770  Biso   1.000  H
  H44      1.0000 0.31520  0.66610  0.50770  Biso   1.000  H
  H45      1.0000 0.81520  0.83390  0.50770  Biso   1.000  H
  H46      1.0000 0.31520  0.33390  0.50770  Biso   1.000  H
  H47      1.0000 0.18480  0.83390  0.49230  Biso   1.000  H
  H48      1.0000 0.68480  0.33390  0.49230  Biso   1.000  H
