data_image0
_cell_length_a       23.31
_cell_length_b       13.671
_cell_length_c       18.031
_cell_angle_alpha    90
_cell_angle_beta     108.367
_cell_angle_gamma    90

_symmetry_space_group_name_H-M    "P 1"
_symmetry_int_tables_number       1

loop_
  _symmetry_equiv_pos_as_xyz
  'x, y, z'

loop_
  _atom_site_label
  _atom_site_occupancy
  _atom_site_fract_x
  _atom_site_fract_y
  _atom_site_fract_z
  _atom_site_thermal_displace_type
  _atom_site_B_iso_or_equiv
  _atom_site_type_symbol
  C1       1.0000 0.15049  0.42440  0.98374  Biso   1.000  C
  C2       1.0000 0.65049  0.92440  0.98374  Biso   1.000  C
  C3       1.0000 0.84951  0.42440  0.51626  Biso   1.000  C
  C4       1.0000 0.34951  0.92440  0.51626  Biso   1.000  C
  C5       1.0000 0.84951  0.57560  0.01626  Biso   1.000  C
  C6       1.0000 0.34951  0.07560  0.01626  Biso   1.000  C
  C7       1.0000 0.15049  0.57560  0.48374  Biso   1.000  C
  C8       1.0000 0.65049  0.07560  0.48374  Biso   1.000  C
  H1       1.0000 0.16530  0.46370  0.95040  Biso   1.000  H
  H2       1.0000 0.66530  0.96370  0.95040  Biso   1.000  H
  H3       1.0000 0.83470  0.46370  0.54960  Biso   1.000  H
  H4       1.0000 0.33470  0.96370  0.54960  Biso   1.000  H
  H5       1.0000 0.83470  0.53630  0.04960  Biso   1.000  H
  H6       1.0000 0.33470  0.03630  0.04960  Biso   1.000  H
  H7       1.0000 0.16530  0.53630  0.45040  Biso   1.000  H
  H8       1.0000 0.66530  0.03630  0.45040  Biso   1.000  H
  C9       1.0000 0.07780  0.39358  0.04911  Biso   1.000  C
  C10      1.0000 0.57780  0.89358  0.04911  Biso   1.000  C
  C11      1.0000 0.92220  0.39358  0.45089  Biso   1.000  C
  C12      1.0000 0.42220  0.89358  0.45089  Biso   1.000  C
  C13      1.0000 0.92220  0.60642  0.95089  Biso   1.000  C
  C14      1.0000 0.42220  0.10642  0.95089  Biso   1.000  C
  C15      1.0000 0.07780  0.60642  0.54911  Biso   1.000  C
  C16      1.0000 0.57780  0.10642  0.54911  Biso   1.000  C
  H9       1.0000 0.04140  0.41130  0.05880  Biso   1.000  H
  H10      1.0000 0.54140  0.91130  0.05880  Biso   1.000  H
  H11      1.0000 0.95860  0.41130  0.44120  Biso   1.000  H
  H12      1.0000 0.45860  0.91130  0.44120  Biso   1.000  H
  H13      1.0000 0.95860  0.58870  0.94120  Biso   1.000  H
  H14      1.0000 0.45860  0.08870  0.94120  Biso   1.000  H
  H15      1.0000 0.04140  0.58870  0.55880  Biso   1.000  H
  H16      1.0000 0.54140  0.08870  0.55880  Biso   1.000  H
  C17      1.0000 0.34745  0.07370  0.30739  Biso   1.000  C
  C18      1.0000 0.84745  0.57370  0.30739  Biso   1.000  C
  C19      1.0000 0.65255  0.07370  0.19261  Biso   1.000  C
  C20      1.0000 0.15255  0.57370  0.19261  Biso   1.000  C
  C21      1.0000 0.65255  0.92630  0.69261  Biso   1.000  C
  C22      1.0000 0.15255  0.42630  0.69261  Biso   1.000  C
  C23      1.0000 0.34745  0.92630  0.80739  Biso   1.000  C
  C24      1.0000 0.84745  0.42630  0.80739  Biso   1.000  C
  H17      1.0000 0.34440  0.12740  0.33940  Biso   1.000  H
  H18      1.0000 0.84440  0.62740  0.33940  Biso   1.000  H
  H19      1.0000 0.65560  0.12740  0.16060  Biso   1.000  H
  H20      1.0000 0.15560  0.62740  0.16060  Biso   1.000  H
  H21      1.0000 0.65560  0.87260  0.66060  Biso   1.000  H
  H22      1.0000 0.15560  0.37260  0.66060  Biso   1.000  H
  H23      1.0000 0.34440  0.87260  0.83940  Biso   1.000  H
  H24      1.0000 0.84440  0.37260  0.83940  Biso   1.000  H
  C25      1.0000 0.01813  0.16460  0.61048  Biso   1.000  C
  C26      1.0000 0.51813  0.66460  0.61048  Biso   1.000  C
  C27      1.0000 0.98187  0.16460  0.88952  Biso   1.000  C
  C28      1.0000 0.48187  0.66460  0.88952  Biso   1.000  C
  C29      1.0000 0.98187  0.83540  0.38952  Biso   1.000  C
  C30      1.0000 0.48187  0.33540  0.38952  Biso   1.000  C
  C31      1.0000 0.01813  0.83540  0.11048  Biso   1.000  C
  C32      1.0000 0.51813  0.33540  0.11048  Biso   1.000  C
  H25      1.0000 0.02700  0.18900  0.56300  Biso   1.000  H
  H26      1.0000 0.52700  0.68900  0.56300  Biso   1.000  H
  H27      1.0000 0.97300  0.18900  0.93700  Biso   1.000  H
  H28      1.0000 0.47300  0.68900  0.93700  Biso   1.000  H
  H29      1.0000 0.97300  0.81100  0.43700  Biso   1.000  H
  H30      1.0000 0.47300  0.31100  0.43700  Biso   1.000  H
  H31      1.0000 0.02700  0.81100  0.06300  Biso   1.000  H
  H32      1.0000 0.52700  0.31100  0.06300  Biso   1.000  H
  C33      1.0000 0.23047  0.83195  0.11080  Biso   1.000  C
  C34      1.0000 0.73047  0.33195  0.11080  Biso   1.000  C
  C35      1.0000 0.76953  0.83195  0.38920  Biso   1.000  C
  C36      1.0000 0.26953  0.33195  0.38920  Biso   1.000  C
  C37      1.0000 0.76953  0.16805  0.88920  Biso   1.000  C
  C38      1.0000 0.26953  0.66805  0.88920  Biso   1.000  C
  C39      1.0000 0.23047  0.16805  0.61080  Biso   1.000  C
  C40      1.0000 0.73047  0.66805  0.61080  Biso   1.000  C
  H33      1.0000 0.26470  0.80450  0.09620  Biso   1.000  H
  H34      1.0000 0.76470  0.30450  0.09620  Biso   1.000  H
  H35      1.0000 0.73530  0.80450  0.40380  Biso   1.000  H
  H36      1.0000 0.23530  0.30450  0.40380  Biso   1.000  H
  H37      1.0000 0.73530  0.19550  0.90380  Biso   1.000  H
  H38      1.0000 0.23530  0.69550  0.90380  Biso   1.000  H
  H39      1.0000 0.26470  0.19550  0.59620  Biso   1.000  H
  H40      1.0000 0.76470  0.69550  0.59620  Biso   1.000  H
  H41      1.0000 0.19510  0.78870  0.08880  Biso   1.000  H
  H42      1.0000 0.69510  0.28870  0.08880  Biso   1.000  H
  H43      1.0000 0.80490  0.78870  0.41120  Biso   1.000  H
  H44      1.0000 0.30490  0.28870  0.41120  Biso   1.000  H
  H45      1.0000 0.80490  0.21130  0.91120  Biso   1.000  H
  H46      1.0000 0.30490  0.71130  0.91120  Biso   1.000  H
  H47      1.0000 0.19510  0.21130  0.58880  Biso   1.000  H
  H48      1.0000 0.69510  0.71130  0.58880  Biso   1.000  H
  C41      1.0000 0.30245  0.00201  0.28839  Biso   1.000  C
  C42      1.0000 0.80245  0.50201  0.28839  Biso   1.000  C
  C43      1.0000 0.69755  0.00201  0.21161  Biso   1.000  C
  C44      1.0000 0.19755  0.50201  0.21161  Biso   1.000  C
  C45      1.0000 0.69755  0.99799  0.71161  Biso   1.000  C
  C46      1.0000 0.19755  0.49799  0.71161  Biso   1.000  C
  C47      1.0000 0.30245  0.99799  0.78839  Biso   1.000  C
  C48      1.0000 0.80245  0.49799  0.78839  Biso   1.000  C
  C49      1.0000 0.25077  0.00622  0.31887  Biso   1.000  C
  C50      1.0000 0.75077  0.50622  0.31887  Biso   1.000  C
  C51      1.0000 0.74923  0.00622  0.18113  Biso   1.000  C
  C52      1.0000 0.24923  0.50622  0.18113  Biso   1.000  C
  C53      1.0000 0.74923  0.99378  0.68113  Biso   1.000  C
  C54      1.0000 0.24923  0.49378  0.68113  Biso   1.000  C
  C55      1.0000 0.25077  0.99378  0.81887  Biso   1.000  C
  C56      1.0000 0.75077  0.49378  0.81887  Biso   1.000  C
  H49      1.0000 0.24540  0.95330  0.35020  Biso   1.000  H
  H50      1.0000 0.74540  0.45330  0.35020  Biso   1.000  H
  H51      1.0000 0.75460  0.95330  0.14980  Biso   1.000  H
  H52      1.0000 0.25460  0.45330  0.14980  Biso   1.000  H
  H53      1.0000 0.75460  0.04670  0.64980  Biso   1.000  H
  H54      1.0000 0.25460  0.54670  0.64980  Biso   1.000  H
  H55      1.0000 0.24540  0.04670  0.85020  Biso   1.000  H
  H56      1.0000 0.74540  0.54670  0.85020  Biso   1.000  H
  C57      1.0000 0.21571  0.93316  0.07490  Biso   1.000  C
  C58      1.0000 0.71571  0.43316  0.07490  Biso   1.000  C
  C59      1.0000 0.78429  0.93316  0.42510  Biso   1.000  C
  C60      1.0000 0.28429  0.43316  0.42510  Biso   1.000  C
  C61      1.0000 0.78429  0.06684  0.92510  Biso   1.000  C
  C62      1.0000 0.28429  0.56684  0.92510  Biso   1.000  C
  C63      1.0000 0.21571  0.06684  0.57490  Biso   1.000  C
  C64      1.0000 0.71571  0.56684  0.57490  Biso   1.000  C
  H57      1.0000 0.20860  0.92820  0.01790  Biso   1.000  H
  H58      1.0000 0.70860  0.42820  0.01790  Biso   1.000  H
  H59      1.0000 0.79140  0.92820  0.48210  Biso   1.000  H
  H60      1.0000 0.29140  0.42820  0.48210  Biso   1.000  H
  H61      1.0000 0.79140  0.07180  0.98210  Biso   1.000  H
  H62      1.0000 0.29140  0.57180  0.98210  Biso   1.000  H
  H63      1.0000 0.20860  0.07180  0.51790  Biso   1.000  H
  H64      1.0000 0.70860  0.57180  0.51790  Biso   1.000  H
  H65      1.0000 0.25120  0.97610  0.09690  Biso   1.000  H
  H66      1.0000 0.75120  0.47610  0.09690  Biso   1.000  H
  H67      1.0000 0.74880  0.97610  0.40310  Biso   1.000  H
  H68      1.0000 0.24880  0.47610  0.40310  Biso   1.000  H
  H69      1.0000 0.74880  0.02390  0.90310  Biso   1.000  H
  H70      1.0000 0.24880  0.52390  0.90310  Biso   1.000  H
  H71      1.0000 0.25120  0.02390  0.59690  Biso   1.000  H
  H72      1.0000 0.75120  0.52390  0.59690  Biso   1.000  H
  C65      1.0000 0.35715  0.91785  0.21371  Biso   1.000  C
  C66      1.0000 0.85715  0.41785  0.21371  Biso   1.000  C
  C67      1.0000 0.64285  0.91785  0.28629  Biso   1.000  C
  C68      1.0000 0.14285  0.41785  0.28629  Biso   1.000  C
  C69      1.0000 0.64285  0.08215  0.78629  Biso   1.000  C
  C70      1.0000 0.14285  0.58215  0.78629  Biso   1.000  C
  C71      1.0000 0.35715  0.08215  0.71371  Biso   1.000  C
  C72      1.0000 0.85715  0.58215  0.71371  Biso   1.000  C
  H73      1.0000 0.36030  0.86480  0.18120  Biso   1.000  H
  H74      1.0000 0.86030  0.36480  0.18120  Biso   1.000  H
  H75      1.0000 0.63970  0.86480  0.31880  Biso   1.000  H
  H76      1.0000 0.13970  0.36480  0.31880  Biso   1.000  H
  H77      1.0000 0.63970  0.13520  0.81880  Biso   1.000  H
  H78      1.0000 0.13970  0.63520  0.81880  Biso   1.000  H
  H79      1.0000 0.36030  0.13520  0.68120  Biso   1.000  H
  H80      1.0000 0.86030  0.63520  0.68120  Biso   1.000  H
  C73      1.0000 0.16361  0.06940  0.34106  Biso   1.000  C
  C74      1.0000 0.66361  0.56940  0.34106  Biso   1.000  C
  C75      1.0000 0.83639  0.06940  0.15894  Biso   1.000  C
  C76      1.0000 0.33639  0.56940  0.15894  Biso   1.000  C
  C77      1.0000 0.83639  0.93060  0.65894  Biso   1.000  C
  C78      1.0000 0.33639  0.43060  0.65894  Biso   1.000  C
  C79      1.0000 0.16361  0.93060  0.84106  Biso   1.000  C
  C80      1.0000 0.66361  0.43060  0.84106  Biso   1.000  C
  H81      1.0000 0.16650  0.12560  0.37670  Biso   1.000  H
  H82      1.0000 0.66650  0.62560  0.37670  Biso   1.000  H
  H83      1.0000 0.83350  0.12560  0.12330  Biso   1.000  H
  H84      1.0000 0.33350  0.62560  0.12330  Biso   1.000  H
  H85      1.0000 0.83350  0.87440  0.62330  Biso   1.000  H
  H86      1.0000 0.33350  0.37440  0.62330  Biso   1.000  H
  H87      1.0000 0.16650  0.87440  0.87670  Biso   1.000  H
  H88      1.0000 0.66650  0.37440  0.87670  Biso   1.000  H
  H89      1.0000 0.16880  0.00880  0.37260  Biso   1.000  H
  H90      1.0000 0.66880  0.50880  0.37260  Biso   1.000  H
  H91      1.0000 0.83120  0.00880  0.12740  Biso   1.000  H
  H92      1.0000 0.33120  0.50880  0.12740  Biso   1.000  H
  H93      1.0000 0.83120  0.99120  0.62740  Biso   1.000  H
  H94      1.0000 0.33120  0.49120  0.62740  Biso   1.000  H
  H95      1.0000 0.16880  0.99120  0.87260  Biso   1.000  H
  H96      1.0000 0.66880  0.49120  0.87260  Biso   1.000  H
  C81      1.0000 0.18115  0.33993  0.01640  Biso   1.000  C
  C82      1.0000 0.68115  0.83993  0.01640  Biso   1.000  C
  C83      1.0000 0.81885  0.33993  0.48360  Biso   1.000  C
  C84      1.0000 0.31885  0.83993  0.48360  Biso   1.000  C
  C85      1.0000 0.81885  0.66007  0.98360  Biso   1.000  C
  C86      1.0000 0.31885  0.16007  0.98360  Biso   1.000  C
  C87      1.0000 0.18115  0.66007  0.51640  Biso   1.000  C
  C88      1.0000 0.68115  0.16007  0.51640  Biso   1.000  C
  H97      1.0000 0.21620  0.32080  0.00380  Biso   1.000  H
  H98      1.0000 0.71620  0.82080  0.00380  Biso   1.000  H
  H99      1.0000 0.78380  0.32080  0.49620  Biso   1.000  H
  H100     1.0000 0.28380  0.82080  0.49620  Biso   1.000  H
  H101     1.0000 0.78380  0.67920  0.99620  Biso   1.000  H
  H102     1.0000 0.28380  0.17920  0.99620  Biso   1.000  H
  H103     1.0000 0.21620  0.67920  0.50380  Biso   1.000  H
  H104     1.0000 0.71620  0.17920  0.50380  Biso   1.000  H
  C89      1.0000 0.40106  0.98970  0.23262  Biso   1.000  C
  C90      1.0000 0.90106  0.48970  0.23262  Biso   1.000  C
  C91      1.0000 0.59894  0.98970  0.26738  Biso   1.000  C
  C92      1.0000 0.09894  0.48970  0.26738  Biso   1.000  C
  C93      1.0000 0.59894  0.01030  0.76738  Biso   1.000  C
  C94      1.0000 0.09894  0.51030  0.76738  Biso   1.000  C
  C95      1.0000 0.40106  0.01030  0.73262  Biso   1.000  C
  C96      1.0000 0.90106  0.51030  0.73262  Biso   1.000  C
  H105     1.0000 0.43440  0.98600  0.21320  Biso   1.000  H
  H106     1.0000 0.93440  0.48600  0.21320  Biso   1.000  H
  H107     1.0000 0.56560  0.98600  0.28680  Biso   1.000  H
  H108     1.0000 0.06560  0.48600  0.28680  Biso   1.000  H
  H109     1.0000 0.56560  0.01400  0.78680  Biso   1.000  H
  H110     1.0000 0.06560  0.51400  0.78680  Biso   1.000  H
  H111     1.0000 0.43440  0.01400  0.71320  Biso   1.000  H
  H112     1.0000 0.93440  0.51400  0.71320  Biso   1.000  H
  C97      1.0000 0.07717  0.16741  0.24568  Biso   1.000  C
  C98      1.0000 0.57717  0.66741  0.24568  Biso   1.000  C
  C99      1.0000 0.92283  0.16741  0.25432  Biso   1.000  C
  C100     1.0000 0.42283  0.66741  0.25432  Biso   1.000  C
  C101     1.0000 0.92283  0.83259  0.75432  Biso   1.000  C
  C102     1.0000 0.42283  0.33259  0.75432  Biso   1.000  C
  C103     1.0000 0.07717  0.83259  0.74568  Biso   1.000  C
  C104     1.0000 0.57717  0.33259  0.74568  Biso   1.000  C
  H113     1.0000 0.03440  0.16030  0.21310  Biso   1.000  H
  H114     1.0000 0.53440  0.66030  0.21310  Biso   1.000  H
  H115     1.0000 0.96560  0.16030  0.28690  Biso   1.000  H
  H116     1.0000 0.46560  0.66030  0.28690  Biso   1.000  H
  H117     1.0000 0.96560  0.83970  0.78690  Biso   1.000  H
  H118     1.0000 0.46560  0.33970  0.78690  Biso   1.000  H
  H119     1.0000 0.03440  0.83970  0.71310  Biso   1.000  H
  H120     1.0000 0.53440  0.33970  0.71310  Biso   1.000  H
  H121     1.0000 0.07870  0.21330  0.28870  Biso   1.000  H
  H122     1.0000 0.57870  0.71330  0.28870  Biso   1.000  H
  H123     1.0000 0.92130  0.21330  0.21130  Biso   1.000  H
  H124     1.0000 0.42130  0.71330  0.21130  Biso   1.000  H
  H125     1.0000 0.92130  0.78670  0.71130  Biso   1.000  H
  H126     1.0000 0.42130  0.28670  0.71130  Biso   1.000  H
  H127     1.0000 0.07870  0.78670  0.78870  Biso   1.000  H
  H128     1.0000 0.57870  0.28670  0.78870  Biso   1.000  H
  C105     1.0000 0.16085  0.98078  0.08842  Biso   1.000  C
  C106     1.0000 0.66085  0.48078  0.08842  Biso   1.000  C
  C107     1.0000 0.83915  0.98078  0.41158  Biso   1.000  C
  C108     1.0000 0.33915  0.48078  0.41158  Biso   1.000  C
  C109     1.0000 0.83915  0.01922  0.91158  Biso   1.000  C
  C110     1.0000 0.33915  0.51922  0.91158  Biso   1.000  C
  C111     1.0000 0.16085  0.01922  0.58842  Biso   1.000  C
  C112     1.0000 0.66085  0.51922  0.58842  Biso   1.000  C
  H129     1.0000 0.12520  0.93840  0.06540  Biso   1.000  H
  H130     1.0000 0.62520  0.43840  0.06540  Biso   1.000  H
  H131     1.0000 0.87480  0.93840  0.43460  Biso   1.000  H
  H132     1.0000 0.37480  0.43840  0.43460  Biso   1.000  H
  H133     1.0000 0.87480  0.06160  0.93460  Biso   1.000  H
  H134     1.0000 0.37480  0.56160  0.93460  Biso   1.000  H
  H135     1.0000 0.12520  0.06160  0.56540  Biso   1.000  H
  H136     1.0000 0.62520  0.56160  0.56540  Biso   1.000  H
  H137     1.0000 0.16760  0.98410  0.14540  Biso   1.000  H
  H138     1.0000 0.66760  0.48410  0.14540  Biso   1.000  H
  H139     1.0000 0.83240  0.98410  0.35460  Biso   1.000  H
  H140     1.0000 0.33240  0.48410  0.35460  Biso   1.000  H
  H141     1.0000 0.83240  0.01590  0.85460  Biso   1.000  H
  H142     1.0000 0.33240  0.51590  0.85460  Biso   1.000  H
  H143     1.0000 0.16760  0.01590  0.64540  Biso   1.000  H
  H144     1.0000 0.66760  0.51590  0.64540  Biso   1.000  H
  C113     1.0000 0.08250  0.25855  0.13829  Biso   1.000  C
  C114     1.0000 0.58250  0.75855  0.13829  Biso   1.000  C
  C115     1.0000 0.91750  0.25855  0.36171  Biso   1.000  C
  C116     1.0000 0.41750  0.75855  0.36171  Biso   1.000  C
  C117     1.0000 0.91750  0.74145  0.86171  Biso   1.000  C
  C118     1.0000 0.41750  0.24145  0.86171  Biso   1.000  C
  C119     1.0000 0.08250  0.74145  0.63829  Biso   1.000  C
  C120     1.0000 0.58250  0.24145  0.63829  Biso   1.000  C
  H145     1.0000 0.04000  0.26270  0.12740  Biso   1.000  H
  H146     1.0000 0.54000  0.76270  0.12740  Biso   1.000  H
  H147     1.0000 0.96000  0.26270  0.37260  Biso   1.000  H
  H148     1.0000 0.46000  0.76270  0.37260  Biso   1.000  H
  H149     1.0000 0.96000  0.73730  0.87260  Biso   1.000  H
  H150     1.0000 0.46000  0.23730  0.87260  Biso   1.000  H
  H151     1.0000 0.04000  0.73730  0.62740  Biso   1.000  H
  H152     1.0000 0.54000  0.23730  0.62740  Biso   1.000  H
  C121     1.0000 0.30828  0.92324  0.24226  Biso   1.000  C
  C122     1.0000 0.80828  0.42324  0.24226  Biso   1.000  C
  C123     1.0000 0.69172  0.92324  0.25774  Biso   1.000  C
  C124     1.0000 0.19172  0.42324  0.25774  Biso   1.000  C
  C125     1.0000 0.69172  0.07676  0.75774  Biso   1.000  C
  C126     1.0000 0.19172  0.57676  0.75774  Biso   1.000  C
  C127     1.0000 0.30828  0.07676  0.74226  Biso   1.000  C
  C128     1.0000 0.80828  0.57676  0.74226  Biso   1.000  C
  C129     1.0000 0.14640  0.08294  0.05444  Biso   1.000  C
  C130     1.0000 0.64640  0.58294  0.05444  Biso   1.000  C
  C131     1.0000 0.85360  0.08294  0.44556  Biso   1.000  C
  C132     1.0000 0.35360  0.58294  0.44556  Biso   1.000  C
  C133     1.0000 0.85360  0.91706  0.94556  Biso   1.000  C
  C134     1.0000 0.35360  0.41706  0.94556  Biso   1.000  C
  C135     1.0000 0.14640  0.91706  0.55444  Biso   1.000  C
  C136     1.0000 0.64640  0.41706  0.55444  Biso   1.000  C
  H153     1.0000 0.10660  0.10330  0.05800  Biso   1.000  H
  H154     1.0000 0.60660  0.60330  0.05800  Biso   1.000  H
  H155     1.0000 0.89340  0.10330  0.44200  Biso   1.000  H
  H156     1.0000 0.39340  0.60330  0.44200  Biso   1.000  H
  H157     1.0000 0.89340  0.89670  0.94200  Biso   1.000  H
  H158     1.0000 0.39340  0.39670  0.94200  Biso   1.000  H
  H159     1.0000 0.10660  0.89670  0.55800  Biso   1.000  H
  H160     1.0000 0.60660  0.39670  0.55800  Biso   1.000  H
  H161     1.0000 0.14340  0.08130  0.99840  Biso   1.000  H
  H162     1.0000 0.64340  0.58130  0.99840  Biso   1.000  H
  H163     1.0000 0.85660  0.08130  0.50160  Biso   1.000  H
  H164     1.0000 0.35660  0.58130  0.50160  Biso   1.000  H
  H165     1.0000 0.85660  0.91870  0.00160  Biso   1.000  H
  H166     1.0000 0.35660  0.41870  0.00160  Biso   1.000  H
  H167     1.0000 0.14340  0.91870  0.49840  Biso   1.000  H
  H168     1.0000 0.64340  0.41870  0.49840  Biso   1.000  H
  C137     1.0000 0.16134  0.28295  0.06727  Biso   1.000  C
  C138     1.0000 0.66134  0.78295  0.06727  Biso   1.000  C
  C139     1.0000 0.83866  0.28295  0.43273  Biso   1.000  C
  C140     1.0000 0.33866  0.78295  0.43273  Biso   1.000  C
  C141     1.0000 0.83866  0.71705  0.93273  Biso   1.000  C
  C142     1.0000 0.33866  0.21705  0.93273  Biso   1.000  C
  C143     1.0000 0.16134  0.71705  0.56727  Biso   1.000  C
  C144     1.0000 0.66134  0.21705  0.56727  Biso   1.000  C
  C145     1.0000 0.10888  0.31031  0.08499  Biso   1.000  C
  C146     1.0000 0.60888  0.81031  0.08499  Biso   1.000  C
  C147     1.0000 0.89112  0.31031  0.41501  Biso   1.000  C
  C148     1.0000 0.39112  0.81031  0.41501  Biso   1.000  C
  C149     1.0000 0.89112  0.68969  0.91501  Biso   1.000  C
  C150     1.0000 0.39112  0.18969  0.91501  Biso   1.000  C
  C151     1.0000 0.10888  0.68969  0.58499  Biso   1.000  C
  C152     1.0000 0.60888  0.18969  0.58499  Biso   1.000  C
  C153     1.0000 0.39636  0.06700  0.27996  Biso   1.000  C
  C154     1.0000 0.89636  0.56700  0.27996  Biso   1.000  C
  C155     1.0000 0.60364  0.06700  0.22004  Biso   1.000  C
  C156     1.0000 0.10364  0.56700  0.22004  Biso   1.000  C
  C157     1.0000 0.60364  0.93300  0.72004  Biso   1.000  C
  C158     1.0000 0.10364  0.43300  0.72004  Biso   1.000  C
  C159     1.0000 0.39636  0.93300  0.77996  Biso   1.000  C
  C160     1.0000 0.89636  0.43300  0.77996  Biso   1.000  C
  H169     1.0000 0.42700  0.11570  0.29370  Biso   1.000  H
  H170     1.0000 0.92700  0.61570  0.29370  Biso   1.000  H
  H171     1.0000 0.57300  0.11570  0.20630  Biso   1.000  H
  H172     1.0000 0.07300  0.61570  0.20630  Biso   1.000  H
  H173     1.0000 0.57300  0.88430  0.70630  Biso   1.000  H
  H174     1.0000 0.07300  0.38430  0.70630  Biso   1.000  H
  H175     1.0000 0.42700  0.88430  0.79370  Biso   1.000  H
  H176     1.0000 0.92700  0.38430  0.79370  Biso   1.000  H
  C161     1.0000 0.09869  0.45130  0.99954  Biso   1.000  C
  C162     1.0000 0.59869  0.95130  0.99954  Biso   1.000  C
  C163     1.0000 0.90131  0.45130  0.50046  Biso   1.000  C
  C164     1.0000 0.40131  0.95130  0.50046  Biso   1.000  C
  C165     1.0000 0.90131  0.54870  0.00046  Biso   1.000  C
  C166     1.0000 0.40131  0.04870  0.00046  Biso   1.000  C
  C167     1.0000 0.09869  0.54870  0.49954  Biso   1.000  C
  C168     1.0000 0.59869  0.04870  0.49954  Biso   1.000  C
  H177     1.0000 0.07740  0.50870  0.97680  Biso   1.000  H
  H178     1.0000 0.57740  0.00870  0.97680  Biso   1.000  H
  H179     1.0000 0.92260  0.50870  0.52320  Biso   1.000  H
  H180     1.0000 0.42260  0.00870  0.52320  Biso   1.000  H
  H181     1.0000 0.92260  0.49130  0.02320  Biso   1.000  H
  H182     1.0000 0.42260  0.99130  0.02320  Biso   1.000  H
  H183     1.0000 0.07740  0.49130  0.47680  Biso   1.000  H
  H184     1.0000 0.57740  0.99130  0.47680  Biso   1.000  H
  C169     1.0000 0.10111  0.06872  0.27997  Biso   1.000  C
  C170     1.0000 0.60111  0.56872  0.27997  Biso   1.000  C
  C171     1.0000 0.89889  0.06872  0.22003  Biso   1.000  C
  C172     1.0000 0.39889  0.56872  0.22003  Biso   1.000  C
  C173     1.0000 0.89889  0.93128  0.72003  Biso   1.000  C
  C174     1.0000 0.39889  0.43128  0.72003  Biso   1.000  C
  C175     1.0000 0.10111  0.93128  0.77997  Biso   1.000  C
  C176     1.0000 0.60111  0.43128  0.77997  Biso   1.000  C
  H185     1.0000 0.10230  0.02500  0.23670  Biso   1.000  H
  H186     1.0000 0.60230  0.52500  0.23670  Biso   1.000  H
  H187     1.0000 0.89770  0.02500  0.26330  Biso   1.000  H
  H188     1.0000 0.39770  0.52500  0.26330  Biso   1.000  H
  H189     1.0000 0.89770  0.97500  0.76330  Biso   1.000  H
  H190     1.0000 0.39770  0.47500  0.76330  Biso   1.000  H
  H191     1.0000 0.10230  0.97500  0.73670  Biso   1.000  H
  H192     1.0000 0.60230  0.47500  0.73670  Biso   1.000  H
  H193     1.0000 0.07210  0.04020  0.30400  Biso   1.000  H
  H194     1.0000 0.57210  0.54020  0.30400  Biso   1.000  H
  H195     1.0000 0.92790  0.04020  0.19600  Biso   1.000  H
  H196     1.0000 0.42790  0.54020  0.19600  Biso   1.000  H
  H197     1.0000 0.92790  0.95980  0.69600  Biso   1.000  H
  H198     1.0000 0.42790  0.45980  0.69600  Biso   1.000  H
  H199     1.0000 0.07210  0.95980  0.80400  Biso   1.000  H
  H200     1.0000 0.57210  0.45980  0.80400  Biso   1.000  H
  N1       1.0000 0.11197  0.20882  0.19760  Biso   1.000  N
  N2       1.0000 0.61197  0.70882  0.19760  Biso   1.000  N
  N3       1.0000 0.88803  0.20882  0.30240  Biso   1.000  N
  N4       1.0000 0.38803  0.70882  0.30240  Biso   1.000  N
  N5       1.0000 0.88803  0.79118  0.80240  Biso   1.000  N
  N6       1.0000 0.38803  0.29118  0.80240  Biso   1.000  N
  N7       1.0000 0.11197  0.79118  0.69760  Biso   1.000  N
  N8       1.0000 0.61197  0.29118  0.69760  Biso   1.000  N
  N9       1.0000 0.21301  0.07618  0.30591  Biso   1.000  N
  N10      1.0000 0.71301  0.57618  0.30591  Biso   1.000  N
  N11      1.0000 0.78699  0.07618  0.19409  Biso   1.000  N
  N12      1.0000 0.28699  0.57618  0.19409  Biso   1.000  N
  N13      1.0000 0.78699  0.92382  0.69409  Biso   1.000  N
  N14      1.0000 0.28699  0.42382  0.69409  Biso   1.000  N
  N15      1.0000 0.21301  0.92382  0.80591  Biso   1.000  N
  N16      1.0000 0.71301  0.42382  0.80591  Biso   1.000  N
  S1       1.0000 0.25021  0.83240  0.21763  Biso   1.000  S
  S2       1.0000 0.75021  0.33240  0.21763  Biso   1.000  S
  S3       1.0000 0.74979  0.83240  0.28237  Biso   1.000  S
  S4       1.0000 0.24979  0.33240  0.28237  Biso   1.000  S
  S5       1.0000 0.74979  0.16760  0.78237  Biso   1.000  S
  S6       1.0000 0.24979  0.66760  0.78237  Biso   1.000  S
  S7       1.0000 0.25021  0.16760  0.71763  Biso   1.000  S
  S8       1.0000 0.75021  0.66760  0.71763  Biso   1.000  S
  S9       1.0000 0.20351  0.17385  0.10474  Biso   1.000  S
  S10      1.0000 0.70351  0.67385  0.10474  Biso   1.000  S
  S11      1.0000 0.79649  0.17385  0.39526  Biso   1.000  S
  S12      1.0000 0.29649  0.67385  0.39526  Biso   1.000  S
  S13      1.0000 0.79649  0.82615  0.89526  Biso   1.000  S
  S14      1.0000 0.29649  0.32615  0.89526  Biso   1.000  S
  S15      1.0000 0.20351  0.82615  0.60474  Biso   1.000  S
  S16      1.0000 0.70351  0.32615  0.60474  Biso   1.000  S
  Cu1      1.0000 0.20375  0.18877  0.23342  Biso   1.000  Cu
  Cu2      1.0000 0.70375  0.68877  0.23342  Biso   1.000  Cu
  Cu3      1.0000 0.79625  0.18877  0.26658  Biso   1.000  Cu
  Cu4      1.0000 0.29625  0.68877  0.26658  Biso   1.000  Cu
  Cu5      1.0000 0.79625  0.81123  0.76658  Biso   1.000  Cu
  Cu6      1.0000 0.29625  0.31123  0.76658  Biso   1.000  Cu
  Cu7      1.0000 0.20375  0.81123  0.73342  Biso   1.000  Cu
  Cu8      1.0000 0.70375  0.31123  0.73342  Biso   1.000  Cu
  Cl1      1.0000 0.95924  0.23491  0.62365  Biso   1.000  Cl
  Cl2      1.0000 0.45924  0.73491  0.62365  Biso   1.000  Cl
  Cl3      1.0000 0.04076  0.23491  0.87635  Biso   1.000  Cl
  Cl4      1.0000 0.54076  0.73491  0.87635  Biso   1.000  Cl
  Cl5      1.0000 0.04076  0.76509  0.37635  Biso   1.000  Cl
  Cl6      1.0000 0.54076  0.26509  0.37635  Biso   1.000  Cl
  Cl7      1.0000 0.95924  0.76509  0.12365  Biso   1.000  Cl
  Cl8      1.0000 0.45924  0.26509  0.12365  Biso   1.000  Cl
  Cl9      1.0000 0.08426  0.17685  0.69159  Biso   1.000  Cl
  Cl10     1.0000 0.58426  0.67685  0.69159  Biso   1.000  Cl
  Cl11     1.0000 0.91574  0.17685  0.80841  Biso   1.000  Cl
  Cl12     1.0000 0.41574  0.67685  0.80841  Biso   1.000  Cl
  Cl13     1.0000 0.91574  0.82315  0.30841  Biso   1.000  Cl
  Cl14     1.0000 0.41574  0.32315  0.30841  Biso   1.000  Cl
  Cl15     1.0000 0.08426  0.82315  0.19159  Biso   1.000  Cl
  Cl16     1.0000 0.58426  0.32315  0.19159  Biso   1.000  Cl
  Cl17     1.0000 0.99650  0.04046  0.59550  Biso   1.000  Cl
  Cl18     1.0000 0.49650  0.54046  0.59550  Biso   1.000  Cl
  Cl19     1.0000 0.00350  0.04046  0.90450  Biso   1.000  Cl
  Cl20     1.0000 0.50350  0.54046  0.90450  Biso   1.000  Cl
  Cl21     1.0000 0.00350  0.95954  0.40450  Biso   1.000  Cl
  Cl22     1.0000 0.50350  0.45954  0.40450  Biso   1.000  Cl
  Cl23     1.0000 0.99650  0.95954  0.09550  Biso   1.000  Cl
  Cl24     1.0000 0.49650  0.45954  0.09550  Biso   1.000  Cl
  F1       1.0000 0.05789  0.33465  0.39593  Biso   1.000  F
  F2       1.0000 0.55789  0.83465  0.39593  Biso   1.000  F
  F3       1.0000 0.94211  0.33465  0.10407  Biso   1.000  F
  F4       1.0000 0.44211  0.83465  0.10407  Biso   1.000  F
  F5       1.0000 0.94211  0.66535  0.60407  Biso   1.000  F
  F6       1.0000 0.44211  0.16535  0.60407  Biso   1.000  F
  F7       1.0000 0.05789  0.66535  0.89593  Biso   1.000  F
  F8       1.0000 0.55789  0.16535  0.89593  Biso   1.000  F
  F9       1.0000 0.08889  0.29660  0.52544  Biso   1.000  F
  F10      1.0000 0.58889  0.79660  0.52544  Biso   1.000  F
  F11      1.0000 0.91111  0.29660  0.97456  Biso   1.000  F
  F12      1.0000 0.41111  0.79660  0.97456  Biso   1.000  F
  F13      1.0000 0.91111  0.70340  0.47456  Biso   1.000  F
  F14      1.0000 0.41111  0.20340  0.47456  Biso   1.000  F
  F15      1.0000 0.08889  0.70340  0.02544  Biso   1.000  F
  F16      1.0000 0.58889  0.20340  0.02544  Biso   1.000  F
  F17      1.0000 0.06468  0.17590  0.43540  Biso   1.000  F
  F18      1.0000 0.56468  0.67590  0.43540  Biso   1.000  F
  F19      1.0000 0.93532  0.17590  0.06460  Biso   1.000  F
  F20      1.0000 0.43532  0.67590  0.06460  Biso   1.000  F
  F21      1.0000 0.93532  0.82410  0.56460  Biso   1.000  F
  F22      1.0000 0.43532  0.32410  0.56460  Biso   1.000  F
  F23      1.0000 0.06468  0.82410  0.93540  Biso   1.000  F
  F24      1.0000 0.56468  0.32410  0.93540  Biso   1.000  F
  F25      1.0000 0.14970  0.26574  0.45137  Biso   1.000  F
  F26      1.0000 0.64970  0.76574  0.45137  Biso   1.000  F
  F27      1.0000 0.85030  0.26574  0.04863  Biso   1.000  F
  F28      1.0000 0.35030  0.76574  0.04863  Biso   1.000  F
  F29      1.0000 0.85030  0.73426  0.54863  Biso   1.000  F
  F30      1.0000 0.35030  0.23426  0.54863  Biso   1.000  F
  F31      1.0000 0.14970  0.73426  0.95137  Biso   1.000  F
  F32      1.0000 0.64970  0.23426  0.95137  Biso   1.000  F
  B1       1.0000 0.09057  0.26890  0.45212  Biso   1.000  B
  B2       1.0000 0.59057  0.76890  0.45212  Biso   1.000  B
  B3       1.0000 0.90943  0.26890  0.04788  Biso   1.000  B
  B4       1.0000 0.40943  0.76890  0.04788  Biso   1.000  B
  B5       1.0000 0.90943  0.73110  0.54788  Biso   1.000  B
  B6       1.0000 0.40943  0.23110  0.54788  Biso   1.000  B
  B7       1.0000 0.09057  0.73110  0.95212  Biso   1.000  B
  B8       1.0000 0.59057  0.23110  0.95212  Biso   1.000  B
