data_image0
_cell_length_a       14.501
_cell_length_b       15.205
_cell_length_c       16.228
_cell_angle_alpha    80.506
_cell_angle_beta     89.984
_cell_angle_gamma    75.23

_symmetry_space_group_name_H-M    "P 1"
_symmetry_int_tables_number       1

loop_
  _symmetry_equiv_pos_as_xyz
  'x, y, z'

loop_
  _atom_site_label
  _atom_site_occupancy
  _atom_site_fract_x
  _atom_site_fract_y
  _atom_site_fract_z
  _atom_site_thermal_displace_type
  _atom_site_B_iso_or_equiv
  _atom_site_type_symbol
  C1       1.0000 0.56100  0.60230  0.07890  Biso   1.000  C
  C2       1.0000 0.43900  0.39770  0.92110  Biso   1.000  C
  H1       1.0000 0.61770  0.61880  0.08550  Biso   1.000  H
  H2       1.0000 0.38230  0.38120  0.91450  Biso   1.000  H
  C3       1.0000 0.44980  0.53560  0.09140  Biso   1.000  C
  C4       1.0000 0.55020  0.46440  0.90860  Biso   1.000  C
  H3       1.0000 0.41450  0.49410  0.11160  Biso   1.000  H
  H4       1.0000 0.58550  0.50590  0.88840  Biso   1.000  H
  C5       1.0000 0.50070  0.71940  0.95630  Biso   1.000  C
  C6       1.0000 0.49930  0.28060  0.04370  Biso   1.000  C
  H5       1.0000 0.50240  0.69980  0.90230  Biso   1.000  H
  H6       1.0000 0.49760  0.30020  0.09770  Biso   1.000  H
  H7       1.0000 0.56030  0.73520  0.96510  Biso   1.000  H
  H8       1.0000 0.43970  0.26480  0.03490  Biso   1.000  H
  C7       1.0000 0.41900  0.80640  0.95300  Biso   1.000  C
  C8       1.0000 0.58100  0.19360  0.04700  Biso   1.000  C
  C9       1.0000 0.36840  0.81190  0.03500  Biso   1.000  C
  C10      1.0000 0.63160  0.18810  0.96500  Biso   1.000  C
  C11      1.0000 0.41250  0.80660  0.11080  Biso   1.000  C
  C12      1.0000 0.58750  0.19340  0.88920  Biso   1.000  C
  C13      1.0000 0.37060  0.80600  0.18730  Biso   1.000  C
  C14      1.0000 0.62940  0.19400  0.81270  Biso   1.000  C
  H9       1.0000 0.40450  0.80230  0.23690  Biso   1.000  H
  H10      1.0000 0.59550  0.19770  0.76310  Biso   1.000  H
  C15      1.0000 0.27570  0.81130  0.18390  Biso   1.000  C
  C16      1.0000 0.72430  0.18870  0.81610  Biso   1.000  C
  C17      1.0000 0.22380  0.81530  0.11340  Biso   1.000  C
  C18      1.0000 0.77620  0.18470  0.88660  Biso   1.000  C
  H11      1.0000 0.15920  0.81760  0.11440  Biso   1.000  H
  H12      1.0000 0.84080  0.18240  0.88560  Biso   1.000  H
  C19      1.0000 0.27320  0.81590  0.03800  Biso   1.000  C
  C20      1.0000 0.72680  0.18410  0.96200  Biso   1.000  C
  H13      1.0000 0.23940  0.81910  0.98840  Biso   1.000  H
  H14      1.0000 0.76060  0.18090  0.01160  Biso   1.000  H
  C21      1.0000 0.46260  0.88810  0.92650  Biso   1.000  C
  C22      1.0000 0.53740  0.11190  0.07350  Biso   1.000  C
  H15      1.0000 0.50800  0.88890  0.97010  Biso   1.000  H
  H16      1.0000 0.49200  0.11110  0.02990  Biso   1.000  H
  H17      1.0000 0.49740  0.87920  0.87620  Biso   1.000  H
  H18      1.0000 0.50260  0.12080  0.12380  Biso   1.000  H
  C23      1.0000 0.29910  0.09640  0.93350  Biso   1.000  C
  C24      1.0000 0.70090  0.90360  0.06650  Biso   1.000  C
  H19      1.0000 0.26510  0.14310  0.96060  Biso   1.000  H
  H20      1.0000 0.73490  0.85690  0.03940  Biso   1.000  H
  C25      1.0000 0.34670  0.01910  0.83910  Biso   1.000  C
  C26      1.0000 0.65330  0.98090  0.16090  Biso   1.000  C
  H21      1.0000 0.35570  0.99790  0.78840  Biso   1.000  H
  H22      1.0000 0.64430  0.00210  0.21160  Biso   1.000  H
  C27      1.0000 0.02930  0.31670  0.70020  Biso   1.000  C
  C28      1.0000 0.97070  0.68330  0.29980  Biso   1.000  C
  H23      1.0000 0.99500  0.30560  0.74750  Biso   1.000  H
  H24      1.0000 0.00500  0.69440  0.25250  Biso   1.000  H
  C29      1.0000 0.13520  0.31230  0.61230  Biso   1.000  C
  C30      1.0000 0.86480  0.68770  0.38770  Biso   1.000  C
  H25      1.0000 0.19330  0.29430  0.58760  Biso   1.000  H
  H26      1.0000 0.80670  0.70570  0.41240  Biso   1.000  H
  C31      1.0000 0.89870  0.43350  0.61450  Biso   1.000  C
  C32      1.0000 0.10130  0.56650  0.38550  Biso   1.000  C
  H27      1.0000 0.89970  0.49560  0.58890  Biso   1.000  H
  H28      1.0000 0.10030  0.50440  0.41110  Biso   1.000  H
  H29      1.0000 0.86650  0.43720  0.66670  Biso   1.000  H
  H30      1.0000 0.13350  0.56280  0.33330  Biso   1.000  H
  C33      1.0000 0.84200  0.39340  0.55540  Biso   1.000  C
  C34      1.0000 0.15800  0.60660  0.44460  Biso   1.000  C
  C35      1.0000 0.73570  0.43770  0.56430  Biso   1.000  C
  C36      1.0000 0.26430  0.56230  0.43570  Biso   1.000  C
  C37      1.0000 0.68050  0.38720  0.61320  Biso   1.000  C
  C38      1.0000 0.31950  0.61280  0.38680  Biso   1.000  C
  H31      1.0000 0.70740  0.32600  0.63700  Biso   1.000  H
  H32      1.0000 0.29260  0.67400  0.36300  Biso   1.000  H
  C39      1.0000 0.58700  0.42820  0.62580  Biso   1.000  C
  C40      1.0000 0.41300  0.57180  0.37420  Biso   1.000  C
  H33      1.0000 0.55090  0.39500  0.65900  Biso   1.000  H
  H34      1.0000 0.44910  0.60500  0.34100  Biso   1.000  H
  C41      1.0000 0.54700  0.51710  0.59010  Biso   1.000  C
  C42      1.0000 0.45300  0.48290  0.40990  Biso   1.000  C
  C43      1.0000 0.59630  0.57050  0.54180  Biso   1.000  C
  C44      1.0000 0.40370  0.42950  0.45820  Biso   1.000  C
  H35      1.0000 0.56840  0.63160  0.51820  Biso   1.000  H
  H36      1.0000 0.43160  0.36840  0.48180  Biso   1.000  H
  C45      1.0000 0.68920  0.52810  0.53050  Biso   1.000  C
  C46      1.0000 0.31080  0.47190  0.46950  Biso   1.000  C
  C47      1.0000 0.87580  0.41030  0.46480  Biso   1.000  C
  C48      1.0000 0.12420  0.58970  0.53520  Biso   1.000  C
  H37      1.0000 0.87950  0.47380  0.45080  Biso   1.000  H
  H38      1.0000 0.12050  0.52620  0.54920  Biso   1.000  H
  H39      1.0000 0.93940  0.37070  0.46220  Biso   1.000  H
  H40      1.0000 0.06060  0.62930  0.53780  Biso   1.000  H
  C49      1.0000 0.75540  0.45080  0.34480  Biso   1.000  C
  C50      1.0000 0.24460  0.54920  0.65520  Biso   1.000  C
  H41      1.0000 0.74680  0.51450  0.33510  Biso   1.000  H
  H42      1.0000 0.25320  0.48550  0.66490  Biso   1.000  H
  C51      1.0000 0.74740  0.31730  0.33640  Biso   1.000  C
  C52      1.0000 0.25260  0.68270  0.66360  Biso   1.000  C
  H43      1.0000 0.72910  0.26880  0.31880  Biso   1.000  H
  H44      1.0000 0.27090  0.73120  0.68120  Biso   1.000  H
  C53      1.0000 0.07700  0.88300  0.74400  Biso   1.000  C
  C54      1.0000 0.92300  0.11700  0.25600  Biso   1.000  C
  H45      1.0000 0.11470  0.88930  0.69570  Biso   1.000  H
  H46      1.0000 0.88530  0.11070  0.30430  Biso   1.000  H
  H47      1.0000 0.08430  0.81750  0.76440  Biso   1.000  H
  H48      1.0000 0.91570  0.18250  0.23560  Biso   1.000  H
  C55      1.0000 0.10830  0.92570  0.81010  Biso   1.000  C
  C56      1.0000 0.89170  0.07430  0.18990  Biso   1.000  C
  H49      1.0000 0.17390  0.89550  0.82630  Biso   1.000  H
  H50      1.0000 0.82610  0.10450  0.17370  Biso   1.000  H
  H51      1.0000 0.06960  0.91970  0.85770  Biso   1.000  H
  H52      1.0000 0.93040  0.08030  0.14230  Biso   1.000  H
  H53      1.0000 0.10210  0.98990  0.78930  Biso   1.000  H
  H54      1.0000 0.89790  0.01010  0.21070  Biso   1.000  H
  C57      1.0000 0.91400  0.89300  0.78860  Biso   1.000  C
  C58      1.0000 0.08600  0.10700  0.21140  Biso   1.000  C
  H55      1.0000 0.86630  0.87220  0.75990  Biso   1.000  H
  H56      1.0000 0.13370  0.12780  0.24010  Biso   1.000  H
  H57      1.0000 0.95070  0.83970  0.82730  Biso   1.000  H
  H58      1.0000 0.04930  0.16030  0.17270  Biso   1.000  H
  C59      1.0000 0.86600  0.96100  0.83460  Biso   1.000  C
  C60      1.0000 0.13400  0.03900  0.16540  Biso   1.000  C
  H59      1.0000 0.82510  0.93640  0.87290  Biso   1.000  H
  H60      1.0000 0.17490  0.06360  0.12710  Biso   1.000  H
  H61      1.0000 0.82940  0.01340  0.79690  Biso   1.000  H
  H62      1.0000 0.17060  0.98660  0.20310  Biso   1.000  H
  H63      1.0000 0.91280  0.97940  0.86530  Biso   1.000  H
  H64      1.0000 0.08720  0.02060  0.13470  Biso   1.000  H
  C61      1.0000 0.98400  0.88600  0.57900  Biso   1.000  C
  C62      1.0000 0.01600  0.11400  0.42100  Biso   1.000  C
  H65      1.0000 0.95530  0.86430  0.53650  Biso   1.000  H
  H66      1.0000 0.04470  0.13570  0.46350  Biso   1.000  H
  H67      1.0000 0.04470  0.84410  0.59770  Biso   1.000  H
  H68      1.0000 0.95530  0.15590  0.40230  Biso   1.000  H
  H69      1.0000 0.99360  0.94600  0.55740  Biso   1.000  H
  H70      1.0000 0.00640  0.05400  0.44260  Biso   1.000  H
  C63      1.0000 0.93400  0.89300  0.63600  Biso   1.000  C
  C64      1.0000 0.06600  0.10700  0.36400  Biso   1.000  C
  H71      1.0000 0.92020  0.83340  0.65430  Biso   1.000  H
  H72      1.0000 0.07980  0.16660  0.34570  Biso   1.000  H
  H73      1.0000 0.87410  0.93710  0.61710  Biso   1.000  H
  H74      1.0000 0.12590  0.06290  0.38290  Biso   1.000  H
  N1       1.0000 0.53500  0.53520  0.12800  Biso   1.000  N
  N2       1.0000 0.46500  0.46480  0.87200  Biso   1.000  N
  N3       1.0000 0.42260  0.59980  0.02550  Biso   1.000  N
  N4       1.0000 0.57740  0.40020  0.97450  Biso   1.000  N
  N5       1.0000 0.49610  0.64170  0.02030  Biso   1.000  N
  N6       1.0000 0.50390  0.35830  0.97970  Biso   1.000  N
  N7       1.0000 0.39220  0.97660  0.91080  Biso   1.000  N
  N8       1.0000 0.60780  0.02340  0.08920  Biso   1.000  N
  N9       1.0000 0.36240  0.02570  0.97250  Biso   1.000  N
  N10      1.0000 0.63760  0.97430  0.02750  Biso   1.000  N
  N11      1.0000 0.28550  0.09800  0.85110  Biso   1.000  N
  N12      1.0000 0.71450  0.90200  0.14890  Biso   1.000  N
  N13      1.0000 0.11900  0.27420  0.69060  Biso   1.000  N
  N14      1.0000 0.88100  0.72580  0.30940  Biso   1.000  N
  N15      1.0000 0.99530  0.37790  0.63180  Biso   1.000  N
  N16      1.0000 0.00470  0.62210  0.36820  Biso   1.000  N
  N17      1.0000 0.06430  0.37520  0.57440  Biso   1.000  N
  N18      1.0000 0.93570  0.62480  0.42560  Biso   1.000  N
  N19      1.0000 0.81360  0.39280  0.40330  Biso   1.000  N
  N20      1.0000 0.18640  0.60720  0.59670  Biso   1.000  N
  N21      1.0000 0.81190  0.30530  0.39830  Biso   1.000  N
  N22      1.0000 0.18810  0.69470  0.60170  Biso   1.000  N
  N23      1.0000 0.71110  0.40590  0.30190  Biso   1.000  N
  N24      1.0000 0.28890  0.59410  0.69810  Biso   1.000  N
  N25      1.0000 0.98130  0.92610  0.72330  Biso   1.000  N
  N26      1.0000 0.01870  0.07390  0.27670  Biso   1.000  N
  O1       1.0000 0.75650  0.31930  0.12800  Biso   1.000  O
  O2       1.0000 0.24350  0.68070  0.87200  Biso   1.000  O
  O3       1.0000 0.75600  0.42710  0.80340  Biso   1.000  O
  O4       1.0000 0.24400  0.57290  0.19660  Biso   1.000  O
  O5       1.0000 0.96670  0.11120  0.67340  Biso   1.000  O
  O6       1.0000 0.03330  0.88880  0.32660  Biso   1.000  O
  O7       1.0000 0.78830  0.41420  0.97710  Biso   1.000  O
  O8       1.0000 0.21170  0.58580  0.02290  Biso   1.000  O
  O9       1.0000 0.23320  0.42770  0.11580  Biso   1.000  O
  O10      1.0000 0.76680  0.57230  0.88420  Biso   1.000  O
  O11      1.0000 0.09540  0.49500  0.21110  Biso   1.000  O
  O12      1.0000 0.90460  0.50500  0.78890  Biso   1.000  O
  O13      1.0000 0.02090  0.36970  0.31900  Biso   1.000  O
  O14      1.0000 0.97910  0.63030  0.68100  Biso   1.000  O
  O15      1.0000 0.92700  0.35460  0.17910  Biso   1.000  O
  O16      1.0000 0.07300  0.64540  0.82090  Biso   1.000  O
  O17      1.0000 0.11790  0.32690  0.18040  Biso   1.000  O
  O18      1.0000 0.88210  0.67310  0.81960  Biso   1.000  O
  O19      1.0000 0.76480  0.65000  0.02390  Biso   1.000  O
  O20      1.0000 0.23520  0.35000  0.97610  Biso   1.000  O
  O21      1.0000 0.78230  0.49210  0.11430  Biso   1.000  O
  O22      1.0000 0.21770  0.50790  0.88570  Biso   1.000  O
  O23      1.0000 0.29830  0.24030  0.12760  Biso   1.000  O
  O24      1.0000 0.70170  0.75970  0.87240  Biso   1.000  O
  O25      1.0000 0.12220  0.25310  0.04760  Biso   1.000  O
  O26      1.0000 0.87780  0.74690  0.95240  Biso   1.000  O
  O27      1.0000 0.93010  0.27990  0.04790  Biso   1.000  O
  O28      1.0000 0.06990  0.72010  0.95210  Biso   1.000  O
  O29      1.0000 0.03630  0.16110  0.95390  Biso   1.000  O
  O30      1.0000 0.96370  0.83890  0.04610  Biso   1.000  O
  O31      1.0000 0.92660  0.33900  0.88660  Biso   1.000  O
  O32      1.0000 0.07340  0.66100  0.11340  Biso   1.000  O
  O33      1.0000 0.89160  0.68960  0.11420  Biso   1.000  O
  O34      1.0000 0.10840  0.31040  0.88580  Biso   1.000  O
  O35      1.0000 0.91330  0.52070  0.20970  Biso   1.000  O
  O36      1.0000 0.08670  0.47930  0.79030  Biso   1.000  O
  O37      1.0000 0.74000  0.64700  0.19290  Biso   1.000  O
  O38      1.0000 0.26000  0.35300  0.80710  Biso   1.000  O
  O39      1.0000 0.94220  0.48430  0.08200  Biso   1.000  O
  O40      1.0000 0.05780  0.51570  0.91800  Biso   1.000  O
  O41      1.0000 0.05360  0.57500  0.01880  Biso   1.000  O
  O42      1.0000 0.94640  0.42500  0.98120  Biso   1.000  O
  O43      1.0000 0.06820  0.45800  0.07130  Biso   1.000  O
  O44      1.0000 0.93180  0.54200  0.92870  Biso   1.000  O
  O45      1.0000 0.92950  0.58550  0.00810  Biso   1.000  O
  O46      1.0000 0.07050  0.41450  0.99190  Biso   1.000  O
  O47      1.0000 0.26160  0.81250  0.43770  Biso   1.000  O
  O48      1.0000 0.73840  0.18750  0.56230  Biso   1.000  O
  O49      1.0000 0.32800  0.95410  0.35630  Biso   1.000  O
  O50      1.0000 0.67200  0.04590  0.64370  Biso   1.000  O
  O51      1.0000 0.35920  0.04030  0.19700  Biso   1.000  O
  O52      1.0000 0.64080  0.95970  0.80300  Biso   1.000  O
  O53      1.0000 0.48610  0.10520  0.27580  Biso   1.000  O
  O54      1.0000 0.51390  0.89480  0.72420  Biso   1.000  O
  O55      1.0000 0.49890  0.92220  0.29880  Biso   1.000  O
  O56      1.0000 0.50110  0.07780  0.70120  Biso   1.000  O
  O57      1.0000 0.56900  0.25450  0.26800  Biso   1.000  O
  O58      1.0000 0.43100  0.74550  0.73200  Biso   1.000  O
  O59      1.0000 0.34330  0.93150  0.66060  Biso   1.000  O
  O60      1.0000 0.65670  0.06850  0.33940  Biso   1.000  O
  O61      1.0000 0.32800  0.11360  0.64350  Biso   1.000  O
  O62      1.0000 0.67200  0.88640  0.35650  Biso   1.000  O
  O63      1.0000 0.60600  0.73690  0.32360  Biso   1.000  O
  O64      1.0000 0.39400  0.26310  0.67640  Biso   1.000  O
  O65      1.0000 0.45740  0.79950  0.41520  Biso   1.000  O
  O66      1.0000 0.54260  0.20050  0.58480  Biso   1.000  O
  O67      1.0000 0.39160  0.80600  0.56490  Biso   1.000  O
  O68      1.0000 0.60840  0.19400  0.43510  Biso   1.000  O
  O69      1.0000 0.26120  0.95930  0.51190  Biso   1.000  O
  O70      1.0000 0.73880  0.04070  0.48810  Biso   1.000  O
  O71      1.0000 0.16620  0.05330  0.63300  Biso   1.000  O
  O72      1.0000 0.83380  0.94670  0.36700  Biso   1.000  O
  O73      1.0000 0.24780  0.13090  0.49260  Biso   1.000  O
  O74      1.0000 0.75220  0.86910  0.50740  Biso   1.000  O
  O75      1.0000 0.36310  0.23200  0.51830  Biso   1.000  O
  O76      1.0000 0.63690  0.76800  0.48170  Biso   1.000  O
  O77      1.0000 0.22990  0.29290  0.38240  Biso   1.000  O
  O78      1.0000 0.77010  0.70710  0.61760  Biso   1.000  O
  O79      1.0000 0.31680  0.12580  0.33780  Biso   1.000  O
  O80      1.0000 0.68320  0.87420  0.66220  Biso   1.000  O
  O81      1.0000 0.42460  0.23300  0.36940  Biso   1.000  O
  O82      1.0000 0.57540  0.76700  0.63060  Biso   1.000  O
  O83      1.0000 0.41420  0.96270  0.53850  Biso   1.000  O
  O84      1.0000 0.58580  0.03730  0.46150  Biso   1.000  O
  O85      1.0000 0.47790  0.94130  0.43270  Biso   1.000  O
  O86      1.0000 0.52210  0.05870  0.56730  Biso   1.000  O
  O87      1.0000 0.42310  0.06390  0.52180  Biso   1.000  O
  O88      1.0000 0.57690  0.93610  0.47820  Biso   1.000  O
  O89      1.0000 0.44720  0.08010  0.42220  Biso   1.000  O
  O90      1.0000 0.55280  0.91990  0.57780  Biso   1.000  O
  O91      1.0000 0.34970  0.81630  0.88580  Biso   1.000  O
  O92      1.0000 0.65030  0.18370  0.11420  Biso   1.000  O
  H75      1.0000 0.32270  0.77460  0.89530  Biso   1.000  H
  H76      1.0000 0.67730  0.22540  0.10470  Biso   1.000  H
  O93      1.0000 0.86480  0.29690  0.58470  Biso   1.000  O
  O94      1.0000 0.13520  0.70310  0.41530  Biso   1.000  O
  H77      1.0000 0.83330  0.27310  0.55740  Biso   1.000  H
  H78      1.0000 0.16670  0.72690  0.44260  Biso   1.000  H
  Cu1      1.0000 0.20553  0.18652  0.76987  Biso   1.000  Cu
  Cu2      1.0000 0.79447  0.81348  0.23013  Biso   1.000  Cu
  Cu3      1.0000 0.61833  0.45997  0.21509  Biso   1.000  Cu
  Cu4      1.0000 0.38167  0.54003  0.78491  Biso   1.000  Cu
  Mo1      1.0000 0.83091  0.37990  0.08554  Biso   1.000  Mo
  Mo2      1.0000 0.16909  0.62010  0.91446  Biso   1.000  Mo
  Mo3      1.0000 0.82659  0.60177  0.13395  Biso   1.000  Mo
  Mo4      1.0000 0.17341  0.39823  0.86605  Biso   1.000  Mo
  Mo5      1.0000 0.02382  0.26707  0.97246  Biso   1.000  Mo
  Mo6      1.0000 0.97618  0.73293  0.02754  Biso   1.000  Mo
  Mo7      1.0000 0.01582  0.40595  0.21779  Biso   1.000  Mo
  Mo8      1.0000 0.98418  0.59405  0.78221  Biso   1.000  Mo
  Mo9      1.0000 0.20540  0.32472  0.08753  Biso   1.000  Mo
  Mo10     1.0000 0.79460  0.67528  0.91247  Biso   1.000  Mo
  Mo11     1.0000 0.83485  0.44903  0.86415  Biso   1.000  Mo
  Mo12     1.0000 0.16515  0.55097  0.13585  Biso   1.000  Mo
  Mo13     1.0000 0.31104  0.19784  0.41886  Biso   1.000  Mo
  Mo14     1.0000 0.68896  0.80216  0.58114  Biso   1.000  Mo
  Mo15     1.0000 0.27486  0.03606  0.59455  Biso   1.000  Mo
  Mo16     1.0000 0.72514  0.96394  0.40545  Biso   1.000  Mo
  Mo17     1.0000 0.54469  0.17603  0.34278  Biso   1.000  Mo
  Mo18     1.0000 0.45531  0.82397  0.65722  Biso   1.000  Mo
  Mo19     1.0000 0.57130  0.81832  0.38208  Biso   1.000  Mo
  Mo20     1.0000 0.42870  0.18168  0.61792  Biso   1.000  Mo
  Mo21     1.0000 0.33560  0.87434  0.45542  Biso   1.000  Mo
  Mo22     1.0000 0.66440  0.12566  0.54458  Biso   1.000  Mo
  Mo23     1.0000 0.40504  0.02894  0.29174  Biso   1.000  Mo
  Mo24     1.0000 0.59496  0.97106  0.70826  Biso   1.000  Mo
  P1       1.0000 0.50000  0.00000  0.50000  Biso   1.000  P
  P2       1.0000 0.00000  0.50000  0.00000  Biso   1.000  P
  F1       1.0000 0.50850  0.80240  0.10890  Biso   1.000  F
  F2       1.0000 0.49150  0.19760  0.89110  Biso   1.000  F
  F3       1.0000 0.23010  0.81080  0.25790  Biso   1.000  F
  F4       1.0000 0.76990  0.18920  0.74210  Biso   1.000  F
  F5       1.0000 0.45380  0.55530  0.60190  Biso   1.000  F
  F6       1.0000 0.54620  0.44470  0.39810  Biso   1.000  F
  F7       1.0000 0.74050  0.57800  0.48190  Biso   1.000  F
  F8       1.0000 0.25950  0.42200  0.51810  Biso   1.000  F
  H79      1.0000 0.95800  0.98400  0.70800  Biso   1.000  H
  H80      1.0000 0.04200  0.01600  0.29200  Biso   1.000  H
