data_image0
_cell_length_a       6.834
_cell_length_b       13.717
_cell_length_c       7.45
_cell_angle_alpha    90
_cell_angle_beta     90
_cell_angle_gamma    111.62

_symmetry_space_group_name_H-M    "P 1"
_symmetry_int_tables_number       1

loop_
  _symmetry_equiv_pos_as_xyz
  'x, y, z'

loop_
  _atom_site_label
  _atom_site_occupancy
  _atom_site_fract_x
  _atom_site_fract_y
  _atom_site_fract_z
  _atom_site_thermal_displace_type
  _atom_site_B_iso_or_equiv
  _atom_site_type_symbol
  Cu1      1.0000 0.46810  0.41000  0.13320  Biso   1.000  Cu
  Cu2      1.0000 0.53190  0.09000  0.63320  Biso   1.000  Cu
  Cu3      1.0000 0.53190  0.59000  0.86680  Biso   1.000  Cu
  Cu4      1.0000 0.46810  0.91000  0.36680  Biso   1.000  Cu
  Cl1      1.0000 0.61980  0.44530  0.83220  Biso   1.000  Cl
  Cl2      1.0000 0.38020  0.05470  0.33220  Biso   1.000  Cl
  Cl3      1.0000 0.38020  0.55470  0.16780  Biso   1.000  Cl
  Cl4      1.0000 0.61980  0.94530  0.66780  Biso   1.000  Cl
  N1       1.0000 0.19860  0.28530  0.11250  Biso   1.000  N
  N2       1.0000 0.80140  0.21470  0.61250  Biso   1.000  N
  N3       1.0000 0.80140  0.71470  0.88750  Biso   1.000  N
  N4       1.0000 0.19860  0.78530  0.38750  Biso   1.000  N
  C1       1.0000 0.06050  0.20690  0.09910  Biso   1.000  C
  C2       1.0000 0.93950  0.29310  0.59910  Biso   1.000  C
  C3       1.0000 0.93950  0.79310  0.90090  Biso   1.000  C
  C4       1.0000 0.06050  0.70690  0.40090  Biso   1.000  C
  C5       1.0000 0.89660  0.11040  0.07210  Biso   1.000  C
  C6       1.0000 0.10340  0.38960  0.57210  Biso   1.000  C
  C7       1.0000 0.10340  0.88960  0.92790  Biso   1.000  C
  C8       1.0000 0.89660  0.61040  0.42790  Biso   1.000  C
  C9       1.0000 0.85650  0.03060  0.18710  Biso   1.000  C
  C10      1.0000 0.14350  0.46940  0.68710  Biso   1.000  C
  C11      1.0000 0.14350  0.96940  0.81290  Biso   1.000  C
  C12      1.0000 0.85650  0.53060  0.31290  Biso   1.000  C
  C13      1.0000 0.69780  0.92940  0.15980  Biso   1.000  C
  C14      1.0000 0.30220  0.57060  0.65980  Biso   1.000  C
  C15      1.0000 0.30220  0.07060  0.84020  Biso   1.000  C
  C16      1.0000 0.69780  0.42940  0.34020  Biso   1.000  C
  C17      1.0000 0.68110  0.84410  0.26260  Biso   1.000  C
  C18      1.0000 0.31890  0.65590  0.76260  Biso   1.000  C
  C19      1.0000 0.31890  0.15590  0.73740  Biso   1.000  C
  C20      1.0000 0.68110  0.34410  0.23740  Biso   1.000  C
  H1       1.0000 0.83100  0.11100  0.97000  Biso   1.000  H
  H2       1.0000 0.16900  0.38900  0.47000  Biso   1.000  H
  H3       1.0000 0.16900  0.88900  0.03000  Biso   1.000  H
  H4       1.0000 0.83100  0.61100  0.53000  Biso   1.000  H
  H5       1.0000 0.96500  0.04600  0.28600  Biso   1.000  H
  H6       1.0000 0.03500  0.45400  0.78600  Biso   1.000  H
  H7       1.0000 0.03500  0.95400  0.71400  Biso   1.000  H
  H8       1.0000 0.96500  0.54600  0.21400  Biso   1.000  H
  H9       1.0000 0.62400  0.93700  0.06400  Biso   1.000  H
  H10      1.0000 0.37600  0.56300  0.56400  Biso   1.000  H
  H11      1.0000 0.37600  0.06300  0.93600  Biso   1.000  H
  H12      1.0000 0.62400  0.43700  0.43600  Biso   1.000  H
  H13      1.0000 0.58000  0.76900  0.23100  Biso   1.000  H
  H14      1.0000 0.42000  0.73100  0.73100  Biso   1.000  H
  H15      1.0000 0.42000  0.23100  0.76900  Biso   1.000  H
  H16      1.0000 0.58000  0.26900  0.26900  Biso   1.000  H
  H17      1.0000 0.80200  0.85600  0.35200  Biso   1.000  H
  H18      1.0000 0.19800  0.64400  0.85200  Biso   1.000  H
  H19      1.0000 0.19800  0.14400  0.64800  Biso   1.000  H
  H20      1.0000 0.80200  0.35600  0.14800  Biso   1.000  H
