data_image0
_cell_length_a       10.9064
_cell_length_b       11.2569
_cell_length_c       11.0218
_cell_angle_alpha    90
_cell_angle_beta     95.096
_cell_angle_gamma    90

_symmetry_space_group_name_H-M    "P 1"
_symmetry_int_tables_number       1

loop_
  _symmetry_equiv_pos_as_xyz
  'x, y, z'

loop_
  _atom_site_label
  _atom_site_occupancy
  _atom_site_fract_x
  _atom_site_fract_y
  _atom_site_fract_z
  _atom_site_thermal_displace_type
  _atom_site_B_iso_or_equiv
  _atom_site_type_symbol
  Cu1      1.0000 0.47058  0.23616  0.00034  Biso   1.000  Cu
  Cu2      1.0000 0.02942  0.73616  0.99966  Biso   1.000  Cu
  Cu3      1.0000 0.52942  0.76384  0.99966  Biso   1.000  Cu
  Cu4      1.0000 0.97058  0.26384  0.00034  Biso   1.000  Cu
  Cu5      1.0000 0.65787  0.43872  0.17599  Biso   1.000  Cu
  Cu6      1.0000 0.84213  0.93872  0.82401  Biso   1.000  Cu
  Cu7      1.0000 0.34213  0.56128  0.82401  Biso   1.000  Cu
  Cu8      1.0000 0.15787  0.06128  0.17599  Biso   1.000  Cu
  S1       1.0000 0.51356  0.29612  0.20014  Biso   1.000  S
  S2       1.0000 0.98644  0.79612  0.79986  Biso   1.000  S
  S3       1.0000 0.48644  0.70388  0.79986  Biso   1.000  S
  S4       1.0000 0.01356  0.20388  0.20014  Biso   1.000  S
  S5       1.0000 0.41395  0.36992  0.85537  Biso   1.000  S
  S6       1.0000 0.08605  0.86992  0.14463  Biso   1.000  S
  S7       1.0000 0.58605  0.63008  0.14463  Biso   1.000  S
  S8       1.0000 0.91395  0.13008  0.85537  Biso   1.000  S
  N1       1.0000 0.56850  0.24990  0.71900  Biso   1.000  N
  N2       1.0000 0.93150  0.74990  0.28100  Biso   1.000  N
  N3       1.0000 0.43150  0.75010  0.28100  Biso   1.000  N
  N4       1.0000 0.06850  0.25010  0.71900  Biso   1.000  N
  N5       1.0000 0.45250  0.37930  0.61840  Biso   1.000  N
  N6       1.0000 0.04750  0.87930  0.38160  Biso   1.000  N
  N7       1.0000 0.54750  0.62070  0.38160  Biso   1.000  N
  N8       1.0000 0.95250  0.12070  0.61840  Biso   1.000  N
  N9       1.0000 0.54760  0.07150  0.28060  Biso   1.000  N
  N10      1.0000 0.95240  0.57150  0.71940  Biso   1.000  N
  N11      1.0000 0.45240  0.92850  0.71940  Biso   1.000  N
  N12      1.0000 0.04760  0.42850  0.28060  Biso   1.000  N
  C1       1.0000 0.61040  0.24500  0.59610  Biso   1.000  C
  C2       1.0000 0.88960  0.74500  0.40390  Biso   1.000  C
  C3       1.0000 0.38960  0.75500  0.40390  Biso   1.000  C
  C4       1.0000 0.11040  0.25500  0.59610  Biso   1.000  C
  H1       1.0000 0.61570  0.16370  0.56770  Biso   1.000  H
  H2       1.0000 0.88430  0.66370  0.43230  Biso   1.000  H
  H3       1.0000 0.38430  0.83630  0.43230  Biso   1.000  H
  H4       1.0000 0.11570  0.33630  0.56770  Biso   1.000  H
  H5       1.0000 0.68960  0.28350  0.59310  Biso   1.000  H
  H6       1.0000 0.81040  0.78350  0.40690  Biso   1.000  H
  H7       1.0000 0.31040  0.71650  0.40690  Biso   1.000  H
  H8       1.0000 0.18960  0.21650  0.59310  Biso   1.000  H
  C5       1.0000 0.48220  0.33080  0.72710  Biso   1.000  C
  C6       1.0000 0.01780  0.83080  0.27290  Biso   1.000  C
  C7       1.0000 0.51780  0.66920  0.27290  Biso   1.000  C
  C8       1.0000 0.98220  0.16920  0.72710  Biso   1.000  C
  N13      1.0000 0.71760  0.15960  0.24690  Biso   1.000  N
  N14      1.0000 0.78240  0.65960  0.75310  Biso   1.000  N
  N15      1.0000 0.28240  0.84040  0.75310  Biso   1.000  N
  N16      1.0000 0.21760  0.34040  0.24690  Biso   1.000  N
  C9       1.0000 0.76010  0.04350  0.29240  Biso   1.000  C
  C10      1.0000 0.73990  0.54350  0.70760  Biso   1.000  C
  C11      1.0000 0.23990  0.95650  0.70760  Biso   1.000  C
  C12      1.0000 0.26010  0.45650  0.29240  Biso   1.000  C
  H9       1.0000 0.80600  0.05000  0.37170  Biso   1.000  H
  H10      1.0000 0.69400  0.55000  0.62830  Biso   1.000  H
  H11      1.0000 0.19400  0.95000  0.62830  Biso   1.000  H
  H12      1.0000 0.30600  0.45000  0.37170  Biso   1.000  H
  H13      1.0000 0.81100  0.00490  0.23630  Biso   1.000  H
  H14      1.0000 0.68900  0.50490  0.76370  Biso   1.000  H
  H15      1.0000 0.18900  0.99510  0.76370  Biso   1.000  H
  H16      1.0000 0.31100  0.49510  0.23630  Biso   1.000  H
  C13      1.0000 0.63770  0.97630  0.30050  Biso   1.000  C
  C14      1.0000 0.86230  0.47630  0.69950  Biso   1.000  C
  C15      1.0000 0.36230  0.02370  0.69950  Biso   1.000  C
  C16      1.0000 0.13770  0.52370  0.30050  Biso   1.000  C
  H17      1.0000 0.62590  0.91570  0.23810  Biso   1.000  H
  H18      1.0000 0.87410  0.41570  0.76190  Biso   1.000  H
  H19      1.0000 0.37410  0.08430  0.76190  Biso   1.000  H
  H20      1.0000 0.12590  0.58430  0.23810  Biso   1.000  H
  H21      1.0000 0.63400  0.94000  0.37990  Biso   1.000  H
  H22      1.0000 0.86600  0.44000  0.62010  Biso   1.000  H
  H23      1.0000 0.36600  0.06000  0.62010  Biso   1.000  H
  H24      1.0000 0.13400  0.56000  0.37990  Biso   1.000  H
  C17      1.0000 0.59690  0.17050  0.24490  Biso   1.000  C
  C18      1.0000 0.90310  0.67050  0.75510  Biso   1.000  C
  C19      1.0000 0.40310  0.82950  0.75510  Biso   1.000  C
  C20      1.0000 0.09690  0.32950  0.24490  Biso   1.000  C
  C21      1.0000 0.50800  0.31360  0.52250  Biso   1.000  C
  C22      1.0000 0.99200  0.81360  0.47750  Biso   1.000  C
  C23      1.0000 0.49200  0.68640  0.47750  Biso   1.000  C
  C24      1.0000 0.00800  0.18640  0.52250  Biso   1.000  C
  H25      1.0000 0.54100  0.36690  0.46440  Biso   1.000  H
  H26      1.0000 0.95900  0.86690  0.53560  Biso   1.000  H
  H27      1.0000 0.45900  0.63310  0.53560  Biso   1.000  H
  H28      1.0000 0.04100  0.13310  0.46440  Biso   1.000  H
  H29      1.0000 0.44910  0.26030  0.47960  Biso   1.000  H
  H30      1.0000 0.05090  0.76030  0.52040  Biso   1.000  H
  H31      1.0000 0.55090  0.73970  0.52040  Biso   1.000  H
  H32      1.0000 0.94910  0.23970  0.47960  Biso   1.000  H
  S9       1.0000 0.28065  0.10375  0.01808  Biso   1.000  S
  S10      1.0000 0.21935  0.60375  0.98192  Biso   1.000  S
  S11      1.0000 0.71935  0.89625  0.98192  Biso   1.000  S
  S12      1.0000 0.78065  0.39625  0.01808  Biso   1.000  S
  C25      1.0000 0.35620  0.97550  0.02940  Biso   1.000  C
  C26      1.0000 0.14380  0.47550  0.97060  Biso   1.000  C
  C27      1.0000 0.64380  0.02450  0.97060  Biso   1.000  C
  C28      1.0000 0.85620  0.52450  0.02940  Biso   1.000  C
  Cl1      1.0000 0.77851  0.43965  0.37330  Biso   1.000  Cl
  Cl2      1.0000 0.72149  0.93965  0.62670  Biso   1.000  Cl
  Cl3      1.0000 0.22149  0.56035  0.62670  Biso   1.000  Cl
  Cl4      1.0000 0.27851  0.06035  0.37330  Biso   1.000  Cl
  N17      1.0000 0.41020  0.88710  0.03670  Biso   1.000  N
  N18      1.0000 0.08980  0.38710  0.96330  Biso   1.000  N
  N19      1.0000 0.58980  0.11290  0.96330  Biso   1.000  N
  N20      1.0000 0.91020  0.61290  0.03670  Biso   1.000  N
  H33      1.0000 0.40900  0.41900  0.60900  Biso   1.000  H
  H34      1.0000 0.09100  0.91900  0.39100  Biso   1.000  H
  H35      1.0000 0.59100  0.58100  0.39100  Biso   1.000  H
  H36      1.0000 0.90900  0.08100  0.60900  Biso   1.000  H
  H37      1.0000 0.60300  0.21900  0.77600  Biso   1.000  H
  H38      1.0000 0.89700  0.71900  0.22400  Biso   1.000  H
  H39      1.0000 0.39700  0.78100  0.22400  Biso   1.000  H
  H40      1.0000 0.10300  0.28100  0.77600  Biso   1.000  H
  H41      1.0000 0.47800  0.07200  0.28900  Biso   1.000  H
  H42      1.0000 0.02200  0.57200  0.71100  Biso   1.000  H
  H43      1.0000 0.52200  0.92800  0.71100  Biso   1.000  H
  H44      1.0000 0.97800  0.42800  0.28900  Biso   1.000  H
  H45      1.0000 0.76500  0.20600  0.23500  Biso   1.000  H
  H46      1.0000 0.73500  0.70600  0.76500  Biso   1.000  H
  H47      1.0000 0.23500  0.79400  0.76500  Biso   1.000  H
  H48      1.0000 0.26500  0.29400  0.23500  Biso   1.000  H
