data_image0
_cell_length_a       3.7765
_cell_length_b       25.935
_cell_length_c       12.339
_cell_angle_alpha    90
_cell_angle_beta     94.462
_cell_angle_gamma    90

_symmetry_space_group_name_H-M    "P 1"
_symmetry_int_tables_number       1

loop_
  _symmetry_equiv_pos_as_xyz
  'x, y, z'

loop_
  _atom_site_label
  _atom_site_occupancy
  _atom_site_fract_x
  _atom_site_fract_y
  _atom_site_fract_z
  _atom_site_thermal_displace_type
  _atom_site_B_iso_or_equiv
  _atom_site_type_symbol
  Cu1      1.0000 0.30817  0.63340  0.12987  Biso   1.000  Cu
  Cu2      1.0000 0.69183  0.13340  0.37013  Biso   1.000  Cu
  Cu3      1.0000 0.69183  0.36660  0.87013  Biso   1.000  Cu
  Cu4      1.0000 0.30817  0.86660  0.62987  Biso   1.000  Cu
  Cu5      1.0000 0.90754  0.57602  0.27566  Biso   1.000  Cu
  Cu6      1.0000 0.09246  0.07602  0.22434  Biso   1.000  Cu
  Cu7      1.0000 0.09246  0.42398  0.72434  Biso   1.000  Cu
  Cu8      1.0000 0.90754  0.92398  0.77566  Biso   1.000  Cu
  Cl1      1.0000 0.40780  0.62217  0.33820  Biso   1.000  Cl
  Cl2      1.0000 0.59220  0.12217  0.16180  Biso   1.000  Cl
  Cl3      1.0000 0.59220  0.37783  0.66180  Biso   1.000  Cl
  Cl4      1.0000 0.40780  0.87783  0.83820  Biso   1.000  Cl
  Cl5      1.0000 0.77240  0.58732  0.07265  Biso   1.000  Cl
  Cl6      1.0000 0.22760  0.08732  0.42735  Biso   1.000  Cl
  Cl7      1.0000 0.22760  0.41268  0.92735  Biso   1.000  Cl
  Cl8      1.0000 0.77240  0.91268  0.57265  Biso   1.000  Cl
  N1       1.0000 0.18790  0.70719  0.09990  Biso   1.000  N
  N2       1.0000 0.81210  0.20719  0.40010  Biso   1.000  N
  N3       1.0000 0.81210  0.29281  0.90010  Biso   1.000  N
  N4       1.0000 0.18790  0.79281  0.59990  Biso   1.000  N
  C1       1.0000 0.20120  0.79762  0.14600  Biso   1.000  C
  C2       1.0000 0.79880  0.29762  0.35400  Biso   1.000  C
  C3       1.0000 0.79880  0.20238  0.85400  Biso   1.000  C
  C4       1.0000 0.20120  0.70238  0.64600  Biso   1.000  C
  N5       1.0000 0.13560  0.99919  0.21750  Biso   1.000  N
  N6       1.0000 0.86440  0.49919  0.28250  Biso   1.000  N
  N7       1.0000 0.86440  0.00081  0.78250  Biso   1.000  N
  N8       1.0000 0.13560  0.50081  0.71750  Biso   1.000  N
  C5       1.0000 0.24540  0.89246  0.21910  Biso   1.000  C
  C6       1.0000 0.75460  0.39246  0.28090  Biso   1.000  C
  C7       1.0000 0.75460  0.10754  0.78090  Biso   1.000  C
  C8       1.0000 0.24540  0.60754  0.71910  Biso   1.000  C
  C9       1.0000 0.13320  0.91779  0.30970  Biso   1.000  C
  C10      1.0000 0.86680  0.41779  0.19030  Biso   1.000  C
  C11      1.0000 0.86680  0.08221  0.69030  Biso   1.000  C
  C12      1.0000 0.13320  0.58221  0.80970  Biso   1.000  C
  H1       1.0000 0.09730  0.89950  0.37280  Biso   1.000  H
  H2       1.0000 0.90270  0.39950  0.12720  Biso   1.000  H
  H3       1.0000 0.90270  0.10050  0.62720  Biso   1.000  H
  H4       1.0000 0.09730  0.60050  0.87280  Biso   1.000  H
  C13      1.0000 0.28450  0.74576  0.16770  Biso   1.000  C
  C14      1.0000 0.71550  0.24576  0.33230  Biso   1.000  C
  C15      1.0000 0.71550  0.25424  0.83230  Biso   1.000  C
  C16      1.0000 0.28450  0.75424  0.66770  Biso   1.000  C
  H5       1.0000 0.41390  0.73780  0.23270  Biso   1.000  H
  H6       1.0000 0.58610  0.23780  0.26730  Biso   1.000  H
  H7       1.0000 0.58610  0.26220  0.76730  Biso   1.000  H
  H8       1.0000 0.41390  0.76220  0.73270  Biso   1.000  H
  O1       1.0000 0.49390  0.82138  0.31370  Biso   1.000  O
  O2       1.0000 0.50610  0.32138  0.18630  Biso   1.000  O
  O3       1.0000 0.50610  0.17862  0.68630  Biso   1.000  O
  O4       1.0000 0.49390  0.67862  0.81370  Biso   1.000  O
  C17      1.0000 0.29950  0.92152  0.12720  Biso   1.000  C
  C18      1.0000 0.70050  0.42152  0.37280  Biso   1.000  C
  C19      1.0000 0.70050  0.07848  0.87280  Biso   1.000  C
  C20      1.0000 0.29950  0.57848  0.62720  Biso   1.000  C
  H9       1.0000 0.36960  0.90580  0.06460  Biso   1.000  H
  H10      1.0000 0.63040  0.40580  0.43540  Biso   1.000  H
  H11      1.0000 0.63040  0.09420  0.93540  Biso   1.000  H
  H12      1.0000 0.36960  0.59420  0.56460  Biso   1.000  H
  C21      1.0000 0.99980  0.71977  0.00550  Biso   1.000  C
  C22      1.0000 0.00020  0.21977  0.49450  Biso   1.000  C
  C23      1.0000 0.00020  0.28023  0.99450  Biso   1.000  C
  C24      1.0000 0.99980  0.78023  0.50550  Biso   1.000  C
  H13      1.0000 0.92710  0.69340  0.95770  Biso   1.000  H
  H14      1.0000 0.07290  0.19340  0.54230  Biso   1.000  H
  H15      1.0000 0.07290  0.30660  0.04230  Biso   1.000  H
  H16      1.0000 0.92710  0.80660  0.45770  Biso   1.000  H
  C25      1.0000 0.91150  0.76977  0.97700  Biso   1.000  C
  C26      1.0000 0.08850  0.26977  0.52300  Biso   1.000  C
  C27      1.0000 0.08850  0.23023  0.02300  Biso   1.000  C
  C28      1.0000 0.91150  0.73023  0.47700  Biso   1.000  C
  H17      1.0000 0.78760  0.77680  0.91050  Biso   1.000  H
  H18      1.0000 0.21240  0.27680  0.58950  Biso   1.000  H
  H19      1.0000 0.21240  0.22320  0.08950  Biso   1.000  H
  H20      1.0000 0.78760  0.72320  0.41050  Biso   1.000  H
  C29      1.0000 0.00940  0.80956  0.04860  Biso   1.000  C
  C30      1.0000 0.99060  0.30956  0.45140  Biso   1.000  C
  C31      1.0000 0.99060  0.19044  0.95140  Biso   1.000  C
  C32      1.0000 0.00940  0.69044  0.54860  Biso   1.000  C
  H21      1.0000 0.94770  0.84350  0.03160  Biso   1.000  H
  H22      1.0000 0.05230  0.34350  0.46840  Biso   1.000  H
  H23      1.0000 0.05230  0.15650  0.96840  Biso   1.000  H
  H24      1.0000 0.94770  0.65650  0.53160  Biso   1.000  H
  C33      1.0000 0.24690  0.97448  0.13080  Biso   1.000  C
  C34      1.0000 0.75310  0.47448  0.36920  Biso   1.000  C
  C35      1.0000 0.75310  0.02552  0.86920  Biso   1.000  C
  C36      1.0000 0.24690  0.52552  0.63080  Biso   1.000  C
  H25      1.0000 0.29110  0.99390  0.06990  Biso   1.000  H
  H26      1.0000 0.70890  0.49390  0.43010  Biso   1.000  H
  H27      1.0000 0.70890  0.00610  0.93010  Biso   1.000  H
  H28      1.0000 0.29110  0.50610  0.56990  Biso   1.000  H
  C37      1.0000 0.07560  0.97045  0.30520  Biso   1.000  C
  C38      1.0000 0.92440  0.47045  0.19480  Biso   1.000  C
  C39      1.0000 0.92440  0.02955  0.69480  Biso   1.000  C
  C40      1.0000 0.07560  0.52955  0.80520  Biso   1.000  C
  H29      1.0000 0.99170  0.98670  0.36530  Biso   1.000  H
  H30      1.0000 0.00830  0.48670  0.13470  Biso   1.000  H
  H31      1.0000 0.00830  0.01330  0.63470  Biso   1.000  H
  H32      1.0000 0.99170  0.51330  0.86530  Biso   1.000  H
  C41      1.0000 0.32640  0.83580  0.23120  Biso   1.000  C
  C42      1.0000 0.67360  0.33580  0.26880  Biso   1.000  C
  C43      1.0000 0.67360  0.16420  0.76880  Biso   1.000  C
  C44      1.0000 0.32640  0.66420  0.73120  Biso   1.000  C
