data_image0
_cell_length_a       13.569
_cell_length_b       24.746
_cell_length_c       11.501
_cell_angle_alpha    90
_cell_angle_beta     97.175
_cell_angle_gamma    90

_symmetry_space_group_name_H-M    "P 1"
_symmetry_int_tables_number       1

loop_
  _symmetry_equiv_pos_as_xyz
  'x, y, z'

loop_
  _atom_site_label
  _atom_site_occupancy
  _atom_site_fract_x
  _atom_site_fract_y
  _atom_site_fract_z
  _atom_site_thermal_displace_type
  _atom_site_B_iso_or_equiv
  _atom_site_type_symbol
  P1       1.0000 0.50000  0.00000  0.00000  Biso   1.000  P
  P2       1.0000 0.50000  0.50000  0.50000  Biso   1.000  P
  Mo1      1.0000 0.25029  0.00671  0.86485  Biso   1.000  Mo
  Mo2      1.0000 0.74971  0.50671  0.63515  Biso   1.000  Mo
  Mo3      1.0000 0.74971  0.99329  0.13515  Biso   1.000  Mo
  Mo4      1.0000 0.25029  0.49329  0.36485  Biso   1.000  Mo
  Mo5      1.0000 0.30479  0.97396  0.16798  Biso   1.000  Mo
  Mo6      1.0000 0.69521  0.47396  0.33202  Biso   1.000  Mo
  Mo7      1.0000 0.69521  0.02604  0.83202  Biso   1.000  Mo
  Mo8      1.0000 0.30479  0.52604  0.66798  Biso   1.000  Mo
  Mo9      1.0000 0.43888  0.09636  0.20832  Biso   1.000  Mo
  Mo10     1.0000 0.56112  0.59636  0.29168  Biso   1.000  Mo
  Mo11     1.0000 0.56112  0.90364  0.79168  Biso   1.000  Mo
  Mo12     1.0000 0.43888  0.40364  0.70832  Biso   1.000  Mo
  Mo13     1.0000 0.64337  0.12005  0.04947  Biso   1.000  Mo
  Mo14     1.0000 0.35663  0.62005  0.45053  Biso   1.000  Mo
  Mo15     1.0000 0.35663  0.87995  0.95053  Biso   1.000  Mo
  Mo16     1.0000 0.64337  0.37995  0.54947  Biso   1.000  Mo
  Mo17     1.0000 0.39455  0.12573  0.90377  Biso   1.000  Mo
  Mo18     1.0000 0.60545  0.62573  0.59623  Biso   1.000  Mo
  Mo19     1.0000 0.60545  0.87427  0.09623  Biso   1.000  Mo
  Mo20     1.0000 0.39455  0.37427  0.40377  Biso   1.000  Mo
  Mo21     1.0000 0.55365  0.97335  0.30540  Biso   1.000  Mo
  Mo22     1.0000 0.44635  0.47335  0.19460  Biso   1.000  Mo
  Mo23     1.0000 0.44635  0.02665  0.69460  Biso   1.000  Mo
  Mo24     1.0000 0.55365  0.52665  0.80540  Biso   1.000  Mo
  O1       1.0000 0.46320  0.01290  0.11830  Biso   1.000  O
  O2       1.0000 0.53680  0.51290  0.38170  Biso   1.000  O
  O3       1.0000 0.53680  0.98710  0.88170  Biso   1.000  O
  O4       1.0000 0.46320  0.48710  0.61830  Biso   1.000  O
  O5       1.0000 0.49700  0.05580  0.02770  Biso   1.000  O
  O6       1.0000 0.50300  0.55580  0.47230  Biso   1.000  O
  O7       1.0000 0.50300  0.94420  0.97230  Biso   1.000  O
  O8       1.0000 0.49700  0.44420  0.52770  Biso   1.000  O
  O9       1.0000 0.42770  0.03260  0.90470  Biso   1.000  O
  O10      1.0000 0.57230  0.53260  0.59530  Biso   1.000  O
  O11      1.0000 0.57230  0.96740  0.09530  Biso   1.000  O
  O12      1.0000 0.42770  0.46740  0.40470  Biso   1.000  O
  O13      1.0000 0.39770  0.97100  0.99810  Biso   1.000  O
  O14      1.0000 0.60230  0.47100  0.50190  Biso   1.000  O
  O15      1.0000 0.60230  0.02900  0.00190  Biso   1.000  O
  O16      1.0000 0.39770  0.52900  0.49810  Biso   1.000  O
  O17      1.0000 0.37930  0.12630  0.06680  Biso   1.000  O
  O18      1.0000 0.62070  0.62630  0.43320  Biso   1.000  O
  O19      1.0000 0.62070  0.87370  0.93320  Biso   1.000  O
  O20      1.0000 0.37930  0.37370  0.56680  Biso   1.000  O
  O21      1.0000 0.56350  0.12370  0.17080  Biso   1.000  O
  O22      1.0000 0.43650  0.62370  0.32920  Biso   1.000  O
  O23      1.0000 0.43650  0.87630  0.82920  Biso   1.000  O
  O24      1.0000 0.56350  0.37630  0.67080  Biso   1.000  O
  O25      1.0000 0.58110  0.95980  0.44720  Biso   1.000  O
  O26      1.0000 0.41890  0.45980  0.05280  Biso   1.000  O
  O27      1.0000 0.41890  0.04020  0.55280  Biso   1.000  O
  O28      1.0000 0.58110  0.54020  0.94720  Biso   1.000  O
  O29      1.0000 0.13270  0.01010  0.80350  Biso   1.000  O
  O30      1.0000 0.86730  0.51010  0.69650  Biso   1.000  O
  O31      1.0000 0.86730  0.98990  0.19650  Biso   1.000  O
  O32      1.0000 0.13270  0.48990  0.30350  Biso   1.000  O
  O33      1.0000 0.52820  0.14580  0.94570  Biso   1.000  O
  O34      1.0000 0.47180  0.64580  0.55430  Biso   1.000  O
  O35      1.0000 0.47180  0.85420  0.05430  Biso   1.000  O
  O36      1.0000 0.52820  0.35420  0.44570  Biso   1.000  O
  O37      1.0000 0.70860  0.17650  0.06890  Biso   1.000  O
  O38      1.0000 0.29140  0.67650  0.43110  Biso   1.000  O
  O39      1.0000 0.29140  0.82350  0.93110  Biso   1.000  O
  O40      1.0000 0.70860  0.32350  0.56890  Biso   1.000  O
  O41      1.0000 0.34500  0.18500  0.86350  Biso   1.000  O
  O42      1.0000 0.65500  0.68500  0.63650  Biso   1.000  O
  O43      1.0000 0.65500  0.81500  0.13650  Biso   1.000  O
  O44      1.0000 0.34500  0.31500  0.36350  Biso   1.000  O
  O45      1.0000 0.41570  0.95500  0.27570  Biso   1.000  O
  O46      1.0000 0.58430  0.45500  0.22430  Biso   1.000  O
  O47      1.0000 0.58430  0.04500  0.72430  Biso   1.000  O
  O48      1.0000 0.41570  0.54500  0.77570  Biso   1.000  O
  O49      1.0000 0.31400  0.90730  0.09300  Biso   1.000  O
  O50      1.0000 0.68600  0.40730  0.40700  Biso   1.000  O
  O51      1.0000 0.68600  0.09270  0.90700  Biso   1.000  O
  O52      1.0000 0.31400  0.59270  0.59300  Biso   1.000  O
  O53      1.0000 0.57390  0.90390  0.23360  Biso   1.000  O
  O54      1.0000 0.42610  0.40390  0.26640  Biso   1.000  O
  O55      1.0000 0.42610  0.09610  0.76640  Biso   1.000  O
  O56      1.0000 0.57390  0.59610  0.73360  Biso   1.000  O
  O57      1.0000 0.21160  0.96190  0.24570  Biso   1.000  O
  O58      1.0000 0.78840  0.46190  0.25430  Biso   1.000  O
  O59      1.0000 0.78840  0.03810  0.75430  Biso   1.000  O
  O60      1.0000 0.21160  0.53810  0.74570  Biso   1.000  O
  O61      1.0000 0.72700  0.06940  0.13070  Biso   1.000  O
  O62      1.0000 0.27300  0.56940  0.36930  Biso   1.000  O
  O63      1.0000 0.27300  0.93060  0.86930  Biso   1.000  O
  O64      1.0000 0.72700  0.43060  0.63070  Biso   1.000  O
  O65      1.0000 0.51590  0.04560  0.30560  Biso   1.000  O
  O66      1.0000 0.48410  0.54560  0.19440  Biso   1.000  O
  O67      1.0000 0.48410  0.95440  0.69440  Biso   1.000  O
  O68      1.0000 0.51590  0.45440  0.80560  Biso   1.000  O
  O69      1.0000 0.68100  0.99160  0.26740  Biso   1.000  O
  O70      1.0000 0.31900  0.49160  0.23260  Biso   1.000  O
  O71      1.0000 0.31900  0.00840  0.73260  Biso   1.000  O
  O72      1.0000 0.68100  0.50840  0.76740  Biso   1.000  O
  O73      1.0000 0.33200  0.04740  0.20420  Biso   1.000  O
  O74      1.0000 0.66800  0.54740  0.29580  Biso   1.000  O
  O75      1.0000 0.66800  0.95260  0.79580  Biso   1.000  O
  O76      1.0000 0.33200  0.45260  0.70420  Biso   1.000  O
  O77      1.0000 0.23210  0.99850  0.02520  Biso   1.000  O
  O78      1.0000 0.76790  0.49850  0.47480  Biso   1.000  O
  O79      1.0000 0.76790  0.00150  0.97480  Biso   1.000  O
  O80      1.0000 0.23210  0.50150  0.52520  Biso   1.000  O
  O81      1.0000 0.41200  0.14230  0.30380  Biso   1.000  O
  O82      1.0000 0.58800  0.64230  0.19620  Biso   1.000  O
  O83      1.0000 0.58800  0.85770  0.69620  Biso   1.000  O
  O84      1.0000 0.41200  0.35770  0.80380  Biso   1.000  O
  O85      1.0000 0.28060  0.08020  0.89110  Biso   1.000  O
  O86      1.0000 0.71940  0.58020  0.60890  Biso   1.000  O
  O87      1.0000 0.71940  0.91980  0.10890  Biso   1.000  O
  O88      1.0000 0.28060  0.41980  0.39110  Biso   1.000  O
  Cu1      1.0000 0.53769  0.24254  0.88507  Biso   1.000  Cu
  Cu2      1.0000 0.46231  0.74254  0.61493  Biso   1.000  Cu
  Cu3      1.0000 0.46231  0.75746  0.11493  Biso   1.000  Cu
  Cu4      1.0000 0.53769  0.25746  0.38507  Biso   1.000  Cu
  Cu5      1.0000 0.96964  0.04294  0.72276  Biso   1.000  Cu
  Cu6      1.0000 0.03036  0.54294  0.77724  Biso   1.000  Cu
  Cu7      1.0000 0.03036  0.95706  0.27724  Biso   1.000  Cu
  Cu8      1.0000 0.96964  0.45706  0.22276  Biso   1.000  Cu
  Cu9      1.0000 0.00000  0.50000  0.50000  Biso   1.000  Cu
  Cu10     1.0000 0.00000  0.00000  0.00000  Biso   1.000  Cu
  C1       1.0000 0.52590  0.24760  0.13080  Biso   1.000  C
  C2       1.0000 0.47410  0.74760  0.36920  Biso   1.000  C
  C3       1.0000 0.47410  0.75240  0.86920  Biso   1.000  C
  C4       1.0000 0.52590  0.25240  0.63080  Biso   1.000  C
  H1       1.0000 0.50110  0.21260  0.13100  Biso   1.000  H
  H2       1.0000 0.49890  0.71260  0.36900  Biso   1.000  H
  H3       1.0000 0.49890  0.78740  0.86900  Biso   1.000  H
  H4       1.0000 0.50110  0.28740  0.63100  Biso   1.000  H
  C5       1.0000 0.57610  0.32400  0.18930  Biso   1.000  C
  C6       1.0000 0.42390  0.82400  0.31070  Biso   1.000  C
  C7       1.0000 0.42390  0.67600  0.81070  Biso   1.000  C
  C8       1.0000 0.57610  0.17600  0.68930  Biso   1.000  C
  H5       1.0000 0.59430  0.35380  0.23660  Biso   1.000  H
  H6       1.0000 0.40570  0.85380  0.26340  Biso   1.000  H
  H7       1.0000 0.40570  0.64620  0.76340  Biso   1.000  H
  H8       1.0000 0.59430  0.14620  0.73660  Biso   1.000  H
  C9       1.0000 0.60120  0.36560  0.99430  Biso   1.000  C
  C10      1.0000 0.39880  0.86560  0.50570  Biso   1.000  C
  C11      1.0000 0.39880  0.63440  0.00570  Biso   1.000  C
  C12      1.0000 0.60120  0.13440  0.49430  Biso   1.000  C
  H9       1.0000 0.56300  0.39760  0.00770  Biso   1.000  H
  H10      1.0000 0.43700  0.89760  0.49230  Biso   1.000  H
  H11      1.0000 0.43700  0.60240  0.99230  Biso   1.000  H
  H12      1.0000 0.56300  0.10240  0.50770  Biso   1.000  H
  H13      1.0000 0.58110  0.35390  0.91430  Biso   1.000  H
  H14      1.0000 0.41890  0.85390  0.58570  Biso   1.000  H
  H15      1.0000 0.41890  0.64610  0.08570  Biso   1.000  H
  H16      1.0000 0.58110  0.14610  0.41430  Biso   1.000  H
  C13      1.0000 0.70750  0.38020  0.00680  Biso   1.000  C
  C14      1.0000 0.29250  0.88020  0.49320  Biso   1.000  C
  C15      1.0000 0.29250  0.61980  0.99320  Biso   1.000  C
  C16      1.0000 0.70750  0.11980  0.50680  Biso   1.000  C
  H17      1.0000 0.72500  0.39610  0.08360  Biso   1.000  H
  H18      1.0000 0.27500  0.89610  0.41640  Biso   1.000  H
  H19      1.0000 0.27500  0.60390  0.91640  Biso   1.000  H
  H20      1.0000 0.72500  0.10390  0.58360  Biso   1.000  H
  H21      1.0000 0.71660  0.40780  0.94930  Biso   1.000  H
  H22      1.0000 0.28340  0.90780  0.55070  Biso   1.000  H
  H23      1.0000 0.28340  0.59220  0.05070  Biso   1.000  H
  H24      1.0000 0.71660  0.09220  0.44930  Biso   1.000  H
  C17      1.0000 0.77990  0.33460  0.99270  Biso   1.000  C
  C18      1.0000 0.22010  0.83460  0.50730  Biso   1.000  C
  C19      1.0000 0.22010  0.66540  0.00730  Biso   1.000  C
  C20      1.0000 0.77990  0.16540  0.49270  Biso   1.000  C
  H25      1.0000 0.84560  0.34610  0.02700  Biso   1.000  H
  H26      1.0000 0.15440  0.84610  0.47300  Biso   1.000  H
  H27      1.0000 0.15440  0.65390  0.97300  Biso   1.000  H
  H28      1.0000 0.84560  0.15390  0.52700  Biso   1.000  H
  H29      1.0000 0.76150  0.30380  0.03740  Biso   1.000  H
  H30      1.0000 0.23850  0.80380  0.46260  Biso   1.000  H
  H31      1.0000 0.23850  0.69620  0.96260  Biso   1.000  H
  H32      1.0000 0.76150  0.19620  0.53740  Biso   1.000  H
  C21      1.0000 0.78580  0.31780  0.87880  Biso   1.000  C
  C22      1.0000 0.21420  0.81780  0.62120  Biso   1.000  C
  C23      1.0000 0.21420  0.68220  0.12120  Biso   1.000  C
  C24      1.0000 0.78580  0.18220  0.37880  Biso   1.000  C
  H33      1.0000 0.81020  0.34660  0.83280  Biso   1.000  H
  H34      1.0000 0.18980  0.84660  0.66720  Biso   1.000  H
  H35      1.0000 0.18980  0.65340  0.16720  Biso   1.000  H
  H36      1.0000 0.81020  0.15340  0.33280  Biso   1.000  H
  H37      1.0000 0.72150  0.30600  0.84100  Biso   1.000  H
  H38      1.0000 0.27850  0.80600  0.65900  Biso   1.000  H
  H39      1.0000 0.27850  0.69400  0.15900  Biso   1.000  H
  H40      1.0000 0.72150  0.19400  0.34100  Biso   1.000  H
  C25      1.0000 0.86290  0.26840  0.89500  Biso   1.000  C
  C26      1.0000 0.13710  0.76840  0.60500  Biso   1.000  C
  C27      1.0000 0.13710  0.73160  0.10500  Biso   1.000  C
  C28      1.0000 0.86290  0.23160  0.39500  Biso   1.000  C
  H41      1.0000 0.92720  0.28070  0.93180  Biso   1.000  H
  H42      1.0000 0.07280  0.78070  0.56820  Biso   1.000  H
  H43      1.0000 0.07280  0.71930  0.06820  Biso   1.000  H
  H44      1.0000 0.92720  0.21930  0.43180  Biso   1.000  H
  H45      1.0000 0.83890  0.24040  0.94350  Biso   1.000  H
  H46      1.0000 0.16110  0.74040  0.55650  Biso   1.000  H
  H47      1.0000 0.16110  0.75960  0.05650  Biso   1.000  H
  H48      1.0000 0.83890  0.25960  0.44350  Biso   1.000  H
  C29      1.0000 0.87020  0.24800  0.77800  Biso   1.000  C
  C30      1.0000 0.12980  0.74800  0.72200  Biso   1.000  C
  C31      1.0000 0.12980  0.75200  0.22200  Biso   1.000  C
  C32      1.0000 0.87020  0.25200  0.27800  Biso   1.000  C
  H49      1.0000 0.90160  0.27440  0.73240  Biso   1.000  H
  H50      1.0000 0.09840  0.77440  0.76760  Biso   1.000  H
  H51      1.0000 0.09840  0.72560  0.26760  Biso   1.000  H
  H52      1.0000 0.90160  0.22560  0.23240  Biso   1.000  H
  H53      1.0000 0.80500  0.23940  0.73790  Biso   1.000  H
  H54      1.0000 0.19500  0.73940  0.76210  Biso   1.000  H
  H55      1.0000 0.19500  0.76060  0.26210  Biso   1.000  H
  H56      1.0000 0.80500  0.26060  0.23790  Biso   1.000  H
  C33      1.0000 0.90320  0.14660  0.77990  Biso   1.000  C
  C34      1.0000 0.09680  0.64660  0.72010  Biso   1.000  C
  C35      1.0000 0.09680  0.85340  0.22010  Biso   1.000  C
  C36      1.0000 0.90320  0.35340  0.27990  Biso   1.000  C
  H57      1.0000 0.83700  0.13600  0.77090  Biso   1.000  H
  H58      1.0000 0.16300  0.63600  0.72910  Biso   1.000  H
  H59      1.0000 0.16300  0.86400  0.22910  Biso   1.000  H
  H60      1.0000 0.83700  0.36400  0.27090  Biso   1.000  H
  C37      1.0000 0.05530  0.14880  0.79990  Biso   1.000  C
  C38      1.0000 0.94470  0.64880  0.70010  Biso   1.000  C
  C39      1.0000 0.94470  0.85120  0.20010  Biso   1.000  C
  C40      1.0000 0.05530  0.35120  0.29990  Biso   1.000  C
  H61      1.0000 0.12090  0.13750  0.80270  Biso   1.000  H
  H62      1.0000 0.87910  0.63750  0.69730  Biso   1.000  H
  H63      1.0000 0.87910  0.86250  0.19730  Biso   1.000  H
  H64      1.0000 0.12090  0.36250  0.30270  Biso   1.000  H
  C41      1.0000 0.86450  0.96290  0.57170  Biso   1.000  C
  C42      1.0000 0.13550  0.46290  0.92830  Biso   1.000  C
  C43      1.0000 0.13550  0.03710  0.42830  Biso   1.000  C
  C44      1.0000 0.86450  0.53710  0.07170  Biso   1.000  C
  H65      1.0000 0.80460  0.98150  0.56650  Biso   1.000  H
  H66      1.0000 0.19540  0.48150  0.93350  Biso   1.000  H
  H67      1.0000 0.19540  0.01850  0.43350  Biso   1.000  H
  H68      1.0000 0.80460  0.51850  0.06650  Biso   1.000  H
  C45      1.0000 0.01180  0.94000  0.61430  Biso   1.000  C
  C46      1.0000 0.98820  0.44000  0.88570  Biso   1.000  C
  C47      1.0000 0.98820  0.06000  0.38570  Biso   1.000  C
  C48      1.0000 0.01180  0.56000  0.11430  Biso   1.000  C
  H69      1.0000 0.07820  0.94070  0.64650  Biso   1.000  H
  H70      1.0000 0.92180  0.44070  0.85350  Biso   1.000  H
  H71      1.0000 0.92180  0.05930  0.35350  Biso   1.000  H
  H72      1.0000 0.07820  0.55930  0.14650  Biso   1.000  H
  C49      1.0000 0.80910  0.88340  0.44750  Biso   1.000  C
  C50      1.0000 0.19090  0.38340  0.05250  Biso   1.000  C
  C51      1.0000 0.19090  0.11660  0.55250  Biso   1.000  C
  C52      1.0000 0.80910  0.61660  0.94750  Biso   1.000  C
  H73      1.0000 0.84000  0.86730  0.38420  Biso   1.000  H
  H74      1.0000 0.16000  0.36730  0.11580  Biso   1.000  H
  H75      1.0000 0.16000  0.13270  0.61580  Biso   1.000  H
  H76      1.0000 0.84000  0.63270  0.88420  Biso   1.000  H
  H77      1.0000 0.75240  0.90460  0.41390  Biso   1.000  H
  H78      1.0000 0.24760  0.40460  0.08610  Biso   1.000  H
  H79      1.0000 0.24760  0.09540  0.58610  Biso   1.000  H
  H80      1.0000 0.75240  0.59540  0.91390  Biso   1.000  H
  C53      1.0000 0.77600  0.83960  0.52680  Biso   1.000  C
  C54      1.0000 0.22400  0.33960  0.97320  Biso   1.000  C
  C55      1.0000 0.22400  0.16040  0.47320  Biso   1.000  C
  C56      1.0000 0.77600  0.66040  0.02680  Biso   1.000  C
  H81      1.0000 0.83390  0.81930  0.55980  Biso   1.000  H
  H82      1.0000 0.16610  0.31930  0.94020  Biso   1.000  H
  H83      1.0000 0.16610  0.18070  0.44020  Biso   1.000  H
  H84      1.0000 0.83390  0.68070  0.05980  Biso   1.000  H
  H85      1.0000 0.74820  0.85670  0.59120  Biso   1.000  H
  H86      1.0000 0.25180  0.35670  0.90880  Biso   1.000  H
  H87      1.0000 0.25180  0.14330  0.40880  Biso   1.000  H
  H88      1.0000 0.74820  0.64330  0.09120  Biso   1.000  H
  C57      1.0000 0.70580  0.80340  0.47160  Biso   1.000  C
  C58      1.0000 0.29420  0.30340  0.02840  Biso   1.000  C
  C59      1.0000 0.29420  0.19660  0.52840  Biso   1.000  C
  C60      1.0000 0.70580  0.69660  0.97160  Biso   1.000  C
  H89      1.0000 0.64960  0.82410  0.43500  Biso   1.000  H
  H90      1.0000 0.35040  0.32410  0.06500  Biso   1.000  H
  H91      1.0000 0.35040  0.17590  0.56500  Biso   1.000  H
  H92      1.0000 0.64960  0.67590  0.93500  Biso   1.000  H
  H93      1.0000 0.68200  0.78100  0.53150  Biso   1.000  H
  H94      1.0000 0.31800  0.28100  0.96850  Biso   1.000  H
  H95      1.0000 0.31800  0.21900  0.46850  Biso   1.000  H
  H96      1.0000 0.68200  0.71900  0.03150  Biso   1.000  H
  C61      1.0000 0.74080  0.76630  0.37910  Biso   1.000  C
  C62      1.0000 0.25920  0.26630  0.12090  Biso   1.000  C
  C63      1.0000 0.25920  0.23370  0.62090  Biso   1.000  C
  C64      1.0000 0.74080  0.73370  0.87910  Biso   1.000  C
  H97      1.0000 0.76930  0.78820  0.32180  Biso   1.000  H
  H98      1.0000 0.23070  0.28820  0.17820  Biso   1.000  H
  H99      1.0000 0.23070  0.21180  0.67820  Biso   1.000  H
  H100     1.0000 0.76930  0.71180  0.82180  Biso   1.000  H
  H101     1.0000 0.68380  0.74750  0.33880  Biso   1.000  H
  H102     1.0000 0.31620  0.24750  0.16120  Biso   1.000  H
  H103     1.0000 0.31620  0.25250  0.66120  Biso   1.000  H
  H104     1.0000 0.68380  0.75250  0.83880  Biso   1.000  H
  C65      1.0000 0.81820  0.72430  0.42960  Biso   1.000  C
  C66      1.0000 0.18180  0.22430  0.07040  Biso   1.000  C
  C67      1.0000 0.18180  0.27570  0.57040  Biso   1.000  C
  C68      1.0000 0.81820  0.77570  0.92960  Biso   1.000  C
  H105     1.0000 0.87870  0.74240  0.46240  Biso   1.000  H
  H106     1.0000 0.12130  0.24240  0.03760  Biso   1.000  H
  H107     1.0000 0.12130  0.25760  0.53760  Biso   1.000  H
  H108     1.0000 0.87870  0.75760  0.96240  Biso   1.000  H
  H109     1.0000 0.79290  0.70410  0.49180  Biso   1.000  H
  H110     1.0000 0.20710  0.20410  0.00820  Biso   1.000  H
  H111     1.0000 0.20710  0.29590  0.50820  Biso   1.000  H
  H112     1.0000 0.79290  0.79590  0.99180  Biso   1.000  H
  C69      1.0000 0.84030  0.68620  0.33370  Biso   1.000  C
  C70      1.0000 0.15970  0.18620  0.16630  Biso   1.000  C
  C71      1.0000 0.15970  0.31380  0.66630  Biso   1.000  C
  C72      1.0000 0.84030  0.81380  0.83370  Biso   1.000  C
  H113     1.0000 0.77860  0.66980  0.29880  Biso   1.000  H
  H114     1.0000 0.22140  0.16980  0.20120  Biso   1.000  H
  H115     1.0000 0.22140  0.33020  0.70120  Biso   1.000  H
  H116     1.0000 0.77860  0.83020  0.79880  Biso   1.000  H
  H117     1.0000 0.86710  0.70670  0.27310  Biso   1.000  H
  H118     1.0000 0.13290  0.20670  0.22690  Biso   1.000  H
  H119     1.0000 0.13290  0.29330  0.72690  Biso   1.000  H
  H120     1.0000 0.86710  0.79330  0.77310  Biso   1.000  H
  C73      1.0000 0.89340  0.59380  0.40900  Biso   1.000  C
  C74      1.0000 0.10660  0.09380  0.09100  Biso   1.000  C
  C75      1.0000 0.10660  0.40620  0.59100  Biso   1.000  C
  C76      1.0000 0.89340  0.90620  0.90900  Biso   1.000  C
  H121     1.0000 0.83120  0.57800  0.40890  Biso   1.000  H
  H122     1.0000 0.16880  0.07800  0.09110  Biso   1.000  H
  H123     1.0000 0.16880  0.42200  0.59110  Biso   1.000  H
  H124     1.0000 0.83120  0.92200  0.90890  Biso   1.000  H
  C77      1.0000 0.04560  0.60800  0.42680  Biso   1.000  C
  C78      1.0000 0.95440  0.10800  0.07320  Biso   1.000  C
  C79      1.0000 0.95440  0.39200  0.57320  Biso   1.000  C
  C80      1.0000 0.04560  0.89200  0.92680  Biso   1.000  C
  H125     1.0000 0.11340  0.60130  0.44190  Biso   1.000  H
  H126     1.0000 0.88660  0.10130  0.05810  Biso   1.000  H
  H127     1.0000 0.88660  0.39870  0.55810  Biso   1.000  H
  H128     1.0000 0.11340  0.89870  0.94190  Biso   1.000  H
  N1       1.0000 0.57610  0.32280  0.07430  Biso   1.000  N
  N2       1.0000 0.42390  0.82280  0.42570  Biso   1.000  N
  N3       1.0000 0.42390  0.67720  0.92570  Biso   1.000  N
  N4       1.0000 0.57610  0.17720  0.57430  Biso   1.000  N
  N5       1.0000 0.54410  0.27330  0.03620  Biso   1.000  N
  N6       1.0000 0.45590  0.77330  0.46380  Biso   1.000  N
  N7       1.0000 0.45590  0.72670  0.96380  Biso   1.000  N
  N8       1.0000 0.54410  0.22670  0.53620  Biso   1.000  N
  N9       1.0000 0.54700  0.22220  0.72710  Biso   1.000  N
  N10      1.0000 0.45300  0.72220  0.77290  Biso   1.000  N
  N11      1.0000 0.45300  0.77780  0.27290  Biso   1.000  N
  N12      1.0000 0.54700  0.27780  0.22710  Biso   1.000  N
  N13      1.0000 0.93400  0.19700  0.79710  Biso   1.000  N
  N14      1.0000 0.06600  0.69700  0.70290  Biso   1.000  N
  N15      1.0000 0.06600  0.80300  0.20290  Biso   1.000  N
  N16      1.0000 0.93400  0.30300  0.29710  Biso   1.000  N
  N17      1.0000 0.03160  0.19790  0.81700  Biso   1.000  N
  N18      1.0000 0.96840  0.69790  0.68300  Biso   1.000  N
  N19      1.0000 0.96840  0.80210  0.18300  Biso   1.000  N
  N20      1.0000 0.03160  0.30210  0.31700  Biso   1.000  N
  N21      1.0000 0.97740  0.11430  0.77750  Biso   1.000  N
  N22      1.0000 0.02260  0.61430  0.72250  Biso   1.000  N
  N23      1.0000 0.02260  0.88570  0.22250  Biso   1.000  N
  N24      1.0000 0.97740  0.38570  0.27750  Biso   1.000  N
  N25      1.0000 0.94830  0.97800  0.63330  Biso   1.000  N
  N26      1.0000 0.05170  0.47800  0.86670  Biso   1.000  N
  N27      1.0000 0.05170  0.02200  0.36670  Biso   1.000  N
  N28      1.0000 0.94830  0.52200  0.13330  Biso   1.000  N
  N29      1.0000 0.87990  0.91750  0.51920  Biso   1.000  N
  N30      1.0000 0.12010  0.41750  0.98080  Biso   1.000  N
  N31      1.0000 0.12010  0.08250  0.48080  Biso   1.000  N
  N32      1.0000 0.87990  0.58250  0.01920  Biso   1.000  N
  N33      1.0000 0.97430  0.90160  0.54730  Biso   1.000  N
  N34      1.0000 0.02570  0.40160  0.95270  Biso   1.000  N
  N35      1.0000 0.02570  0.09840  0.45270  Biso   1.000  N
  N36      1.0000 0.97430  0.59840  0.04730  Biso   1.000  N
  N37      1.0000 0.90980  0.64370  0.37420  Biso   1.000  N
  N38      1.0000 0.09020  0.14370  0.12580  Biso   1.000  N
  N39      1.0000 0.09020  0.35630  0.62580  Biso   1.000  N
  N40      1.0000 0.90980  0.85630  0.87420  Biso   1.000  N
  N41      1.0000 0.01140  0.65350  0.38900  Biso   1.000  N
  N42      1.0000 0.98860  0.15350  0.11100  Biso   1.000  N
  N43      1.0000 0.98860  0.34650  0.61100  Biso   1.000  N
  N44      1.0000 0.01140  0.84650  0.88900  Biso   1.000  N
  N45      1.0000 0.97800  0.57020  0.44330  Biso   1.000  N
  N46      1.0000 0.02200  0.07020  0.05670  Biso   1.000  N
  N47      1.0000 0.02200  0.42980  0.55670  Biso   1.000  N
  N48      1.0000 0.97800  0.92980  0.94330  Biso   1.000  N
