data_image0
_cell_length_a       14.1589
_cell_length_b       14.1589
_cell_length_c       4.4486
_cell_angle_alpha    90
_cell_angle_beta     90
_cell_angle_gamma    90

_symmetry_space_group_name_H-M    "P 1"
_symmetry_int_tables_number       1

loop_
  _symmetry_equiv_pos_as_xyz
  'x, y, z'

loop_
  _atom_site_label
  _atom_site_occupancy
  _atom_site_fract_x
  _atom_site_fract_y
  _atom_site_fract_z
  _atom_site_thermal_displace_type
  _atom_site_B_iso_or_equiv
  _atom_site_type_symbol
  Cu1      1.0000 0.39795  0.51176  0.78466  Biso   1.000  Cu
  Cu2      1.0000 0.48824  0.89795  0.28466  Biso   1.000  Cu
  Cu3      1.0000 0.01176  0.60205  0.28466  Biso   1.000  Cu
  Cu4      1.0000 0.10205  0.98824  0.78466  Biso   1.000  Cu
  Cu5      1.0000 0.60205  0.48824  0.21534  Biso   1.000  Cu
  Cu6      1.0000 0.51176  0.10205  0.71534  Biso   1.000  Cu
  Cu7      1.0000 0.98824  0.39795  0.71534  Biso   1.000  Cu
  Cu8      1.0000 0.89795  0.01176  0.21534  Biso   1.000  Cu
  C1       1.0000 0.55444  0.69572  0.27020  Biso   1.000  C
  C2       1.0000 0.30428  0.05444  0.77020  Biso   1.000  C
  C3       1.0000 0.19572  0.44556  0.77020  Biso   1.000  C
  C4       1.0000 0.94556  0.80428  0.27020  Biso   1.000  C
  C5       1.0000 0.44556  0.30428  0.72980  Biso   1.000  C
  C6       1.0000 0.69572  0.94556  0.22980  Biso   1.000  C
  C7       1.0000 0.80428  0.55444  0.22980  Biso   1.000  C
  C8       1.0000 0.05444  0.19572  0.72980  Biso   1.000  C
  N1       1.0000 0.45844  0.62231  0.96700  Biso   1.000  N
  N2       1.0000 0.37769  0.95844  0.46700  Biso   1.000  N
  N3       1.0000 0.12231  0.54156  0.46700  Biso   1.000  N
  N4       1.0000 0.04156  0.87769  0.96700  Biso   1.000  N
  N5       1.0000 0.54156  0.37769  0.03300  Biso   1.000  N
  N6       1.0000 0.62231  0.04156  0.53300  Biso   1.000  N
  N7       1.0000 0.87769  0.45844  0.53300  Biso   1.000  N
  N8       1.0000 0.95844  0.12231  0.03300  Biso   1.000  N
  N9       1.0000 0.53440  0.61017  0.16890  Biso   1.000  N
  N10      1.0000 0.38983  0.03440  0.66890  Biso   1.000  N
  N11      1.0000 0.11017  0.46560  0.66890  Biso   1.000  N
  N12      1.0000 0.96560  0.88983  0.16890  Biso   1.000  N
  N13      1.0000 0.46560  0.38983  0.83110  Biso   1.000  N
  N14      1.0000 0.61017  0.96560  0.33110  Biso   1.000  N
  N15      1.0000 0.88983  0.53440  0.33110  Biso   1.000  N
  N16      1.0000 0.03440  0.11017  0.83110  Biso   1.000  N
  N17      1.0000 0.62411  0.71358  0.47950  Biso   1.000  N
  N18      1.0000 0.28642  0.12411  0.97950  Biso   1.000  N
  N19      1.0000 0.21358  0.37589  0.97950  Biso   1.000  N
  N20      1.0000 0.87589  0.78642  0.47950  Biso   1.000  N
  N21      1.0000 0.37589  0.28642  0.52050  Biso   1.000  N
  N22      1.0000 0.71358  0.87589  0.02050  Biso   1.000  N
  N23      1.0000 0.78642  0.62411  0.02050  Biso   1.000  N
  N24      1.0000 0.12411  0.21358  0.52050  Biso   1.000  N
  H1       1.0000 0.65710  0.66780  0.55090  Biso   1.000  H
  H2       1.0000 0.33220  0.15710  0.05090  Biso   1.000  H
  H3       1.0000 0.16780  0.34290  0.05090  Biso   1.000  H
  H4       1.0000 0.84290  0.83220  0.55090  Biso   1.000  H
  H5       1.0000 0.34290  0.33220  0.44910  Biso   1.000  H
  H6       1.0000 0.66780  0.84290  0.94910  Biso   1.000  H
  H7       1.0000 0.83220  0.65710  0.94910  Biso   1.000  H
  H8       1.0000 0.15710  0.16780  0.44910  Biso   1.000  H
  H9       1.0000 0.63450  0.77050  0.53840  Biso   1.000  H
  H10      1.0000 0.22950  0.13450  0.03840  Biso   1.000  H
  H11      1.0000 0.27050  0.36550  0.03840  Biso   1.000  H
  H12      1.0000 0.86550  0.72950  0.53840  Biso   1.000  H
  H13      1.0000 0.36550  0.22950  0.46160  Biso   1.000  H
  H14      1.0000 0.77050  0.86550  0.96160  Biso   1.000  H
  H15      1.0000 0.72950  0.63450  0.96160  Biso   1.000  H
  H16      1.0000 0.13450  0.27050  0.46160  Biso   1.000  H
  C9       1.0000 0.44112  0.71483  0.96550  Biso   1.000  C
  C10      1.0000 0.28517  0.94112  0.46550  Biso   1.000  C
  C11      1.0000 0.21483  0.55888  0.46550  Biso   1.000  C
  C12      1.0000 0.05888  0.78517  0.96550  Biso   1.000  C
  C13      1.0000 0.55888  0.28517  0.03450  Biso   1.000  C
  C14      1.0000 0.71483  0.05888  0.53450  Biso   1.000  C
  C15      1.0000 0.78517  0.44112  0.53450  Biso   1.000  C
  C16      1.0000 0.94112  0.21483  0.03450  Biso   1.000  C
  N25      1.0000 0.49890  0.76458  0.15050  Biso   1.000  N
  N26      1.0000 0.23542  0.99890  0.65050  Biso   1.000  N
  N27      1.0000 0.26458  0.50110  0.65050  Biso   1.000  N
  N28      1.0000 0.00110  0.73542  0.15050  Biso   1.000  N
  N29      1.0000 0.50110  0.23542  0.84950  Biso   1.000  N
  N30      1.0000 0.76458  0.00110  0.34950  Biso   1.000  N
  N31      1.0000 0.73542  0.49890  0.34950  Biso   1.000  N
  N32      1.0000 0.99890  0.26458  0.84950  Biso   1.000  N
  N33      1.0000 0.36857  0.75692  0.81210  Biso   1.000  N
  N34      1.0000 0.24308  0.86857  0.31210  Biso   1.000  N
  N35      1.0000 0.25692  0.63143  0.31210  Biso   1.000  N
  N36      1.0000 0.13143  0.74308  0.81210  Biso   1.000  N
  N37      1.0000 0.63143  0.24308  0.18790  Biso   1.000  N
  N38      1.0000 0.75692  0.13143  0.68790  Biso   1.000  N
  N39      1.0000 0.74308  0.36857  0.68790  Biso   1.000  N
  N40      1.0000 0.86857  0.25692  0.18790  Biso   1.000  N
  H17      1.0000 0.33030  0.72310  0.70740  Biso   1.000  H
  H18      1.0000 0.27690  0.83030  0.20740  Biso   1.000  H
  H19      1.0000 0.22310  0.66970  0.20740  Biso   1.000  H
  H20      1.0000 0.16970  0.77690  0.70740  Biso   1.000  H
  H21      1.0000 0.66970  0.27690  0.29260  Biso   1.000  H
  H22      1.0000 0.72310  0.16970  0.79260  Biso   1.000  H
  H23      1.0000 0.77690  0.33030  0.79260  Biso   1.000  H
  H24      1.0000 0.83030  0.22310  0.29260  Biso   1.000  H
  H25      1.0000 0.36130  0.81720  0.82050  Biso   1.000  H
  H26      1.0000 0.18280  0.86130  0.32050  Biso   1.000  H
  H27      1.0000 0.31720  0.63870  0.32050  Biso   1.000  H
  H28      1.0000 0.13870  0.68280  0.82050  Biso   1.000  H
  H29      1.0000 0.63870  0.18280  0.17950  Biso   1.000  H
  H30      1.0000 0.81720  0.13870  0.67950  Biso   1.000  H
  H31      1.0000 0.68280  0.36130  0.67950  Biso   1.000  H
  H32      1.0000 0.86130  0.31720  0.17950  Biso   1.000  H
