data_image0
_cell_length_a       11.1348
_cell_length_b       11.3764
_cell_length_c       11.8118
_cell_angle_alpha    77.301
_cell_angle_beta     63.058
_cell_angle_gamma    86.558

_symmetry_space_group_name_H-M    "P 1"
_symmetry_int_tables_number       1

loop_
  _symmetry_equiv_pos_as_xyz
  'x, y, z'

loop_
  _atom_site_label
  _atom_site_occupancy
  _atom_site_fract_x
  _atom_site_fract_y
  _atom_site_fract_z
  _atom_site_thermal_displace_type
  _atom_site_B_iso_or_equiv
  _atom_site_type_symbol
  P1       1.0000 0.00000  0.00000  0.00000  Biso   1.000  P
  Mo1      1.0000 0.65892  0.95856  0.24560  Biso   1.000  Mo
  Mo2      1.0000 0.34108  0.04144  0.75440  Biso   1.000  Mo
  Mo3      1.0000 0.76382  0.22539  0.99727  Biso   1.000  Mo
  Mo4      1.0000 0.23618  0.77461  0.00273  Biso   1.000  Mo
  Mo5      1.0000 0.90050  0.73909  0.25459  Biso   1.000  Mo
  Mo6      1.0000 0.09950  0.26091  0.74541  Biso   1.000  Mo
  Mo7      1.0000 0.91954  0.02590  0.32083  Biso   1.000  Mo
  Mo8      1.0000 0.08046  0.97410  0.67917  Biso   1.000  Mo
  Mo9      1.0000 0.73702  0.94265  0.92264  Biso   1.000  Mo
  Mo10     1.0000 0.26298  0.05735  0.07736  Biso   1.000  Mo
  Mo11     1.0000 0.03343  0.28616  0.06332  Biso   1.000  Mo
  Mo12     1.0000 0.96657  0.71384  0.93668  Biso   1.000  Mo
  Cu1      1.0000 0.88584  0.38031  0.37939  Biso   1.000  Cu
  Cu2      1.0000 0.11416  0.61969  0.62061  Biso   1.000  Cu
  Cu3      1.0000 0.43986  0.53387  0.24624  Biso   1.000  Cu
  Cu4      1.0000 0.56014  0.46613  0.75376  Biso   1.000  Cu
  O1       1.0000 0.88150  0.03820  0.47120  Biso   1.000  O
  O2       1.0000 0.11850  0.96180  0.52880  Biso   1.000  O
  O3       1.0000 0.92470  0.85700  0.33730  Biso   1.000  O
  O4       1.0000 0.07530  0.14300  0.66270  Biso   1.000  O
  O5       1.0000 0.85340  0.61830  0.37710  Biso   1.000  O
  O6       1.0000 0.14660  0.38170  0.62290  Biso   1.000  O
  O7       1.0000 0.61390  0.91270  0.88990  Biso   1.000  O
  O8       1.0000 0.38610  0.08730  0.11010  Biso   1.000  O
  O9       1.0000 0.94250  0.19060  0.23450  Biso   1.000  O
  O10      1.0000 0.05750  0.80940  0.76550  Biso   1.000  O
  O11      1.0000 0.66310  0.12250  0.15920  Biso   1.000  O
  O12      1.0000 0.33690  0.87750  0.84080  Biso   1.000  O
  O13      1.0000 0.74850  0.01980  0.32920  Biso   1.000  O
  O14      1.0000 0.25150  0.98020  0.67080  Biso   1.000  O
  O15      1.0000 0.64520  0.90940  0.11060  Biso   1.000  O
  O16      1.0000 0.35480  0.09060  0.88940  Biso   1.000  O
  O17      1.0000 0.50130  0.94240  0.36210  Biso   1.000  O
  O18      1.0000 0.49870  0.05760  0.63790  Biso   1.000  O
  O19      1.0000 0.85980  0.29300  0.06160  Biso   1.000  O
  O20      1.0000 0.14020  0.70700  0.93840  Biso   1.000  O
  O21      1.0000 0.11440  0.02670  0.24180  Biso   1.000  O
  O22      1.0000 0.88560  0.97330  0.75820  Biso   1.000  O
  O23      1.0000 0.73060  0.80750  0.28390  Biso   1.000  O
  O24      1.0000 0.26940  0.19250  0.71610  Biso   1.000  O
  O25      1.0000 0.91050  0.27140  0.82500  Biso   1.000  O
  O26      1.0000 0.08950  0.72860  0.17500  Biso   1.000  O
  O27      1.0000 0.04280  0.06670  0.08320  Biso   1.000  O
  O28      1.0000 0.95720  0.93330  0.91680  Biso   1.000  O
  O29      1.0000 0.72260  0.10470  0.92220  Biso   1.000  O
  O30      1.0000 0.27740  0.89530  0.07780  Biso   1.000  O
  O31      1.0000 0.04700  0.41990  0.09270  Biso   1.000  O
  O32      1.0000 0.95300  0.58010  0.90730  Biso   1.000  O
  O33      1.0000 0.80500  0.78210  0.94910  Biso   1.000  O
  O34      1.0000 0.19500  0.21790  0.05090  Biso   1.000  O
  O35      1.0000 0.89210  0.67860  0.12350  Biso   1.000  O
  O36      1.0000 0.10790  0.32140  0.87650  Biso   1.000  O
  O37      1.0000 0.65500  0.32990  0.99150  Biso   1.000  O
  O38      1.0000 0.34500  0.67010  0.00850  Biso   1.000  O
  O39      1.0000 0.97750  0.13470  0.96300  Biso   1.000  O
  O40      1.0000 0.02250  0.86530  0.03700  Biso   1.000  O
  O41      1.0000 0.14310  0.97720  0.96830  Biso   1.000  O
  O42      1.0000 0.85690  0.02280  0.03170  Biso   1.000  O
  O43      1.0000 0.90420  0.95040  0.14270  Biso   1.000  O
  O44      1.0000 0.09580  0.04960  0.85730  Biso   1.000  O
  O45      1.0000 0.44490  0.70660  0.26560  Biso   1.000  O
  O46      1.0000 0.55510  0.29340  0.73440  Biso   1.000  O
  O47      1.0000 0.59830  0.57410  0.03770  Biso   1.000  O
  O48      1.0000 0.40170  0.42590  0.96230  Biso   1.000  O
  O49      1.0000 0.80880  0.21450  0.63010  Biso   1.000  O
  O50      1.0000 0.19120  0.78550  0.36990  Biso   1.000  O
  N1       1.0000 0.53890  0.30960  0.37570  Biso   1.000  N
  N2       1.0000 0.46110  0.69040  0.62430  Biso   1.000  N
  N3       1.0000 0.71960  0.37500  0.37360  Biso   1.000  N
  N4       1.0000 0.28040  0.62500  0.62640  Biso   1.000  N
  N5       1.0000 0.06310  0.37880  0.36240  Biso   1.000  N
  N6       1.0000 0.93690  0.62120  0.63760  Biso   1.000  N
  N7       1.0000 0.54750  0.43030  0.32930  Biso   1.000  N
  N8       1.0000 0.45250  0.56970  0.67070  Biso   1.000  N
  N9       1.0000 0.26600  0.32000  0.31640  Biso   1.000  N
  N10      1.0000 0.73400  0.68000  0.68360  Biso   1.000  N
  N11      1.0000 0.27470  0.44300  0.29330  Biso   1.000  N
  N12      1.0000 0.72530  0.55700  0.70670  Biso   1.000  N
  C1       1.0000 0.64200  0.27890  0.40140  Biso   1.000  C
  C2       1.0000 0.35800  0.72110  0.59860  Biso   1.000  C
  C3       1.0000 0.65720  0.46390  0.33030  Biso   1.000  C
  C4       1.0000 0.34280  0.53610  0.66970  Biso   1.000  C
  C5       1.0000 0.14960  0.47350  0.32220  Biso   1.000  C
  C6       1.0000 0.85040  0.52650  0.67780  Biso   1.000  C
  C7       1.0000 0.42350  0.23250  0.40390  Biso   1.000  C
  C8       1.0000 0.57650  0.76750  0.59610  Biso   1.000  C
  C9       1.0000 0.14020  0.28380  0.35760  Biso   1.000  C
  C10      1.0000 0.85980  0.71620  0.64240  Biso   1.000  C
  C11      1.0000 0.38460  0.24690  0.29590  Biso   1.000  C
  C12      1.0000 0.61540  0.75310  0.70410  Biso   1.000  C
  H1       1.0000 0.13300  0.55700  0.30200  Biso   1.000  H
  H2       1.0000 0.86700  0.44300  0.69800  Biso   1.000  H
  H3       1.0000 0.46200  0.15000  0.42300  Biso   1.000  H
  H4       1.0000 0.53800  0.85000  0.57700  Biso   1.000  H
  H5       1.0000 0.34800  0.25100  0.48300  Biso   1.000  H
  H6       1.0000 0.65200  0.74900  0.51700  Biso   1.000  H
  H7       1.0000 0.36100  0.16600  0.28800  Biso   1.000  H
  H8       1.0000 0.63900  0.83400  0.71200  Biso   1.000  H
  H9       1.0000 0.65400  0.18600  0.44000  Biso   1.000  H
  H10      1.0000 0.34600  0.81400  0.56000  Biso   1.000  H
  H11      1.0000 0.11300  0.20300  0.37300  Biso   1.000  H
  H12      1.0000 0.88700  0.79700  0.62700  Biso   1.000  H
  H13      1.0000 0.44900  0.27400  0.21900  Biso   1.000  H
  H14      1.0000 0.55100  0.72600  0.78100  Biso   1.000  H
  H15      1.0000 0.67400  0.53900  0.32600  Biso   1.000  H
  H16      1.0000 0.32600  0.46100  0.67400  Biso   1.000  H
