data_image0
_cell_length_a       28.6184
_cell_length_b       7.9221
_cell_length_c       9.0751
_cell_angle_alpha    90
_cell_angle_beta     90
_cell_angle_gamma    90

_symmetry_space_group_name_H-M    "P 1"
_symmetry_int_tables_number       1

loop_
  _symmetry_equiv_pos_as_xyz
  'x, y, z'

loop_
  _atom_site_label
  _atom_site_occupancy
  _atom_site_fract_x
  _atom_site_fract_y
  _atom_site_fract_z
  _atom_site_thermal_displace_type
  _atom_site_B_iso_or_equiv
  _atom_site_type_symbol
  Cu1      1.0000 0.00000  0.50000  0.00000  Biso   1.000  Cu
  Cu2      1.0000 0.50000  0.50000  0.50000  Biso   1.000  Cu
  Cu3      1.0000 0.50000  0.00000  0.50000  Biso   1.000  Cu
  Cu4      1.0000 0.00000  0.00000  0.00000  Biso   1.000  Cu
  Cu5      1.0000 0.78658  0.25000  0.99500  Biso   1.000  Cu
  Cu6      1.0000 0.71342  0.75000  0.49500  Biso   1.000  Cu
  Cu7      1.0000 0.28658  0.25000  0.50500  Biso   1.000  Cu
  Cu8      1.0000 0.21342  0.75000  0.00500  Biso   1.000  Cu
  Cu9      1.0000 0.91255  0.50626  0.24442  Biso   1.000  Cu
  Cu10     1.0000 0.58745  0.49374  0.74442  Biso   1.000  Cu
  Cu11     1.0000 0.41255  0.99374  0.25558  Biso   1.000  Cu
  Cu12     1.0000 0.08745  0.00626  0.75558  Biso   1.000  Cu
  Cu13     1.0000 0.08745  0.49374  0.75558  Biso   1.000  Cu
  Cu14     1.0000 0.41255  0.50626  0.25558  Biso   1.000  Cu
  Cu15     1.0000 0.58745  0.00626  0.74442  Biso   1.000  Cu
  Cu16     1.0000 0.91255  0.99374  0.24442  Biso   1.000  Cu
  Cu17     1.0000 0.96036  0.25000  0.59125  Biso   1.000  Cu
  Cu18     1.0000 0.53964  0.75000  0.09125  Biso   1.000  Cu
  Cu19     1.0000 0.46036  0.25000  0.90875  Biso   1.000  Cu
  Cu20     1.0000 0.03964  0.75000  0.40875  Biso   1.000  Cu
  Cu21     1.0000 0.82331  0.46762  0.65248  Biso   1.000  Cu
  Cu22     1.0000 0.67669  0.53238  0.15248  Biso   1.000  Cu
  Cu23     1.0000 0.32331  0.03238  0.84752  Biso   1.000  Cu
  Cu24     1.0000 0.17669  0.96762  0.34752  Biso   1.000  Cu
  Cu25     1.0000 0.17669  0.53238  0.34752  Biso   1.000  Cu
  Cu26     1.0000 0.32331  0.46762  0.84752  Biso   1.000  Cu
  Cu27     1.0000 0.67669  0.96762  0.15248  Biso   1.000  Cu
  Cu28     1.0000 0.82331  0.03238  0.65248  Biso   1.000  Cu
  Cu29     1.0000 0.69093  0.25000  0.93850  Biso   1.000  Cu
  Cu30     1.0000 0.80907  0.75000  0.43850  Biso   1.000  Cu
  Cu31     1.0000 0.19093  0.25000  0.56150  Biso   1.000  Cu
  Cu32     1.0000 0.30907  0.75000  0.06150  Biso   1.000  Cu
  Br1      1.0000 0.96060  0.25000  0.31550  Biso   1.000  Br
  Br2      1.0000 0.53940  0.75000  0.81550  Biso   1.000  Br
  Br3      1.0000 0.46060  0.25000  0.18450  Biso   1.000  Br
  Br4      1.0000 0.03940  0.75000  0.68450  Biso   1.000  Br
  Br5      1.0000 0.72816  0.25000  0.19943  Biso   1.000  Br
  Br6      1.0000 0.77184  0.75000  0.69943  Biso   1.000  Br
  Br7      1.0000 0.22816  0.25000  0.30057  Biso   1.000  Br
  Br8      1.0000 0.27184  0.75000  0.80057  Biso   1.000  Br
  Br9      1.0000 0.83826  0.47736  0.39164  Biso   1.000  Br
  Br10     1.0000 0.66174  0.52264  0.89164  Biso   1.000  Br
  Br11     1.0000 0.33826  0.02264  0.10836  Biso   1.000  Br
  Br12     1.0000 0.16174  0.97736  0.60836  Biso   1.000  Br
  Br13     1.0000 0.16174  0.52264  0.60836  Biso   1.000  Br
  Br14     1.0000 0.33826  0.47736  0.10836  Biso   1.000  Br
  Br15     1.0000 0.66174  0.97736  0.89164  Biso   1.000  Br
  Br16     1.0000 0.83826  0.02264  0.39164  Biso   1.000  Br
  Br17     1.0000 0.76218  0.25000  0.71215  Biso   1.000  Br
  Br18     1.0000 0.73782  0.75000  0.21215  Biso   1.000  Br
  Br19     1.0000 0.26218  0.25000  0.78785  Biso   1.000  Br
  Br20     1.0000 0.23782  0.75000  0.28785  Biso   1.000  Br
  Br21     1.0000 0.95188  0.75000  0.35296  Biso   1.000  Br
  Br22     1.0000 0.54812  0.25000  0.85296  Biso   1.000  Br
  Br23     1.0000 0.45188  0.75000  0.14704  Biso   1.000  Br
  Br24     1.0000 0.04812  0.25000  0.64704  Biso   1.000  Br
  C1       1.0000 0.86280  0.49330  0.95240  Biso   1.000  C
  C2       1.0000 0.63720  0.50670  0.45240  Biso   1.000  C
  C3       1.0000 0.36280  0.00670  0.54760  Biso   1.000  C
  C4       1.0000 0.13720  0.99330  0.04760  Biso   1.000  C
  C5       1.0000 0.13720  0.50670  0.04760  Biso   1.000  C
  C6       1.0000 0.36280  0.49330  0.54760  Biso   1.000  C
  C7       1.0000 0.63720  0.99330  0.45240  Biso   1.000  C
  C8       1.0000 0.86280  0.00670  0.95240  Biso   1.000  C
  C9       1.0000 0.91780  0.49110  0.79860  Biso   1.000  C
  C10      1.0000 0.58220  0.50890  0.29860  Biso   1.000  C
  C11      1.0000 0.41780  0.00890  0.70140  Biso   1.000  C
  C12      1.0000 0.08220  0.99110  0.20140  Biso   1.000  C
  C13      1.0000 0.08220  0.50890  0.20140  Biso   1.000  C
  C14      1.0000 0.41780  0.49110  0.70140  Biso   1.000  C
  C15      1.0000 0.58220  0.99110  0.29860  Biso   1.000  C
  C16      1.0000 0.91780  0.00890  0.79860  Biso   1.000  C
  H1       1.0000 0.82100  0.50900  0.10200  Biso   1.000  H
  H2       1.0000 0.67900  0.49100  0.60200  Biso   1.000  H
  H3       1.0000 0.32100  0.99100  0.39800  Biso   1.000  H
  H4       1.0000 0.17900  0.00900  0.89800  Biso   1.000  H
  H5       1.0000 0.17900  0.49100  0.89800  Biso   1.000  H
  H6       1.0000 0.32100  0.50900  0.39800  Biso   1.000  H
  H7       1.0000 0.67900  0.00900  0.60200  Biso   1.000  H
  H8       1.0000 0.82100  0.99100  0.10200  Biso   1.000  H
  H9       1.0000 0.80100  0.56100  0.96500  Biso   1.000  H
  H10      1.0000 0.69900  0.43900  0.46500  Biso   1.000  H
  H11      1.0000 0.30100  0.93900  0.53500  Biso   1.000  H
  H12      1.0000 0.19900  0.06100  0.03500  Biso   1.000  H
  H13      1.0000 0.19900  0.43900  0.03500  Biso   1.000  H
  H14      1.0000 0.30100  0.56100  0.53500  Biso   1.000  H
  H15      1.0000 0.69900  0.06100  0.46500  Biso   1.000  H
  H16      1.0000 0.80100  0.93900  0.96500  Biso   1.000  H
  H17      1.0000 0.96700  0.55100  0.67900  Biso   1.000  H
  H18      1.0000 0.53300  0.44900  0.17900  Biso   1.000  H
  H19      1.0000 0.46700  0.94900  0.82100  Biso   1.000  H
  H20      1.0000 0.03300  0.05100  0.32100  Biso   1.000  H
  H21      1.0000 0.03300  0.44900  0.32100  Biso   1.000  H
  H22      1.0000 0.46700  0.55100  0.82100  Biso   1.000  H
  H23      1.0000 0.53300  0.05100  0.17900  Biso   1.000  H
  H24      1.0000 0.96700  0.94900  0.67900  Biso   1.000  H
  H25      1.0000 0.92200  0.54100  0.60400  Biso   1.000  H
  H26      1.0000 0.57800  0.45900  0.10400  Biso   1.000  H
  H27      1.0000 0.42200  0.95900  0.89600  Biso   1.000  H
  H28      1.0000 0.07800  0.04100  0.39600  Biso   1.000  H
  H29      1.0000 0.07800  0.45900  0.39600  Biso   1.000  H
  H30      1.0000 0.42200  0.54100  0.89600  Biso   1.000  H
  H31      1.0000 0.57800  0.04100  0.10400  Biso   1.000  H
  H32      1.0000 0.92200  0.95900  0.60400  Biso   1.000  H
  N1       1.0000 0.90122  0.50100  0.03220  Biso   1.000  N
  N2       1.0000 0.59878  0.49900  0.53220  Biso   1.000  N
  N3       1.0000 0.40122  0.99900  0.46780  Biso   1.000  N
  N4       1.0000 0.09878  0.00100  0.96780  Biso   1.000  N
  N5       1.0000 0.09878  0.49900  0.96780  Biso   1.000  N
  N6       1.0000 0.40122  0.50100  0.46780  Biso   1.000  N
  N7       1.0000 0.59878  0.00100  0.53220  Biso   1.000  N
  N8       1.0000 0.90122  0.99900  0.03220  Biso   1.000  N
  N9       1.0000 0.93852  0.49740  0.93110  Biso   1.000  N
  N10      1.0000 0.56148  0.50260  0.43110  Biso   1.000  N
  N11      1.0000 0.43852  0.00260  0.56890  Biso   1.000  N
  N12      1.0000 0.06148  0.99740  0.06890  Biso   1.000  N
  N13      1.0000 0.06148  0.50260  0.06890  Biso   1.000  N
  N14      1.0000 0.43852  0.49740  0.56890  Biso   1.000  N
  N15      1.0000 0.56148  0.99740  0.43110  Biso   1.000  N
  N16      1.0000 0.93852  0.00260  0.93110  Biso   1.000  N
  N17      1.0000 0.87124  0.48710  0.80660  Biso   1.000  N
  N18      1.0000 0.62876  0.51290  0.30660  Biso   1.000  N
  N19      1.0000 0.37124  0.01290  0.69340  Biso   1.000  N
  N20      1.0000 0.12876  0.98710  0.19340  Biso   1.000  N
  N21      1.0000 0.12876  0.51290  0.19340  Biso   1.000  N
  N22      1.0000 0.37124  0.48710  0.69340  Biso   1.000  N
  N23      1.0000 0.62876  0.98710  0.30660  Biso   1.000  N
  N24      1.0000 0.87124  0.01290  0.80660  Biso   1.000  N
  N25      1.0000 0.81784  0.48580  0.01060  Biso   1.000  N
  N26      1.0000 0.68216  0.51420  0.51060  Biso   1.000  N
  N27      1.0000 0.31784  0.01420  0.48940  Biso   1.000  N
  N28      1.0000 0.18216  0.98580  0.98940  Biso   1.000  N
  N29      1.0000 0.18216  0.51420  0.98940  Biso   1.000  N
  N30      1.0000 0.31784  0.48580  0.48940  Biso   1.000  N
  N31      1.0000 0.68216  0.98580  0.51060  Biso   1.000  N
  N32      1.0000 0.81784  0.01420  0.01060  Biso   1.000  N
  N33      1.0000 0.94230  0.48560  0.66580  Biso   1.000  N
  N34      1.0000 0.55770  0.51440  0.16580  Biso   1.000  N
  N35      1.0000 0.44230  0.01440  0.83420  Biso   1.000  N
  N36      1.0000 0.05770  0.98560  0.33420  Biso   1.000  N
  N37      1.0000 0.05770  0.51440  0.33420  Biso   1.000  N
  N38      1.0000 0.44230  0.48560  0.83420  Biso   1.000  N
  N39      1.0000 0.55770  0.98560  0.16580  Biso   1.000  N
  N40      1.0000 0.94230  0.01440  0.66580  Biso   1.000  N
