data_image0
_cell_length_a       6.751
_cell_length_b       12.758
_cell_length_c       9.911
_cell_angle_alpha    90
_cell_angle_beta     107.818
_cell_angle_gamma    90

_symmetry_space_group_name_H-M    "P 1"
_symmetry_int_tables_number       1

loop_
  _symmetry_equiv_pos_as_xyz
  'x, y, z'

loop_
  _atom_site_label
  _atom_site_occupancy
  _atom_site_fract_x
  _atom_site_fract_y
  _atom_site_fract_z
  _atom_site_thermal_displace_type
  _atom_site_B_iso_or_equiv
  _atom_site_type_symbol
  C1       1.0000 0.63800  0.17330  0.85870  Biso   1.000  C
  C2       1.0000 0.86200  0.67330  0.64130  Biso   1.000  C
  C3       1.0000 0.36200  0.82670  0.14130  Biso   1.000  C
  C4       1.0000 0.13800  0.32670  0.35870  Biso   1.000  C
  C5       1.0000 0.56840  0.08270  0.93320  Biso   1.000  C
  C6       1.0000 0.93160  0.58270  0.56680  Biso   1.000  C
  C7       1.0000 0.43160  0.91730  0.06680  Biso   1.000  C
  C8       1.0000 0.06840  0.41730  0.43320  Biso   1.000  C
  C9       1.0000 0.64620  0.98160  0.92790  Biso   1.000  C
  C10      1.0000 0.85380  0.48160  0.57210  Biso   1.000  C
  C11      1.0000 0.35380  0.01840  0.07210  Biso   1.000  C
  C12      1.0000 0.14620  0.51840  0.42790  Biso   1.000  C
  C13      1.0000 0.42280  0.10140  0.00530  Biso   1.000  C
  C14      1.0000 0.07720  0.60140  0.49470  Biso   1.000  C
  C15      1.0000 0.57720  0.89860  0.99470  Biso   1.000  C
  C16      1.0000 0.92280  0.39860  0.50530  Biso   1.000  C
  C17      1.0000 0.67390  0.96010  0.65600  Biso   1.000  C
  C18      1.0000 0.82610  0.46010  0.84400  Biso   1.000  C
  C19      1.0000 0.32610  0.03990  0.34400  Biso   1.000  C
  C20      1.0000 0.17390  0.53990  0.15600  Biso   1.000  C
  H1       1.0000 0.59930  0.02680  0.63190  Biso   1.000  H
  H2       1.0000 0.90070  0.52680  0.86810  Biso   1.000  H
  H3       1.0000 0.40070  0.97320  0.36810  Biso   1.000  H
  H4       1.0000 0.09930  0.47320  0.13190  Biso   1.000  H
  H5       1.0000 0.76040  0.94900  0.59380  Biso   1.000  H
  H6       1.0000 0.73960  0.44900  0.90620  Biso   1.000  H
  H7       1.0000 0.23960  0.05100  0.40620  Biso   1.000  H
  H8       1.0000 0.26040  0.55100  0.09380  Biso   1.000  H
  H9       1.0000 0.57350  0.90270  0.64330  Biso   1.000  H
  H10      1.0000 0.92650  0.40270  0.85670  Biso   1.000  H
  H11      1.0000 0.42650  0.09730  0.35670  Biso   1.000  H
  H12      1.0000 0.07350  0.59730  0.14330  Biso   1.000  H
  C21      1.0000 0.52230  0.29010  0.15340  Biso   1.000  C
  C22      1.0000 0.97770  0.79010  0.34660  Biso   1.000  C
  C23      1.0000 0.47770  0.70990  0.84660  Biso   1.000  C
  C24      1.0000 0.02230  0.20990  0.65340  Biso   1.000  C
  H13      1.0000 0.52250  0.25460  0.24110  Biso   1.000  H
  H14      1.0000 0.97750  0.75460  0.25890  Biso   1.000  H
  H15      1.0000 0.47750  0.74540  0.75890  Biso   1.000  H
  H16      1.0000 0.02250  0.24540  0.74110  Biso   1.000  H
  H17      1.0000 0.49120  0.36470  0.15980  Biso   1.000  H
  H18      1.0000 0.00880  0.86470  0.34020  Biso   1.000  H
  H19      1.0000 0.50880  0.63530  0.84020  Biso   1.000  H
  H20      1.0000 0.99120  0.13530  0.65980  Biso   1.000  H
  H21      1.0000 0.65930  0.28270  0.13960  Biso   1.000  H
  H22      1.0000 0.84070  0.78270  0.36040  Biso   1.000  H
  H23      1.0000 0.34070  0.71730  0.86040  Biso   1.000  H
  H24      1.0000 0.15930  0.21730  0.63960  Biso   1.000  H
  Cu1      1.0000 0.05392  0.20039  0.09783  Biso   1.000  Cu
  Cu2      1.0000 0.44608  0.70039  0.40217  Biso   1.000  Cu
  Cu3      1.0000 0.94608  0.79961  0.90217  Biso   1.000  Cu
  Cu4      1.0000 0.55392  0.29961  0.59783  Biso   1.000  Cu
  O1       1.0000 0.78970  0.22714  0.92430  Biso   1.000  O
  O2       1.0000 0.71030  0.72714  0.57570  Biso   1.000  O
  O3       1.0000 0.21030  0.77286  0.07570  Biso   1.000  O
  O4       1.0000 0.28970  0.27286  0.42430  Biso   1.000  O
  O5       1.0000 0.52710  0.18595  0.73000  Biso   1.000  O
  O6       1.0000 0.97290  0.68595  0.77000  Biso   1.000  O
  O7       1.0000 0.47290  0.81405  0.27000  Biso   1.000  O
  O8       1.0000 0.02710  0.31405  0.23000  Biso   1.000  O
  S1       1.0000 0.83783  0.96363  0.83877  Biso   1.000  S
  S2       1.0000 0.66217  0.46363  0.66123  Biso   1.000  S
  S3       1.0000 0.16217  0.03637  0.16123  Biso   1.000  S
  S4       1.0000 0.33783  0.53637  0.33877  Biso   1.000  S
  S5       1.0000 0.32535  0.23158  0.00422  Biso   1.000  S
  S6       1.0000 0.17465  0.73158  0.49578  Biso   1.000  S
  S7       1.0000 0.67465  0.76842  0.99578  Biso   1.000  S
  S8       1.0000 0.82535  0.26842  0.50422  Biso   1.000  S
