data_image0
_cell_length_a       15.601
_cell_length_b       12.438
_cell_length_c       12.57
_cell_angle_alpha    90
_cell_angle_beta     110.02
_cell_angle_gamma    90

_symmetry_space_group_name_H-M    "P 1"
_symmetry_int_tables_number       1

loop_
  _symmetry_equiv_pos_as_xyz
  'x, y, z'

loop_
  _atom_site_label
  _atom_site_occupancy
  _atom_site_fract_x
  _atom_site_fract_y
  _atom_site_fract_z
  _atom_site_thermal_displace_type
  _atom_site_B_iso_or_equiv
  _atom_site_type_symbol
  I1       1.0000 0.34673  0.50000  0.39121  Biso   1.000  I
  I2       1.0000 0.65327  0.50000  0.60879  Biso   1.000  I
  I3       1.0000 0.84673  0.00000  0.39121  Biso   1.000  I
  I4       1.0000 0.15327  0.00000  0.60879  Biso   1.000  I
  Cu1      1.0000 0.50000  0.61067  0.50000  Biso   1.000  Cu
  Cu2      1.0000 0.00000  0.11067  0.50000  Biso   1.000  Cu
  Cu3      1.0000 0.50000  0.38933  0.50000  Biso   1.000  Cu
  Cu4      1.0000 0.00000  0.88933  0.50000  Biso   1.000  Cu
  S1       1.0000 0.51684  0.00000  0.17045  Biso   1.000  S
  S2       1.0000 0.48316  0.00000  0.82955  Biso   1.000  S
  S3       1.0000 0.01684  0.50000  0.17045  Biso   1.000  S
  S4       1.0000 0.98316  0.50000  0.82955  Biso   1.000  S
  N1       1.0000 0.53390  0.68450  0.37570  Biso   1.000  N
  N2       1.0000 0.46610  0.68450  0.62430  Biso   1.000  N
  N3       1.0000 0.03390  0.18450  0.37570  Biso   1.000  N
  N4       1.0000 0.96610  0.18450  0.62430  Biso   1.000  N
  N5       1.0000 0.46610  0.31550  0.62430  Biso   1.000  N
  N6       1.0000 0.53390  0.31550  0.37570  Biso   1.000  N
  N7       1.0000 0.96610  0.81550  0.62430  Biso   1.000  N
  N8       1.0000 0.03390  0.81550  0.37570  Biso   1.000  N
  O1       1.0000 0.65480  0.73790  0.06420  Biso   1.000  O
  O2       1.0000 0.34520  0.73790  0.93580  Biso   1.000  O
  O3       1.0000 0.15480  0.23790  0.06420  Biso   1.000  O
  O4       1.0000 0.84520  0.23790  0.93580  Biso   1.000  O
  O5       1.0000 0.34520  0.26210  0.93580  Biso   1.000  O
  O6       1.0000 0.65480  0.26210  0.06420  Biso   1.000  O
  O7       1.0000 0.84520  0.76210  0.93580  Biso   1.000  O
  O8       1.0000 0.15480  0.76210  0.06420  Biso   1.000  O
  O9       1.0000 0.40180  0.50000  0.99100  Biso   1.000  O
  O10      1.0000 0.59820  0.50000  0.00900  Biso   1.000  O
  O11      1.0000 0.90180  0.00000  0.99100  Biso   1.000  O
  O12      1.0000 0.09820  0.00000  0.00900  Biso   1.000  O
  O13      1.0000 0.25200  0.50000  0.73000  Biso   1.000  O
  O14      1.0000 0.74800  0.50000  0.27000  Biso   1.000  O
  O15      1.0000 0.75200  0.00000  0.73000  Biso   1.000  O
  O16      1.0000 0.24800  0.00000  0.27000  Biso   1.000  O
  C1       1.0000 0.49400  0.66020  0.26740  Biso   1.000  C
  C2       1.0000 0.50600  0.66020  0.73260  Biso   1.000  C
  C3       1.0000 0.99400  0.16020  0.26740  Biso   1.000  C
  C4       1.0000 0.00600  0.16020  0.73260  Biso   1.000  C
  C5       1.0000 0.50600  0.33980  0.73260  Biso   1.000  C
  C6       1.0000 0.49400  0.33980  0.26740  Biso   1.000  C
  C7       1.0000 0.00600  0.83980  0.73260  Biso   1.000  C
  C8       1.0000 0.99400  0.83980  0.26740  Biso   1.000  C
  H1       1.0000 0.44330  0.61510  0.24730  Biso   1.000  H
  H2       1.0000 0.55670  0.61510  0.75270  Biso   1.000  H
  H3       1.0000 0.94330  0.11510  0.24730  Biso   1.000  H
  H4       1.0000 0.05670  0.11510  0.75270  Biso   1.000  H
  H5       1.0000 0.55670  0.38490  0.75270  Biso   1.000  H
  H6       1.0000 0.44330  0.38490  0.24730  Biso   1.000  H
  H7       1.0000 0.05670  0.88490  0.75270  Biso   1.000  H
  H8       1.0000 0.94330  0.88490  0.24730  Biso   1.000  H
  C9       1.0000 0.52320  0.69780  0.18330  Biso   1.000  C
  C10      1.0000 0.47680  0.69780  0.81670  Biso   1.000  C
  C11      1.0000 0.02320  0.19780  0.18330  Biso   1.000  C
  C12      1.0000 0.97680  0.19780  0.81670  Biso   1.000  C
  C13      1.0000 0.47680  0.30220  0.81670  Biso   1.000  C
  C14      1.0000 0.52320  0.30220  0.18330  Biso   1.000  C
  C15      1.0000 0.97680  0.80220  0.81670  Biso   1.000  C
  C16      1.0000 0.02320  0.80220  0.18330  Biso   1.000  C
  H9       1.0000 0.49490  0.67530  0.10890  Biso   1.000  H
  H10      1.0000 0.50510  0.67530  0.89110  Biso   1.000  H
  H11      1.0000 0.99490  0.17530  0.10890  Biso   1.000  H
  H12      1.0000 0.00510  0.17530  0.89110  Biso   1.000  H
  H13      1.0000 0.50510  0.32470  0.89110  Biso   1.000  H
  H14      1.0000 0.49490  0.32470  0.10890  Biso   1.000  H
  H15      1.0000 0.00510  0.82470  0.89110  Biso   1.000  H
  H16      1.0000 0.99490  0.82470  0.10890  Biso   1.000  H
  C17      1.0000 0.59490  0.76920  0.20990  Biso   1.000  C
  C18      1.0000 0.40510  0.76920  0.79010  Biso   1.000  C
  C19      1.0000 0.09490  0.26920  0.20990  Biso   1.000  C
  C20      1.0000 0.90510  0.26920  0.79010  Biso   1.000  C
  C21      1.0000 0.40510  0.23080  0.79010  Biso   1.000  C
  C22      1.0000 0.59490  0.23080  0.20990  Biso   1.000  C
  C23      1.0000 0.90510  0.73080  0.79010  Biso   1.000  C
  C24      1.0000 0.09490  0.73080  0.20990  Biso   1.000  C
  C25      1.0000 0.63680  0.79640  0.32170  Biso   1.000  C
  C26      1.0000 0.36320  0.79640  0.67830  Biso   1.000  C
  C27      1.0000 0.13680  0.29640  0.32170  Biso   1.000  C
  C28      1.0000 0.86320  0.29640  0.67830  Biso   1.000  C
  C29      1.0000 0.36320  0.20360  0.67830  Biso   1.000  C
  C30      1.0000 0.63680  0.20360  0.32170  Biso   1.000  C
  C31      1.0000 0.86320  0.70360  0.67830  Biso   1.000  C
  C32      1.0000 0.13680  0.70360  0.32170  Biso   1.000  C
  H17      1.0000 0.68500  0.84510  0.34310  Biso   1.000  H
  H18      1.0000 0.31500  0.84510  0.65690  Biso   1.000  H
  H19      1.0000 0.18500  0.34510  0.34310  Biso   1.000  H
  H20      1.0000 0.81500  0.34510  0.65690  Biso   1.000  H
  H21      1.0000 0.31500  0.15490  0.65690  Biso   1.000  H
  H22      1.0000 0.68500  0.15490  0.34310  Biso   1.000  H
  H23      1.0000 0.81500  0.65490  0.65690  Biso   1.000  H
  H24      1.0000 0.18500  0.65490  0.34310  Biso   1.000  H
  C33      1.0000 0.60580  0.75000  0.40150  Biso   1.000  C
  C34      1.0000 0.39420  0.75000  0.59850  Biso   1.000  C
  C35      1.0000 0.10580  0.25000  0.40150  Biso   1.000  C
  C36      1.0000 0.89420  0.25000  0.59850  Biso   1.000  C
  C37      1.0000 0.39420  0.25000  0.59850  Biso   1.000  C
  C38      1.0000 0.60580  0.25000  0.40150  Biso   1.000  C
  C39      1.0000 0.89420  0.75000  0.59850  Biso   1.000  C
  C40      1.0000 0.10580  0.75000  0.40150  Biso   1.000  C
  H25      1.0000 0.63690  0.76510  0.47750  Biso   1.000  H
  H26      1.0000 0.36310  0.76510  0.52250  Biso   1.000  H
  H27      1.0000 0.13690  0.26510  0.47750  Biso   1.000  H
  H28      1.0000 0.86310  0.26510  0.52250  Biso   1.000  H
  H29      1.0000 0.36310  0.23490  0.52250  Biso   1.000  H
  H30      1.0000 0.63690  0.23490  0.47750  Biso   1.000  H
  H31      1.0000 0.86310  0.73490  0.52250  Biso   1.000  H
  H32      1.0000 0.13690  0.73490  0.47750  Biso   1.000  H
  C41      1.0000 0.63320  0.80440  0.12180  Biso   1.000  C
  C42      1.0000 0.36680  0.80440  0.87820  Biso   1.000  C
  C43      1.0000 0.13320  0.30440  0.12180  Biso   1.000  C
  C44      1.0000 0.86680  0.30440  0.87820  Biso   1.000  C
  C45      1.0000 0.36680  0.19560  0.87820  Biso   1.000  C
  C46      1.0000 0.63320  0.19560  0.12180  Biso   1.000  C
  C47      1.0000 0.86680  0.69560  0.87820  Biso   1.000  C
  C48      1.0000 0.13320  0.69560  0.12180  Biso   1.000  C
  C49      1.0000 0.71430  0.93930  0.05000  Biso   1.000  C
  C50      1.0000 0.28570  0.93930  0.95000  Biso   1.000  C
  C51      1.0000 0.21430  0.43930  0.05000  Biso   1.000  C
  C52      1.0000 0.78570  0.43930  0.95000  Biso   1.000  C
  C53      1.0000 0.28570  0.06070  0.95000  Biso   1.000  C
  C54      1.0000 0.71430  0.06070  0.05000  Biso   1.000  C
  C55      1.0000 0.78570  0.56070  0.95000  Biso   1.000  C
  C56      1.0000 0.21430  0.56070  0.05000  Biso   1.000  C
  H33      1.0000 0.69240  0.91140  0.97330  Biso   1.000  H
  H34      1.0000 0.30760  0.91140  0.02670  Biso   1.000  H
  H35      1.0000 0.19240  0.41140  0.97330  Biso   1.000  H
  H36      1.0000 0.80760  0.41140  0.02670  Biso   1.000  H
  H37      1.0000 0.30760  0.08860  0.02670  Biso   1.000  H
  H38      1.0000 0.69240  0.08860  0.97330  Biso   1.000  H
  H39      1.0000 0.80760  0.58860  0.02670  Biso   1.000  H
  H40      1.0000 0.19240  0.58860  0.97330  Biso   1.000  H
  H41      1.0000 0.77500  0.91140  0.08920  Biso   1.000  H
  H42      1.0000 0.22500  0.91140  0.91080  Biso   1.000  H
  H43      1.0000 0.27500  0.41140  0.08920  Biso   1.000  H
  H44      1.0000 0.72500  0.41140  0.91080  Biso   1.000  H
  H45      1.0000 0.22500  0.08860  0.91080  Biso   1.000  H
  H46      1.0000 0.77500  0.08860  0.08920  Biso   1.000  H
  H47      1.0000 0.72500  0.58860  0.91080  Biso   1.000  H
  H48      1.0000 0.27500  0.58860  0.08920  Biso   1.000  H
  C57      1.0000 0.60820  0.00000  0.13380  Biso   1.000  C
  C58      1.0000 0.39180  0.00000  0.86620  Biso   1.000  C
  C59      1.0000 0.10820  0.50000  0.13380  Biso   1.000  C
  C60      1.0000 0.89180  0.50000  0.86620  Biso   1.000  C
  C61      1.0000 0.18650  0.41300  0.72700  Biso   1.000  C
  C62      1.0000 0.81350  0.41300  0.27300  Biso   1.000  C
  C63      1.0000 0.68650  0.91300  0.72700  Biso   1.000  C
  C64      1.0000 0.31350  0.91300  0.27300  Biso   1.000  C
  C65      1.0000 0.81350  0.58700  0.27300  Biso   1.000  C
  C66      1.0000 0.18650  0.58700  0.72700  Biso   1.000  C
  C67      1.0000 0.31350  0.08700  0.27300  Biso   1.000  C
  C68      1.0000 0.68650  0.08700  0.72700  Biso   1.000  C
  C69      1.0000 0.13400  0.43900  0.61400  Biso   1.000  C
  C70      1.0000 0.86600  0.43900  0.38600  Biso   1.000  C
  C71      1.0000 0.63400  0.93900  0.61400  Biso   1.000  C
  C72      1.0000 0.36600  0.93900  0.38600  Biso   1.000  C
  C73      1.0000 0.86600  0.56100  0.38600  Biso   1.000  C
  C74      1.0000 0.13400  0.56100  0.61400  Biso   1.000  C
  C75      1.0000 0.36600  0.06100  0.38600  Biso   1.000  C
  C76      1.0000 0.63400  0.06100  0.61400  Biso   1.000  C
  N9       1.0000 0.65170  0.91130  0.11020  Biso   1.000  N
  N10      1.0000 0.34830  0.91130  0.88980  Biso   1.000  N
  N11      1.0000 0.15170  0.41130  0.11020  Biso   1.000  N
  N12      1.0000 0.84830  0.41130  0.88980  Biso   1.000  N
  N13      1.0000 0.34830  0.08870  0.88980  Biso   1.000  N
  N14      1.0000 0.65170  0.08870  0.11020  Biso   1.000  N
  N15      1.0000 0.84830  0.58870  0.88980  Biso   1.000  N
  N16      1.0000 0.15170  0.58870  0.11020  Biso   1.000  N
