data_image0
_cell_length_a       5.221
_cell_length_b       6.259
_cell_length_c       9.928
_cell_angle_alpha    90
_cell_angle_beta     93.63
_cell_angle_gamma    90

_symmetry_space_group_name_H-M    "P 1"
_symmetry_int_tables_number       1

loop_
  _symmetry_equiv_pos_as_xyz
  'x, y, z'

loop_
  _atom_site_label
  _atom_site_occupancy
  _atom_site_fract_x
  _atom_site_fract_y
  _atom_site_fract_z
  _atom_site_thermal_displace_type
  _atom_site_B_iso_or_equiv
  _atom_site_type_symbol
  Cu1      1.0000 0.95960  0.25000  0.94440  Biso   1.000  Cu
  Cu2      1.0000 0.04040  0.75000  0.05560  Biso   1.000  Cu
  Cu3      1.0000 0.40160  0.25000  0.07090  Biso   1.000  Cu
  Cu4      1.0000 0.59840  0.75000  0.92910  Biso   1.000  Cu
  C1       1.0000 0.98430  0.25000  0.23000  Biso   1.000  C
  C2       1.0000 0.01570  0.75000  0.77000  Biso   1.000  C
  C3       1.0000 0.86440  0.25000  0.36560  Biso   1.000  C
  C4       1.0000 0.13560  0.75000  0.63440  Biso   1.000  C
  C5       1.0000 0.38000  0.25000  0.78560  Biso   1.000  C
  C6       1.0000 0.62000  0.75000  0.21440  Biso   1.000  C
  C7       1.0000 0.51640  0.25000  0.65260  Biso   1.000  C
  C8       1.0000 0.48360  0.75000  0.34740  Biso   1.000  C
  O1       1.0000 0.83930  0.25000  0.12460  Biso   1.000  O
  O2       1.0000 0.16070  0.75000  0.87540  Biso   1.000  O
  O3       1.0000 0.22510  0.25000  0.23120  Biso   1.000  O
  O4       1.0000 0.77490  0.75000  0.76880  Biso   1.000  O
  O5       1.0000 0.14250  0.25000  0.78300  Biso   1.000  O
  O6       1.0000 0.85750  0.75000  0.21700  Biso   1.000  O
  O7       1.0000 0.52290  0.25000  0.89230  Biso   1.000  O
  O8       1.0000 0.47710  0.75000  0.10770  Biso   1.000  O
