data_image0
_cell_length_a       5.205
_cell_length_b       6.166
_cell_length_c       9.873
_cell_angle_alpha    90
_cell_angle_beta     93.58
_cell_angle_gamma    90

_symmetry_space_group_name_H-M    "P 1"
_symmetry_int_tables_number       1

loop_
  _symmetry_equiv_pos_as_xyz
  'x, y, z'

loop_
  _atom_site_label
  _atom_site_occupancy
  _atom_site_fract_x
  _atom_site_fract_y
  _atom_site_fract_z
  _atom_site_thermal_displace_type
  _atom_site_B_iso_or_equiv
  _atom_site_type_symbol
  Cu1      1.0000 0.60920  0.25000  0.42768  Biso   1.000  Cu
  Cu2      1.0000 0.39080  0.75000  0.57232  Biso   1.000  Cu
  Cu3      1.0000 0.05080  0.25000  0.55445  Biso   1.000  Cu
  Cu4      1.0000 0.94920  0.75000  0.44555  Biso   1.000  Cu
  O1       1.0000 0.48350  0.25000  0.60440  Biso   1.000  O
  O2       1.0000 0.51650  0.75000  0.39560  Biso   1.000  O
  O3       1.0000 0.78160  0.25000  0.26750  Biso   1.000  O
  O4       1.0000 0.21840  0.75000  0.73250  Biso   1.000  O
  O5       1.0000 0.87210  0.25000  0.71570  Biso   1.000  O
  O6       1.0000 0.12790  0.75000  0.28430  Biso   1.000  O
  O7       1.0000 0.17240  0.25000  0.37380  Biso   1.000  O
  O8       1.0000 0.82760  0.75000  0.62620  Biso   1.000  O
  C1       1.0000 0.62750  0.25000  0.71300  Biso   1.000  C
  C2       1.0000 0.37250  0.75000  0.28700  Biso   1.000  C
  C3       1.0000 0.02400  0.25000  0.26680  Biso   1.000  C
  C4       1.0000 0.97600  0.75000  0.73320  Biso   1.000  C
  C5       1.0000 0.49230  0.25000  0.84320  Biso   1.000  C
  C6       1.0000 0.50770  0.75000  0.15680  Biso   1.000  C
  H1       1.0000 0.59400  0.25000  0.91100  Biso   1.000  H
  H2       1.0000 0.40600  0.75000  0.08900  Biso   1.000  H
  H3       1.0000 0.41300  0.11970  0.85040  Biso   1.000  H
  H4       1.0000 0.41300  0.38030  0.85040  Biso   1.000  H
  H5       1.0000 0.58700  0.88030  0.14960  Biso   1.000  H
  H6       1.0000 0.58700  0.61970  0.14960  Biso   1.000  H
  C7       1.0000 0.14310  0.25000  0.13310  Biso   1.000  C
  C8       1.0000 0.85690  0.75000  0.86690  Biso   1.000  C
  H7       1.0000 0.32000  0.25000  0.13800  Biso   1.000  H
  H8       1.0000 0.68000  0.75000  0.86200  Biso   1.000  H
  H9       1.0000 0.09800  0.11200  0.09910  Biso   1.000  H
  H10      1.0000 0.09800  0.38800  0.09910  Biso   1.000  H
  H11      1.0000 0.90200  0.88800  0.90090  Biso   1.000  H
  H12      1.0000 0.90200  0.61200  0.90090  Biso   1.000  H
