data_image0
_cell_length_a       5.757
_cell_length_b       10.467
_cell_length_c       5.864
_cell_angle_alpha    90
_cell_angle_beta     97.91
_cell_angle_gamma    90

_symmetry_space_group_name_H-M    "P 1"
_symmetry_int_tables_number       1

loop_
  _symmetry_equiv_pos_as_xyz
  'x, y, z'

loop_
  _atom_site_label
  _atom_site_occupancy
  _atom_site_fract_x
  _atom_site_fract_y
  _atom_site_fract_z
  _atom_site_thermal_displace_type
  _atom_site_B_iso_or_equiv
  _atom_site_type_symbol
  Cu1      1.0000 0.38698  0.60320  0.94643  Biso   1.000  Cu
  Cu2      1.0000 0.61302  0.10320  0.05357  Biso   1.000  Cu
  S1       1.0000 0.69540  0.60000  0.24180  Biso   1.000  S
  S2       1.0000 0.30460  0.10000  0.75820  Biso   1.000  S
  C1       1.0000 0.56020  0.60180  0.47290  Biso   1.000  C
  C2       1.0000 0.43980  0.10180  0.52710  Biso   1.000  C
  N1       1.0000 0.47440  0.60760  0.63740  Biso   1.000  N
  N2       1.0000 0.52560  0.10760  0.36260  Biso   1.000  N
  N3       1.0000 0.15610  0.75870  0.96270  Biso   1.000  N
  N4       1.0000 0.84390  0.25870  0.03730  Biso   1.000  N
  C3       1.0000 0.00480  0.78720  0.81280  Biso   1.000  C
  C4       1.0000 0.99520  0.28720  0.18720  Biso   1.000  C
  H1       1.0000 0.00270  0.74670  0.67140  Biso   1.000  H
  H2       1.0000 0.99730  0.24670  0.32860  Biso   1.000  H
  C5       1.0000 0.83190  0.87610  0.83350  Biso   1.000  C
  C6       1.0000 0.16810  0.37610  0.16650  Biso   1.000  C
  H3       1.0000 0.71150  0.88380  0.71110  Biso   1.000  H
  H4       1.0000 0.28850  0.38380  0.28890  Biso   1.000  H
  N5       1.0000 0.82430  0.94760  0.00520  Biso   1.000  N
  N6       1.0000 0.17570  0.44760  0.99480  Biso   1.000  N
  C7       1.0000 0.02600  0.92780  0.18910  Biso   1.000  C
  C8       1.0000 0.97400  0.42780  0.81090  Biso   1.000  C
  H5       1.0000 0.04580  0.97960  0.31910  Biso   1.000  H
  H6       1.0000 0.95420  0.47960  0.68090  Biso   1.000  H
  C9       1.0000 0.18340  0.83120  0.16390  Biso   1.000  C
  C10      1.0000 0.81660  0.33120  0.83610  Biso   1.000  C
  H7       1.0000 0.30670  0.81460  0.28010  Biso   1.000  H
  H8       1.0000 0.69330  0.31460  0.71990  Biso   1.000  H
