data_image0
_cell_length_a       9.842
_cell_length_b       11.936
_cell_length_c       5.176
_cell_angle_alpha    90
_cell_angle_beta     90
_cell_angle_gamma    90

_symmetry_space_group_name_H-M    "P 1"
_symmetry_int_tables_number       1

loop_
  _symmetry_equiv_pos_as_xyz
  'x, y, z'

loop_
  _atom_site_label
  _atom_site_occupancy
  _atom_site_fract_x
  _atom_site_fract_y
  _atom_site_fract_z
  _atom_site_thermal_displace_type
  _atom_site_B_iso_or_equiv
  _atom_site_type_symbol
  Cu1      1.0000 0.09490  0.25000  0.25000  Biso   1.000  Cu
  Cu2      1.0000 0.59490  0.25000  0.75000  Biso   1.000  Cu
  Cu3      1.0000 0.90510  0.75000  0.75000  Biso   1.000  Cu
  Cu4      1.0000 0.40510  0.75000  0.25000  Biso   1.000  Cu
  N1       1.0000 0.22810  0.30310  0.94480  Biso   1.000  N
  N2       1.0000 0.72810  0.30310  0.05520  Biso   1.000  N
  N3       1.0000 0.72810  0.19690  0.44480  Biso   1.000  N
  N4       1.0000 0.77190  0.80310  0.44480  Biso   1.000  N
  N5       1.0000 0.77190  0.69690  0.05520  Biso   1.000  N
  N6       1.0000 0.27190  0.69690  0.94480  Biso   1.000  N
  N7       1.0000 0.27190  0.80310  0.55520  Biso   1.000  N
  N8       1.0000 0.22810  0.19690  0.55520  Biso   1.000  N
  N9       1.0000 0.22850  0.25000  0.75000  Biso   1.000  N
  N10      1.0000 0.72850  0.25000  0.25000  Biso   1.000  N
  N11      1.0000 0.77150  0.75000  0.25000  Biso   1.000  N
  N12      1.0000 0.27150  0.75000  0.75000  Biso   1.000  N
  N13      1.0000 0.02620  0.10410  0.11520  Biso   1.000  N
  N14      1.0000 0.52620  0.10410  0.88480  Biso   1.000  N
  N15      1.0000 0.52620  0.39590  0.61520  Biso   1.000  N
  N16      1.0000 0.97380  0.60410  0.61520  Biso   1.000  N
  N17      1.0000 0.97380  0.89590  0.88480  Biso   1.000  N
  N18      1.0000 0.47380  0.89590  0.11520  Biso   1.000  N
  N19      1.0000 0.47380  0.60410  0.38480  Biso   1.000  N
  N20      1.0000 0.02620  0.39590  0.38480  Biso   1.000  N
  C1       1.0000 0.95170  0.09480  0.90080  Biso   1.000  C
  C2       1.0000 0.45170  0.09480  0.09920  Biso   1.000  C
  C3       1.0000 0.45170  0.40520  0.40080  Biso   1.000  C
  C4       1.0000 0.04830  0.59480  0.40080  Biso   1.000  C
  C5       1.0000 0.04830  0.90520  0.09920  Biso   1.000  C
  C6       1.0000 0.54830  0.90520  0.90080  Biso   1.000  C
  C7       1.0000 0.54830  0.59480  0.59920  Biso   1.000  C
  C8       1.0000 0.95170  0.40520  0.59920  Biso   1.000  C
  H1       1.0000 0.91610  0.15900  0.82490  Biso   1.000  H
  H2       1.0000 0.41610  0.15900  0.17510  Biso   1.000  H
  H3       1.0000 0.41610  0.34100  0.32490  Biso   1.000  H
  H4       1.0000 0.08390  0.65900  0.32490  Biso   1.000  H
  H5       1.0000 0.08390  0.84100  0.17510  Biso   1.000  H
  H6       1.0000 0.58390  0.84100  0.82490  Biso   1.000  H
  H7       1.0000 0.58390  0.65900  0.67510  Biso   1.000  H
  H8       1.0000 0.91610  0.34100  0.67510  Biso   1.000  H
  C9       1.0000 0.07370  0.00880  0.21100  Biso   1.000  C
  C10      1.0000 0.57370  0.00880  0.78900  Biso   1.000  C
  C11      1.0000 0.57370  0.49120  0.71100  Biso   1.000  C
  C12      1.0000 0.92630  0.50880  0.71100  Biso   1.000  C
  C13      1.0000 0.92630  0.99120  0.78900  Biso   1.000  C
  C14      1.0000 0.42630  0.99120  0.21100  Biso   1.000  C
  C15      1.0000 0.42630  0.50880  0.28900  Biso   1.000  C
  C16      1.0000 0.07370  0.49120  0.28900  Biso   1.000  C
  H9       1.0000 0.12650  0.01150  0.35990  Biso   1.000  H
  H10      1.0000 0.62650  0.01150  0.64010  Biso   1.000  H
  H11      1.0000 0.62650  0.48850  0.85990  Biso   1.000  H
  H12      1.0000 0.87350  0.51150  0.85990  Biso   1.000  H
  H13      1.0000 0.87350  0.98850  0.64010  Biso   1.000  H
  H14      1.0000 0.37350  0.98850  0.35990  Biso   1.000  H
  H15      1.0000 0.37350  0.51150  0.14010  Biso   1.000  H
  H16      1.0000 0.12650  0.48850  0.14010  Biso   1.000  H
