data_image0
_cell_length_a       16.895
_cell_length_b       16.895
_cell_length_c       7.0151
_cell_angle_alpha    90
_cell_angle_beta     90
_cell_angle_gamma    120

_symmetry_space_group_name_H-M    "P 1"
_symmetry_int_tables_number       1

loop_
  _symmetry_equiv_pos_as_xyz
  'x, y, z'

loop_
  _atom_site_label
  _atom_site_occupancy
  _atom_site_fract_x
  _atom_site_fract_y
  _atom_site_fract_z
  _atom_site_thermal_displace_type
  _atom_site_B_iso_or_equiv
  _atom_site_type_symbol
  Cu1      1.0000 0.33330  0.66670  0.91199  Biso   1.000  Cu
  Cu2      1.0000 0.66670  0.33330  0.08801  Biso   1.000  Cu
  Cu3      1.0000 0.44141  0.75307  0.21854  Biso   1.000  Cu
  Cu4      1.0000 0.24693  0.68834  0.21854  Biso   1.000  Cu
  Cu5      1.0000 0.31166  0.55859  0.21854  Biso   1.000  Cu
  Cu6      1.0000 0.55859  0.24693  0.78146  Biso   1.000  Cu
  Cu7      1.0000 0.75307  0.31166  0.78146  Biso   1.000  Cu
  Cu8      1.0000 0.68834  0.44141  0.78146  Biso   1.000  Cu
  I1       1.0000 0.33330  0.66670  0.52020  Biso   1.000  I
  I2       1.0000 0.66670  0.33330  0.47980  Biso   1.000  I
  I3       1.0000 0.36906  0.83238  0.00753  Biso   1.000  I
  I4       1.0000 0.16762  0.53669  0.00753  Biso   1.000  I
  I5       1.0000 0.46331  0.63094  0.00753  Biso   1.000  I
  I6       1.0000 0.63094  0.16762  0.99247  Biso   1.000  I
  I7       1.0000 0.83238  0.46331  0.99247  Biso   1.000  I
  I8       1.0000 0.53669  0.36906  0.99247  Biso   1.000  I
  S1       1.0000 0.58078  0.85822  0.33875  Biso   1.000  S
  S2       1.0000 0.14178  0.72256  0.33875  Biso   1.000  S
  S3       1.0000 0.27744  0.41922  0.33875  Biso   1.000  S
  S4       1.0000 0.41922  0.14178  0.66125  Biso   1.000  S
  S5       1.0000 0.85822  0.27744  0.66125  Biso   1.000  S
  S6       1.0000 0.72256  0.58078  0.66125  Biso   1.000  S
  C1       1.0000 0.49820  0.95440  0.49150  Biso   1.000  C
  C2       1.0000 0.04560  0.54380  0.49150  Biso   1.000  C
  C3       1.0000 0.45620  0.50180  0.49150  Biso   1.000  C
  C4       1.0000 0.50180  0.04560  0.50850  Biso   1.000  C
  C5       1.0000 0.95440  0.45620  0.50850  Biso   1.000  C
  C6       1.0000 0.54380  0.49820  0.50850  Biso   1.000  C
  H1       1.0000 0.49810  0.93110  0.61800  Biso   1.000  H
  H2       1.0000 0.06890  0.56700  0.61800  Biso   1.000  H
  H3       1.0000 0.43300  0.50190  0.61800  Biso   1.000  H
  H4       1.0000 0.50190  0.06890  0.38200  Biso   1.000  H
  H5       1.0000 0.93110  0.43300  0.38200  Biso   1.000  H
  H6       1.0000 0.56700  0.49810  0.38200  Biso   1.000  H
  H7       1.0000 0.44190  0.91090  0.42840  Biso   1.000  H
  H8       1.0000 0.08910  0.53100  0.42840  Biso   1.000  H
  H9       1.0000 0.46900  0.55810  0.42840  Biso   1.000  H
  H10      1.0000 0.55810  0.08910  0.57160  Biso   1.000  H
  H11      1.0000 0.91090  0.46900  0.57160  Biso   1.000  H
  H12      1.0000 0.53100  0.44190  0.57160  Biso   1.000  H
  C7       1.0000 0.57900  0.96310  0.37980  Biso   1.000  C
  C8       1.0000 0.03690  0.61590  0.37980  Biso   1.000  C
  C9       1.0000 0.38410  0.42100  0.37980  Biso   1.000  C
  C10      1.0000 0.42100  0.03690  0.62020  Biso   1.000  C
  C11      1.0000 0.96310  0.38410  0.62020  Biso   1.000  C
  C12      1.0000 0.61590  0.57900  0.62020  Biso   1.000  C
  H13      1.0000 0.63450  0.00530  0.44690  Biso   1.000  H
  H14      1.0000 0.99470  0.62920  0.44690  Biso   1.000  H
  H15      1.0000 0.37080  0.36550  0.44690  Biso   1.000  H
  H16      1.0000 0.36550  0.99470  0.55310  Biso   1.000  H
  H17      1.0000 0.00530  0.37080  0.55310  Biso   1.000  H
  H18      1.0000 0.62920  0.63450  0.55310  Biso   1.000  H
  H19      1.0000 0.58030  0.99020  0.25700  Biso   1.000  H
  H20      1.0000 0.00980  0.59010  0.25700  Biso   1.000  H
  H21      1.0000 0.40990  0.41970  0.25700  Biso   1.000  H
  H22      1.0000 0.41970  0.00980  0.74300  Biso   1.000  H
  H23      1.0000 0.99020  0.40990  0.74300  Biso   1.000  H
  H24      1.0000 0.59010  0.58030  0.74300  Biso   1.000  H
  C13      1.0000 0.58630  0.82250  0.58200  Biso   1.000  C
  C14      1.0000 0.17750  0.76380  0.58200  Biso   1.000  C
  C15      1.0000 0.23620  0.41370  0.58200  Biso   1.000  C
  C16      1.0000 0.41370  0.17750  0.41800  Biso   1.000  C
  C17      1.0000 0.82250  0.23620  0.41800  Biso   1.000  C
  C18      1.0000 0.76380  0.58630  0.41800  Biso   1.000  C
  H25      1.0000 0.53600  0.81880  0.65570  Biso   1.000  H
  H26      1.0000 0.18120  0.71720  0.65570  Biso   1.000  H
  H27      1.0000 0.28280  0.46400  0.65570  Biso   1.000  H
  H28      1.0000 0.46400  0.18120  0.34430  Biso   1.000  H
  H29      1.0000 0.81880  0.28280  0.34430  Biso   1.000  H
  H30      1.0000 0.71720  0.53600  0.34430  Biso   1.000  H
  H31      1.0000 0.57970  0.76210  0.57930  Biso   1.000  H
  H32      1.0000 0.23790  0.81760  0.57930  Biso   1.000  H
  H33      1.0000 0.18240  0.42030  0.57930  Biso   1.000  H
  H34      1.0000 0.42030  0.23790  0.42070  Biso   1.000  H
  H35      1.0000 0.76210  0.18240  0.42070  Biso   1.000  H
  H36      1.0000 0.81760  0.57970  0.42070  Biso   1.000  H
  C19      1.0000 0.67500  0.88800  0.67680  Biso   1.000  C
  C20      1.0000 0.11200  0.78700  0.67680  Biso   1.000  C
  C21      1.0000 0.21300  0.32500  0.67680  Biso   1.000  C
  C22      1.0000 0.32500  0.11200  0.32320  Biso   1.000  C
  C23      1.0000 0.88800  0.21300  0.32320  Biso   1.000  C
  C24      1.0000 0.78700  0.67500  0.32320  Biso   1.000  C
  C25      1.0000 0.67970  0.95210  0.80420  Biso   1.000  C
  C26      1.0000 0.04790  0.72760  0.80420  Biso   1.000  C
  C27      1.0000 0.27240  0.32030  0.80420  Biso   1.000  C
  C28      1.0000 0.32030  0.04790  0.19580  Biso   1.000  C
  C29      1.0000 0.95210  0.27240  0.19580  Biso   1.000  C
  C30      1.0000 0.72760  0.67970  0.19580  Biso   1.000  C
  H37      1.0000 0.62670  0.95240  0.83900  Biso   1.000  H
  H38      1.0000 0.04760  0.67430  0.83900  Biso   1.000  H
  H39      1.0000 0.32570  0.37330  0.83900  Biso   1.000  H
  H40      1.0000 0.37330  0.04760  0.16100  Biso   1.000  H
  H41      1.0000 0.95240  0.32570  0.16100  Biso   1.000  H
  H42      1.0000 0.67430  0.62670  0.16100  Biso   1.000  H
  C31      1.0000 0.76390  0.01680  0.88160  Biso   1.000  C
  C32      1.0000 0.98320  0.74710  0.88160  Biso   1.000  C
  C33      1.0000 0.25290  0.23610  0.88160  Biso   1.000  C
  C34      1.0000 0.23610  0.98320  0.11840  Biso   1.000  C
  C35      1.0000 0.01680  0.25290  0.11840  Biso   1.000  C
  C36      1.0000 0.74710  0.76390  0.11840  Biso   1.000  C
  H43      1.0000 0.76710  0.06070  0.96620  Biso   1.000  H
  H44      1.0000 0.93930  0.70640  0.96620  Biso   1.000  H
  H45      1.0000 0.29360  0.23290  0.96620  Biso   1.000  H
  H46      1.0000 0.23290  0.93930  0.03380  Biso   1.000  H
  H47      1.0000 0.06070  0.29360  0.03380  Biso   1.000  H
  H48      1.0000 0.70640  0.76710  0.03380  Biso   1.000  H
  C37      1.0000 0.84050  0.01530  0.83330  Biso   1.000  C
  C38      1.0000 0.98470  0.82520  0.83330  Biso   1.000  C
  C39      1.0000 0.17480  0.15950  0.83330  Biso   1.000  C
  C40      1.0000 0.15950  0.98470  0.16670  Biso   1.000  C
  C41      1.0000 0.01530  0.17480  0.16670  Biso   1.000  C
  C42      1.0000 0.82520  0.84050  0.16670  Biso   1.000  C
  H49      1.0000 0.89640  0.05850  0.88430  Biso   1.000  H
  H50      1.0000 0.94150  0.83790  0.88430  Biso   1.000  H
  H51      1.0000 0.16210  0.10360  0.88430  Biso   1.000  H
  H52      1.0000 0.10360  0.94150  0.11570  Biso   1.000  H
  H53      1.0000 0.05850  0.16210  0.11570  Biso   1.000  H
  H54      1.0000 0.83790  0.89640  0.11570  Biso   1.000  H
  C43      1.0000 0.83630  0.95080  0.71010  Biso   1.000  C
  C44      1.0000 0.04920  0.88550  0.71010  Biso   1.000  C
  C45      1.0000 0.11450  0.16370  0.71010  Biso   1.000  C
  C46      1.0000 0.16370  0.04920  0.28990  Biso   1.000  C
  C47      1.0000 0.95080  0.11450  0.28990  Biso   1.000  C
  C48      1.0000 0.88550  0.83630  0.28990  Biso   1.000  C
  H55      1.0000 0.88930  0.94980  0.67910  Biso   1.000  H
  H56      1.0000 0.05020  0.93950  0.67910  Biso   1.000  H
  H57      1.0000 0.06050  0.11070  0.67910  Biso   1.000  H
  H58      1.0000 0.11070  0.05020  0.32090  Biso   1.000  H
  H59      1.0000 0.94980  0.06050  0.32090  Biso   1.000  H
  H60      1.0000 0.93950  0.88930  0.32090  Biso   1.000  H
  C49      1.0000 0.75400  0.88720  0.63140  Biso   1.000  C
  C50      1.0000 0.11280  0.86680  0.63140  Biso   1.000  C
  C51      1.0000 0.13320  0.24600  0.63140  Biso   1.000  C
  C52      1.0000 0.24600  0.11280  0.36860  Biso   1.000  C
  C53      1.0000 0.88720  0.13320  0.36860  Biso   1.000  C
  C54      1.0000 0.86680  0.75400  0.36860  Biso   1.000  C
  H61      1.0000 0.75170  0.84360  0.54730  Biso   1.000  H
  H62      1.0000 0.15640  0.90810  0.54730  Biso   1.000  H
  H63      1.0000 0.09190  0.24830  0.54730  Biso   1.000  H
  H64      1.0000 0.24830  0.15640  0.45270  Biso   1.000  H
  H65      1.0000 0.84360  0.09190  0.45270  Biso   1.000  H
  H66      1.0000 0.90810  0.75170  0.45270  Biso   1.000  H
