data_image0
_cell_length_a       8.6254
_cell_length_b       17.4097
_cell_length_c       11.9174
_cell_angle_alpha    90
_cell_angle_beta     103.305
_cell_angle_gamma    90

_symmetry_space_group_name_H-M    "P 1"
_symmetry_int_tables_number       1

loop_
  _symmetry_equiv_pos_as_xyz
  'x, y, z'

loop_
  _atom_site_label
  _atom_site_occupancy
  _atom_site_fract_x
  _atom_site_fract_y
  _atom_site_fract_z
  _atom_site_thermal_displace_type
  _atom_site_B_iso_or_equiv
  _atom_site_type_symbol
  Cu1      1.0000 0.66472  0.21831  0.96145  Biso   1.000  Cu
  Cu2      1.0000 0.83528  0.71831  0.53855  Biso   1.000  Cu
  Cu3      1.0000 0.33528  0.78169  0.03855  Biso   1.000  Cu
  Cu4      1.0000 0.16472  0.28169  0.46145  Biso   1.000  Cu
  Cl1      1.0000 0.31234  0.14221  0.97224  Biso   1.000  Cl
  Cl2      1.0000 0.18766  0.64221  0.52776  Biso   1.000  Cl
  Cl3      1.0000 0.68766  0.85779  0.02776  Biso   1.000  Cl
  Cl4      1.0000 0.81234  0.35779  0.47224  Biso   1.000  Cl
  O1       1.0000 0.43689  0.19625  0.02714  Biso   1.000  O
  O2       1.0000 0.06311  0.69625  0.47286  Biso   1.000  O
  O3       1.0000 0.56311  0.80375  0.97286  Biso   1.000  O
  O4       1.0000 0.93689  0.30375  0.52714  Biso   1.000  O
  O5       1.0000 0.18484  0.14584  0.03118  Biso   1.000  O
  O6       1.0000 0.31516  0.64584  0.46882  Biso   1.000  O
  O7       1.0000 0.81516  0.85416  0.96882  Biso   1.000  O
  O8       1.0000 0.68484  0.35416  0.53118  Biso   1.000  O
  O9       1.0000 0.38000  0.06631  0.98193  Biso   1.000  O
  O10      1.0000 0.12000  0.56631  0.51807  Biso   1.000  O
  O11      1.0000 0.62000  0.93369  0.01807  Biso   1.000  O
  O12      1.0000 0.88000  0.43369  0.48193  Biso   1.000  O
  O13      1.0000 0.25751  0.16254  0.85291  Biso   1.000  O
  O14      1.0000 0.24249  0.66254  0.64709  Biso   1.000  O
  O15      1.0000 0.74249  0.83746  0.14709  Biso   1.000  O
  O16      1.0000 0.75751  0.33746  0.35291  Biso   1.000  O
  N1       1.0000 0.54013  0.25599  0.81319  Biso   1.000  N
  N2       1.0000 0.95987  0.75599  0.68681  Biso   1.000  N
  N3       1.0000 0.45987  0.74401  0.18681  Biso   1.000  N
  N4       1.0000 0.04013  0.24401  0.31319  Biso   1.000  N
  N5       1.0000 0.33355  0.28593  0.60074  Biso   1.000  N
  N6       1.0000 0.16645  0.78593  0.89926  Biso   1.000  N
  N7       1.0000 0.66645  0.71407  0.39926  Biso   1.000  N
  N8       1.0000 0.83355  0.21407  0.10074  Biso   1.000  N
  C1       1.0000 0.54430  0.21361  0.72138  Biso   1.000  C
  C2       1.0000 0.95570  0.71361  0.77862  Biso   1.000  C
  C3       1.0000 0.45570  0.78639  0.27862  Biso   1.000  C
  C4       1.0000 0.04430  0.28639  0.22138  Biso   1.000  C
  C5       1.0000 0.43770  0.22861  0.61301  Biso   1.000  C
  C6       1.0000 0.06230  0.72861  0.88699  Biso   1.000  C
  C7       1.0000 0.56230  0.77139  0.38699  Biso   1.000  C
  C8       1.0000 0.93770  0.27139  0.11301  Biso   1.000  C
  C9       1.0000 0.33810  0.33477  0.69216  Biso   1.000  C
  C10      1.0000 0.16190  0.83477  0.80784  Biso   1.000  C
  C11      1.0000 0.66190  0.66523  0.30784  Biso   1.000  C
  C12      1.0000 0.83810  0.16523  0.19216  Biso   1.000  C
  C13      1.0000 0.24210  0.40110  0.67845  Biso   1.000  C
  C14      1.0000 0.25790  0.90110  0.82155  Biso   1.000  C
  C15      1.0000 0.75790  0.59890  0.32155  Biso   1.000  C
  C16      1.0000 0.74210  0.09890  0.17845  Biso   1.000  C
  H1       1.0000 0.17380  0.41260  0.60580  Biso   1.000  H
  H2       1.0000 0.32620  0.91260  0.89420  Biso   1.000  H
  H3       1.0000 0.82620  0.58740  0.39420  Biso   1.000  H
  H4       1.0000 0.67380  0.08740  0.10580  Biso   1.000  H
  C17      1.0000 0.24820  0.44887  0.77081  Biso   1.000  C
  C18      1.0000 0.25180  0.94887  0.72919  Biso   1.000  C
  C19      1.0000 0.75180  0.55113  0.22919  Biso   1.000  C
  C20      1.0000 0.74820  0.05113  0.27081  Biso   1.000  C
  H5       1.0000 0.18580  0.49440  0.76120  Biso   1.000  H
  H6       1.0000 0.31420  0.99440  0.73880  Biso   1.000  H
  H7       1.0000 0.81420  0.50560  0.23880  Biso   1.000  H
  H8       1.0000 0.68580  0.00560  0.26120  Biso   1.000  H
  C21      1.0000 0.34620  0.43131  0.88016  Biso   1.000  C
  C22      1.0000 0.15380  0.93131  0.61984  Biso   1.000  C
  C23      1.0000 0.65380  0.56869  0.11984  Biso   1.000  C
  C24      1.0000 0.84620  0.06869  0.38016  Biso   1.000  C
  H9       1.0000 0.34650  0.46420  0.94380  Biso   1.000  H
  H10      1.0000 0.15350  0.96420  0.55620  Biso   1.000  H
  H11      1.0000 0.65350  0.53580  0.05620  Biso   1.000  H
  H12      1.0000 0.84650  0.03580  0.44380  Biso   1.000  H
  C25      1.0000 0.44080  0.36718  0.89495  Biso   1.000  C
  C26      1.0000 0.05920  0.86718  0.60505  Biso   1.000  C
  C27      1.0000 0.55920  0.63282  0.10505  Biso   1.000  C
  C28      1.0000 0.94080  0.13282  0.39495  Biso   1.000  C
  H13      1.0000 0.50660  0.35580  0.96860  Biso   1.000  H
  H14      1.0000 0.99340  0.85580  0.53140  Biso   1.000  H
  H15      1.0000 0.49340  0.64420  0.03140  Biso   1.000  H
  H16      1.0000 0.00660  0.14420  0.46860  Biso   1.000  H
  C29      1.0000 0.44020  0.31802  0.80058  Biso   1.000  C
  C30      1.0000 0.05980  0.81802  0.69942  Biso   1.000  C
  C31      1.0000 0.55980  0.68198  0.19942  Biso   1.000  C
  C32      1.0000 0.94020  0.18198  0.30058  Biso   1.000  C
  C33      1.0000 0.66650  0.15206  0.73983  Biso   1.000  C
  C34      1.0000 0.83350  0.65206  0.76017  Biso   1.000  C
  C35      1.0000 0.33350  0.84794  0.26017  Biso   1.000  C
  C36      1.0000 0.16650  0.34794  0.23983  Biso   1.000  C
  C37      1.0000 0.67610  0.10066  0.83114  Biso   1.000  C
  C38      1.0000 0.82390  0.60066  0.66886  Biso   1.000  C
  C39      1.0000 0.32390  0.89934  0.16886  Biso   1.000  C
  C40      1.0000 0.17610  0.39934  0.33114  Biso   1.000  C
  H17      1.0000 0.59200  0.09600  0.86800  Biso   1.000  H
  H18      1.0000 0.90800  0.59600  0.63200  Biso   1.000  H
  H19      1.0000 0.40800  0.90400  0.13200  Biso   1.000  H
  H20      1.0000 0.09200  0.40400  0.36800  Biso   1.000  H
  C41      1.0000 0.80620  0.05162  0.86225  Biso   1.000  C
  C42      1.0000 0.69380  0.55162  0.63775  Biso   1.000  C
  C43      1.0000 0.19380  0.94838  0.13775  Biso   1.000  C
  C44      1.0000 0.30620  0.44838  0.36225  Biso   1.000  C
  H21      1.0000 0.81320  0.01690  0.92470  Biso   1.000  H
  H22      1.0000 0.68680  0.51690  0.57530  Biso   1.000  H
  H23      1.0000 0.18680  0.98310  0.07530  Biso   1.000  H
  H24      1.0000 0.31320  0.48310  0.42470  Biso   1.000  H
  C45      1.0000 0.92560  0.05353  0.80186  Biso   1.000  C
  C46      1.0000 0.57440  0.55353  0.69814  Biso   1.000  C
  C47      1.0000 0.07440  0.94647  0.19814  Biso   1.000  C
  C48      1.0000 0.42560  0.44647  0.30186  Biso   1.000  C
  H25      1.0000 0.01560  0.02080  0.82400  Biso   1.000  H
  H26      1.0000 0.48440  0.52080  0.67600  Biso   1.000  H
  H27      1.0000 0.98440  0.97920  0.17600  Biso   1.000  H
  H28      1.0000 0.51560  0.47920  0.32400  Biso   1.000  H
  C49      1.0000 0.91420  0.10320  0.70886  Biso   1.000  C
  C50      1.0000 0.58580  0.60320  0.79114  Biso   1.000  C
  C51      1.0000 0.08580  0.89680  0.29114  Biso   1.000  C
  C52      1.0000 0.41420  0.39680  0.20886  Biso   1.000  C
  H29      1.0000 0.99560  0.10360  0.66710  Biso   1.000  H
  H30      1.0000 0.50440  0.60360  0.83290  Biso   1.000  H
  H31      1.0000 0.00440  0.89640  0.33290  Biso   1.000  H
  H32      1.0000 0.49560  0.39640  0.16710  Biso   1.000  H
  C53      1.0000 0.78440  0.15217  0.67669  Biso   1.000  C
  C54      1.0000 0.71560  0.65217  0.82331  Biso   1.000  C
  C55      1.0000 0.21560  0.84783  0.32331  Biso   1.000  C
  C56      1.0000 0.28440  0.34783  0.17669  Biso   1.000  C
  H33      1.0000 0.77590  0.18540  0.61240  Biso   1.000  H
  H34      1.0000 0.72410  0.68540  0.88760  Biso   1.000  H
  H35      1.0000 0.22410  0.81460  0.38760  Biso   1.000  H
  H36      1.0000 0.27590  0.31460  0.11240  Biso   1.000  H
  C57      1.0000 0.43080  0.18046  0.50918  Biso   1.000  C
  C58      1.0000 0.06920  0.68046  0.99082  Biso   1.000  C
  C59      1.0000 0.56920  0.81954  0.49082  Biso   1.000  C
  C60      1.0000 0.93080  0.31954  0.00918  Biso   1.000  C
  C61      1.0000 0.45260  0.21588  0.40878  Biso   1.000  C
  C62      1.0000 0.04740  0.71588  0.09122  Biso   1.000  C
  C63      1.0000 0.54740  0.78412  0.59122  Biso   1.000  C
  C64      1.0000 0.95260  0.28412  0.90878  Biso   1.000  C
  H37      1.0000 0.48030  0.26870  0.40960  Biso   1.000  H
  H38      1.0000 0.01970  0.76870  0.09040  Biso   1.000  H
  H39      1.0000 0.51970  0.73130  0.59040  Biso   1.000  H
  H40      1.0000 0.98030  0.23130  0.90960  Biso   1.000  H
  C65      1.0000 0.43360  0.17372  0.30809  Biso   1.000  C
  C66      1.0000 0.06640  0.67372  0.19191  Biso   1.000  C
  C67      1.0000 0.56640  0.82628  0.69191  Biso   1.000  C
  C68      1.0000 0.93360  0.32628  0.80809  Biso   1.000  C
  H41      1.0000 0.45090  0.19730  0.24010  Biso   1.000  H
  H42      1.0000 0.04910  0.69730  0.25990  Biso   1.000  H
  H43      1.0000 0.54910  0.80270  0.75990  Biso   1.000  H
  H44      1.0000 0.95090  0.30270  0.74010  Biso   1.000  H
  C69      1.0000 0.38940  0.09716  0.30651  Biso   1.000  C
  C70      1.0000 0.11060  0.59716  0.19349  Biso   1.000  C
  C71      1.0000 0.61060  0.90284  0.69349  Biso   1.000  C
  C72      1.0000 0.88940  0.40284  0.80651  Biso   1.000  C
  H45      1.0000 0.37300  0.06880  0.23670  Biso   1.000  H
  H46      1.0000 0.12700  0.56880  0.26330  Biso   1.000  H
  H47      1.0000 0.62700  0.93120  0.76330  Biso   1.000  H
  H48      1.0000 0.87300  0.43120  0.73670  Biso   1.000  H
  C73      1.0000 0.36920  0.06184  0.40581  Biso   1.000  C
  C74      1.0000 0.13080  0.56184  0.09419  Biso   1.000  C
  C75      1.0000 0.63080  0.93816  0.59419  Biso   1.000  C
  C76      1.0000 0.86920  0.43816  0.90581  Biso   1.000  C
  H49      1.0000 0.33970  0.00920  0.40410  Biso   1.000  H
  H50      1.0000 0.16030  0.50920  0.09590  Biso   1.000  H
  H51      1.0000 0.66030  0.99080  0.59590  Biso   1.000  H
  H52      1.0000 0.83970  0.49080  0.90410  Biso   1.000  H
  C77      1.0000 0.39170  0.10285  0.50822  Biso   1.000  C
  C78      1.0000 0.10830  0.60285  0.99178  Biso   1.000  C
  C79      1.0000 0.60830  0.89715  0.49178  Biso   1.000  C
  C80      1.0000 0.89170  0.39715  0.00822  Biso   1.000  C
  H53      1.0000 0.38060  0.07820  0.57700  Biso   1.000  H
  H54      1.0000 0.11940  0.57820  0.92300  Biso   1.000  H
  H55      1.0000 0.61940  0.92180  0.42300  Biso   1.000  H
  H56      1.0000 0.88060  0.42180  0.07700  Biso   1.000  H
