data_image0
_cell_length_a       12.8184
_cell_length_b       17.5539
_cell_length_c       9.1166
_cell_angle_alpha    90
_cell_angle_beta     90
_cell_angle_gamma    90

_symmetry_space_group_name_H-M    "P 1"
_symmetry_int_tables_number       1

loop_
  _symmetry_equiv_pos_as_xyz
  'x, y, z'

loop_
  _atom_site_label
  _atom_site_occupancy
  _atom_site_fract_x
  _atom_site_fract_y
  _atom_site_fract_z
  _atom_site_thermal_displace_type
  _atom_site_B_iso_or_equiv
  _atom_site_type_symbol
  Cu1      1.0000 0.36020  0.20117  0.06254  Biso   1.000  Cu
  Cu2      1.0000 0.63980  0.79883  0.06254  Biso   1.000  Cu
  Cu3      1.0000 0.13980  0.70117  0.93746  Biso   1.000  Cu
  Cu4      1.0000 0.86020  0.29883  0.93746  Biso   1.000  Cu
  O1       1.0000 0.37930  0.11099  0.21270  Biso   1.000  O
  O2       1.0000 0.62070  0.88901  0.21270  Biso   1.000  O
  O3       1.0000 0.12070  0.61099  0.78730  Biso   1.000  O
  O4       1.0000 0.87930  0.38901  0.78730  Biso   1.000  O
  H1       1.0000 0.44900  0.09700  0.23500  Biso   1.000  H
  H2       1.0000 0.55100  0.90300  0.23500  Biso   1.000  H
  H3       1.0000 0.05100  0.59700  0.76500  Biso   1.000  H
  H4       1.0000 0.94900  0.40300  0.76500  Biso   1.000  H
  H5       1.0000 0.33000  0.06900  0.21100  Biso   1.000  H
  H6       1.0000 0.67000  0.93100  0.21100  Biso   1.000  H
  H7       1.0000 0.17000  0.56900  0.78900  Biso   1.000  H
  H8       1.0000 0.83000  0.43100  0.78900  Biso   1.000  H
  N1       1.0000 0.50210  0.23634  0.01920  Biso   1.000  N
  N2       1.0000 0.49790  0.76366  0.01920  Biso   1.000  N
  N3       1.0000 0.99790  0.73634  0.98080  Biso   1.000  N
  N4       1.0000 0.00210  0.26366  0.98080  Biso   1.000  N
  N5       1.0000 0.71010  0.28180  0.96320  Biso   1.000  N
  N6       1.0000 0.28990  0.71820  0.96320  Biso   1.000  N
  N7       1.0000 0.78990  0.78180  0.03680  Biso   1.000  N
  N8       1.0000 0.21010  0.21820  0.03680  Biso   1.000  N
  C1       1.0000 0.55310  0.28300  0.10930  Biso   1.000  C
  C2       1.0000 0.44690  0.71700  0.10930  Biso   1.000  C
  C3       1.0000 0.94690  0.78300  0.89070  Biso   1.000  C
  C4       1.0000 0.05310  0.21700  0.89070  Biso   1.000  C
  C5       1.0000 0.65900  0.30580  0.08120  Biso   1.000  C
  C6       1.0000 0.34100  0.69420  0.08120  Biso   1.000  C
  C7       1.0000 0.84100  0.80580  0.91880  Biso   1.000  C
  C8       1.0000 0.15900  0.19420  0.91880  Biso   1.000  C
  C9       1.0000 0.65710  0.23700  0.86490  Biso   1.000  C
  C10      1.0000 0.34290  0.76300  0.86490  Biso   1.000  C
  C11      1.0000 0.84290  0.73700  0.13510  Biso   1.000  C
  C12      1.0000 0.15710  0.26300  0.13510  Biso   1.000  C
  C13      1.0000 0.70470  0.21490  0.73170  Biso   1.000  C
  C14      1.0000 0.29530  0.78510  0.73170  Biso   1.000  C
  C15      1.0000 0.79530  0.71490  0.26830  Biso   1.000  C
  C16      1.0000 0.20470  0.28510  0.26830  Biso   1.000  C
  H9       1.0000 0.77330  0.23180  0.70960  Biso   1.000  H
  H10      1.0000 0.22670  0.76820  0.70960  Biso   1.000  H
  H11      1.0000 0.72670  0.73180  0.29040  Biso   1.000  H
  H12      1.0000 0.27330  0.26820  0.29040  Biso   1.000  H
  C17      1.0000 0.65350  0.16980  0.63560  Biso   1.000  C
  C18      1.0000 0.34650  0.83020  0.63560  Biso   1.000  C
  C19      1.0000 0.84650  0.66980  0.36440  Biso   1.000  C
  C20      1.0000 0.15350  0.33020  0.36440  Biso   1.000  C
  H13      1.0000 0.68670  0.15490  0.54690  Biso   1.000  H
  H14      1.0000 0.31330  0.84510  0.54690  Biso   1.000  H
  H15      1.0000 0.81330  0.65490  0.45310  Biso   1.000  H
  H16      1.0000 0.18670  0.34510  0.45310  Biso   1.000  H
  C21      1.0000 0.55080  0.14430  0.66600  Biso   1.000  C
  C22      1.0000 0.44920  0.85570  0.66600  Biso   1.000  C
  C23      1.0000 0.94920  0.64430  0.33400  Biso   1.000  C
  C24      1.0000 0.05080  0.35570  0.33400  Biso   1.000  C
  H17      1.0000 0.51560  0.11290  0.59720  Biso   1.000  H
  H18      1.0000 0.48440  0.88710  0.59720  Biso   1.000  H
  H19      1.0000 0.98440  0.61290  0.40280  Biso   1.000  H
  H20      1.0000 0.01560  0.38710  0.40280  Biso   1.000  H
  C25      1.0000 0.50210  0.16460  0.79300  Biso   1.000  C
  C26      1.0000 0.49790  0.83540  0.79300  Biso   1.000  C
  C27      1.0000 0.99790  0.66460  0.20700  Biso   1.000  C
  C28      1.0000 0.00210  0.33540  0.20700  Biso   1.000  C
  H21      1.0000 0.43400  0.14620  0.81360  Biso   1.000  H
  H22      1.0000 0.56600  0.85380  0.81360  Biso   1.000  H
  H23      1.0000 0.06600  0.64620  0.18640  Biso   1.000  H
  H24      1.0000 0.93400  0.35380  0.18640  Biso   1.000  H
  C29      1.0000 0.55310  0.21300  0.89390  Biso   1.000  C
  C30      1.0000 0.44690  0.78700  0.89390  Biso   1.000  C
  C31      1.0000 0.94690  0.71300  0.10610  Biso   1.000  C
  C32      1.0000 0.05310  0.28700  0.10610  Biso   1.000  C
  C33      1.0000 0.49820  0.31270  0.24020  Biso   1.000  C
  C34      1.0000 0.50180  0.68730  0.24020  Biso   1.000  C
  C35      1.0000 0.00180  0.81270  0.75980  Biso   1.000  C
  C36      1.0000 0.99820  0.18730  0.75980  Biso   1.000  C
  C37      1.0000 0.48110  0.26680  0.36320  Biso   1.000  C
  C38      1.0000 0.51890  0.73320  0.36320  Biso   1.000  C
  C39      1.0000 0.01890  0.76680  0.63680  Biso   1.000  C
  C40      1.0000 0.98110  0.23320  0.63680  Biso   1.000  C
  H25      1.0000 0.50310  0.21510  0.36320  Biso   1.000  H
  H26      1.0000 0.49690  0.78490  0.36320  Biso   1.000  H
  H27      1.0000 0.99690  0.71510  0.63680  Biso   1.000  H
  H28      1.0000 0.00310  0.28490  0.63680  Biso   1.000  H
  C41      1.0000 0.43150  0.29730  0.48570  Biso   1.000  C
  C42      1.0000 0.56850  0.70270  0.48570  Biso   1.000  C
  C43      1.0000 0.06850  0.79730  0.51430  Biso   1.000  C
  C44      1.0000 0.93150  0.20270  0.51430  Biso   1.000  C
  H29      1.0000 0.41970  0.26630  0.56950  Biso   1.000  H
  H30      1.0000 0.58030  0.73370  0.56950  Biso   1.000  H
  H31      1.0000 0.08030  0.76630  0.43050  Biso   1.000  H
  H32      1.0000 0.91970  0.23370  0.43050  Biso   1.000  H
  C45      1.0000 0.39910  0.37300  0.48600  Biso   1.000  C
  C46      1.0000 0.60090  0.62700  0.48600  Biso   1.000  C
  C47      1.0000 0.10090  0.87300  0.51400  Biso   1.000  C
  C48      1.0000 0.89910  0.12700  0.51400  Biso   1.000  C
  H33      1.0000 0.36550  0.39340  0.57020  Biso   1.000  H
  H34      1.0000 0.63450  0.60660  0.57020  Biso   1.000  H
  H35      1.0000 0.13450  0.89340  0.42980  Biso   1.000  H
  H36      1.0000 0.86550  0.10660  0.42980  Biso   1.000  H
  C49      1.0000 0.41530  0.41860  0.36520  Biso   1.000  C
  C50      1.0000 0.58470  0.58140  0.36520  Biso   1.000  C
  C51      1.0000 0.08470  0.91860  0.63480  Biso   1.000  C
  C52      1.0000 0.91530  0.08140  0.63480  Biso   1.000  C
  H37      1.0000 0.39250  0.47010  0.36560  Biso   1.000  H
  H38      1.0000 0.60750  0.52990  0.36560  Biso   1.000  H
  H39      1.0000 0.10750  0.97010  0.63440  Biso   1.000  H
  H40      1.0000 0.89250  0.02990  0.63440  Biso   1.000  H
  C53      1.0000 0.46590  0.38850  0.24140  Biso   1.000  C
  C54      1.0000 0.53410  0.61150  0.24140  Biso   1.000  C
  C55      1.0000 0.03410  0.88850  0.75860  Biso   1.000  C
  C56      1.0000 0.96590  0.11150  0.75860  Biso   1.000  C
  H41      1.0000 0.47810  0.41990  0.15820  Biso   1.000  H
  H42      1.0000 0.52190  0.58010  0.15820  Biso   1.000  H
  H43      1.0000 0.02190  0.91990  0.84180  Biso   1.000  H
  H44      1.0000 0.97810  0.08010  0.84180  Biso   1.000  H
  C57      1.0000 0.71370  0.35790  0.18350  Biso   1.000  C
  C58      1.0000 0.28630  0.64210  0.18350  Biso   1.000  C
  C59      1.0000 0.78630  0.85790  0.81650  Biso   1.000  C
  C60      1.0000 0.21370  0.14210  0.81650  Biso   1.000  C
  C61      1.0000 0.72800  0.33960  0.33030  Biso   1.000  C
  C62      1.0000 0.27200  0.66040  0.33030  Biso   1.000  C
  C63      1.0000 0.77200  0.83960  0.66970  Biso   1.000  C
  C64      1.0000 0.22800  0.16040  0.66970  Biso   1.000  C
  H45      1.0000 0.70310  0.29240  0.36700  Biso   1.000  H
  H46      1.0000 0.29690  0.70760  0.36700  Biso   1.000  H
  H47      1.0000 0.79690  0.79240  0.63300  Biso   1.000  H
  H48      1.0000 0.20310  0.20760  0.63300  Biso   1.000  H
  C65      1.0000 0.77820  0.38990  0.42360  Biso   1.000  C
  C66      1.0000 0.22180  0.61010  0.42360  Biso   1.000  C
  C67      1.0000 0.72180  0.88990  0.57640  Biso   1.000  C
  C68      1.0000 0.27820  0.11010  0.57640  Biso   1.000  C
  H49      1.0000 0.78840  0.37680  0.52370  Biso   1.000  H
  H50      1.0000 0.21160  0.62320  0.52370  Biso   1.000  H
  H51      1.0000 0.71160  0.87680  0.47630  Biso   1.000  H
  H52      1.0000 0.28840  0.12320  0.47630  Biso   1.000  H
  C69      1.0000 0.81380  0.45940  0.37090  Biso   1.000  C
  C70      1.0000 0.18620  0.54060  0.37090  Biso   1.000  C
  C71      1.0000 0.68620  0.95940  0.62910  Biso   1.000  C
  C72      1.0000 0.31380  0.04060  0.62910  Biso   1.000  C
  H53      1.0000 0.84720  0.49410  0.43560  Biso   1.000  H
  H54      1.0000 0.15280  0.50590  0.43560  Biso   1.000  H
  H55      1.0000 0.65280  0.99410  0.56440  Biso   1.000  H
  H56      1.0000 0.34720  0.00590  0.56440  Biso   1.000  H
  C73      1.0000 0.80090  0.47840  0.22400  Biso   1.000  C
  C74      1.0000 0.19910  0.52160  0.22400  Biso   1.000  C
  C75      1.0000 0.69910  0.97840  0.77600  Biso   1.000  C
  C76      1.0000 0.30090  0.02160  0.77600  Biso   1.000  C
  H57      1.0000 0.82630  0.52570  0.18790  Biso   1.000  H
  H58      1.0000 0.17370  0.47430  0.18790  Biso   1.000  H
  H59      1.0000 0.67370  0.02570  0.81210  Biso   1.000  H
  H60      1.0000 0.32630  0.97430  0.81210  Biso   1.000  H
  C77      1.0000 0.75070  0.42800  0.13000  Biso   1.000  C
  C78      1.0000 0.24930  0.57200  0.13000  Biso   1.000  C
  C79      1.0000 0.74930  0.92800  0.87000  Biso   1.000  C
  C80      1.0000 0.25070  0.07200  0.87000  Biso   1.000  C
  H61      1.0000 0.74130  0.44090  0.02970  Biso   1.000  H
  H62      1.0000 0.25870  0.55910  0.02970  Biso   1.000  H
  H63      1.0000 0.75870  0.94090  0.97030  Biso   1.000  H
  H64      1.0000 0.24130  0.05910  0.97030  Biso   1.000  H
  Cl1      1.0000 0.17145  0.41523  0.78310  Biso   1.000  Cl
  Cl2      1.0000 0.82855  0.58477  0.78310  Biso   1.000  Cl
  Cl3      1.0000 0.32855  0.91523  0.21690  Biso   1.000  Cl
  Cl4      1.0000 0.67145  0.08477  0.21690  Biso   1.000  Cl
  O5       1.0000 0.24220  0.47766  0.75350  Biso   1.000  O
  O6       1.0000 0.75780  0.52234  0.75350  Biso   1.000  O
  O7       1.0000 0.25780  0.97766  0.24650  Biso   1.000  O
  O8       1.0000 0.74220  0.02234  0.24650  Biso   1.000  O
  O9       1.0000 0.22150  0.34433  0.75220  Biso   1.000  O
  O10      1.0000 0.77850  0.65567  0.75220  Biso   1.000  O
  O11      1.0000 0.27850  0.84433  0.24780  Biso   1.000  O
  O12      1.0000 0.72150  0.15567  0.24780  Biso   1.000  O
  O13      1.0000 0.13460  0.41870  0.92970  Biso   1.000  O
  O14      1.0000 0.86540  0.58130  0.92970  Biso   1.000  O
  O15      1.0000 0.36540  0.91870  0.07030  Biso   1.000  O
  O16      1.0000 0.63460  0.08130  0.07030  Biso   1.000  O
  O17      1.0000 0.08210  0.42340  0.68410  Biso   1.000  O
  O18      1.0000 0.91790  0.57660  0.68410  Biso   1.000  O
  O19      1.0000 0.41790  0.92340  0.31590  Biso   1.000  O
  O20      1.0000 0.58210  0.07660  0.31590  Biso   1.000  O
  C81      1.0000 0.50000  0.50000  0.74320  Biso   1.000  C
  C82      1.0000 0.00000  0.00000  0.25680  Biso   1.000  C
  H65      1.0000 0.43780  0.49740  0.67910  Biso   1.000  H
  H66      1.0000 0.56220  0.50260  0.67910  Biso   1.000  H
  H67      1.0000 0.06220  0.99740  0.32090  Biso   1.000  H
  H68      1.0000 0.93780  0.00260  0.32090  Biso   1.000  H
  Cl5      1.0000 0.50655  0.41719  0.84645  Biso   1.000  Cl
  Cl6      1.0000 0.49345  0.58281  0.84645  Biso   1.000  Cl
  Cl7      1.0000 0.99345  0.91719  0.15355  Biso   1.000  Cl
  Cl8      1.0000 0.00655  0.08281  0.15355  Biso   1.000  Cl
