data_image0
_cell_length_a       9.356
_cell_length_b       11.5131
_cell_length_c       31.1479
_cell_angle_alpha    90
_cell_angle_beta     90
_cell_angle_gamma    90

_symmetry_space_group_name_H-M    "P 1"
_symmetry_int_tables_number       1

loop_
  _symmetry_equiv_pos_as_xyz
  'x, y, z'

loop_
  _atom_site_label
  _atom_site_occupancy
  _atom_site_fract_x
  _atom_site_fract_y
  _atom_site_fract_z
  _atom_site_thermal_displace_type
  _atom_site_B_iso_or_equiv
  _atom_site_type_symbol
  Cu1      1.0000 0.17036  0.73193  0.31120  Biso   1.000  Cu
  Cu2      1.0000 0.32964  0.26807  0.81120  Biso   1.000  Cu
  Cu3      1.0000 0.67036  0.76807  0.68880  Biso   1.000  Cu
  Cu4      1.0000 0.82964  0.23193  0.18880  Biso   1.000  Cu
  Cu5      1.0000 0.23601  0.50675  0.38605  Biso   1.000  Cu
  Cu6      1.0000 0.26399  0.49325  0.88605  Biso   1.000  Cu
  Cu7      1.0000 0.73601  0.99325  0.61395  Biso   1.000  Cu
  Cu8      1.0000 0.76399  0.00675  0.11395  Biso   1.000  Cu
  N1       1.0000 0.18630  0.76270  0.37308  Biso   1.000  N
  N2       1.0000 0.31370  0.23730  0.87308  Biso   1.000  N
  N3       1.0000 0.68630  0.73730  0.62692  Biso   1.000  N
  N4       1.0000 0.81370  0.26270  0.12692  Biso   1.000  N
  N5       1.0000 0.21780  0.67480  0.40166  Biso   1.000  N
  N6       1.0000 0.28220  0.32520  0.90166  Biso   1.000  N
  N7       1.0000 0.71780  0.82520  0.59834  Biso   1.000  N
  N8       1.0000 0.78220  0.17480  0.09834  Biso   1.000  N
  N9       1.0000 0.24130  0.84190  0.43486  Biso   1.000  N
  N10      1.0000 0.25870  0.15810  0.93486  Biso   1.000  N
  N11      1.0000 0.74130  0.65810  0.56514  Biso   1.000  N
  N12      1.0000 0.75870  0.34190  0.06514  Biso   1.000  N
  N13      1.0000 0.28340  0.40460  0.43297  Biso   1.000  N
  N14      1.0000 0.21660  0.59540  0.93297  Biso   1.000  N
  N15      1.0000 0.78340  0.09540  0.56703  Biso   1.000  N
  N16      1.0000 0.71660  0.90460  0.06703  Biso   1.000  N
  N17      1.0000 0.31560  0.44350  0.47406  Biso   1.000  N
  N18      1.0000 0.18440  0.55650  0.97406  Biso   1.000  N
  N19      1.0000 0.81560  0.05650  0.52594  Biso   1.000  N
  N20      1.0000 0.68440  0.94350  0.02594  Biso   1.000  N
  N21      1.0000 0.30400  0.25170  0.47404  Biso   1.000  N
  N22      1.0000 0.19600  0.74830  0.97404  Biso   1.000  N
  N23      1.0000 0.80400  0.24830  0.52596  Biso   1.000  N
  N24      1.0000 0.69600  0.75170  0.02596  Biso   1.000  N
  N25      1.0000 0.16740  0.84370  0.26485  Biso   1.000  N
  N26      1.0000 0.33260  0.15630  0.76485  Biso   1.000  N
  N27      1.0000 0.66740  0.65630  0.73515  Biso   1.000  N
  N28      1.0000 0.83260  0.34370  0.23515  Biso   1.000  N
  N29      1.0000 0.10900  0.81910  0.22524  Biso   1.000  N
  N30      1.0000 0.39100  0.18090  0.72524  Biso   1.000  N
  N31      1.0000 0.60900  0.68090  0.77476  Biso   1.000  N
  N32      1.0000 0.89100  0.31910  0.27476  Biso   1.000  N
  N33      1.0000 0.20780  0.99140  0.22305  Biso   1.000  N
  N34      1.0000 0.29220  0.00860  0.72305  Biso   1.000  N
  N35      1.0000 0.70780  0.50860  0.77695  Biso   1.000  N
  N36      1.0000 0.79220  0.49140  0.27695  Biso   1.000  N
  N37      1.0000 0.21470  0.47980  0.32496  Biso   1.000  N
  N38      1.0000 0.28530  0.52020  0.82496  Biso   1.000  N
  N39      1.0000 0.71470  0.02020  0.67504  Biso   1.000  N
  N40      1.0000 0.78530  0.97980  0.17504  Biso   1.000  N
  N41      1.0000 0.18930  0.56470  0.29472  Biso   1.000  N
  N42      1.0000 0.31070  0.43530  0.79472  Biso   1.000  N
  N43      1.0000 0.68930  0.93530  0.70528  Biso   1.000  N
  N44      1.0000 0.81070  0.06470  0.20528  Biso   1.000  N
  N45      1.0000 0.23550  0.40220  0.26102  Biso   1.000  N
  N46      1.0000 0.26450  0.59780  0.76102  Biso   1.000  N
  N47      1.0000 0.73550  0.09780  0.73898  Biso   1.000  N
  N48      1.0000 0.76450  0.90220  0.23898  Biso   1.000  N
  C1       1.0000 0.20060  0.86100  0.39381  Biso   1.000  C
  C2       1.0000 0.29940  0.13900  0.89381  Biso   1.000  C
  C3       1.0000 0.70060  0.63900  0.60619  Biso   1.000  C
  C4       1.0000 0.79940  0.36100  0.10619  Biso   1.000  C
  H1       1.0000 0.18480  0.93480  0.38180  Biso   1.000  H
  H2       1.0000 0.31520  0.06520  0.88180  Biso   1.000  H
  H3       1.0000 0.68480  0.56520  0.61820  Biso   1.000  H
  H4       1.0000 0.81520  0.43480  0.11820  Biso   1.000  H
  C5       1.0000 0.24960  0.72520  0.43789  Biso   1.000  C
  C6       1.0000 0.25040  0.27480  0.93789  Biso   1.000  C
  C7       1.0000 0.74960  0.77480  0.56211  Biso   1.000  C
  C8       1.0000 0.75040  0.22520  0.06211  Biso   1.000  C
  H5       1.0000 0.27510  0.68520  0.46310  Biso   1.000  H
  H6       1.0000 0.22490  0.31480  0.96310  Biso   1.000  H
  H7       1.0000 0.77510  0.81480  0.53690  Biso   1.000  H
  H8       1.0000 0.72490  0.18520  0.03690  Biso   1.000  H
  C9       1.0000 0.27790  0.29110  0.43396  Biso   1.000  C
  C10      1.0000 0.22210  0.70890  0.93396  Biso   1.000  C
  C11      1.0000 0.77790  0.20890  0.56604  Biso   1.000  C
  C12      1.0000 0.72210  0.79110  0.06604  Biso   1.000  C
  H9       1.0000 0.25850  0.24360  0.41010  Biso   1.000  H
  H10      1.0000 0.24150  0.75640  0.91010  Biso   1.000  H
  H11      1.0000 0.75850  0.25640  0.58990  Biso   1.000  H
  H12      1.0000 0.74150  0.74360  0.08990  Biso   1.000  H
  C13      1.0000 0.32730  0.34890  0.49737  Biso   1.000  C
  C14      1.0000 0.17270  0.65110  0.99737  Biso   1.000  C
  C15      1.0000 0.82730  0.15110  0.50263  Biso   1.000  C
  C16      1.0000 0.67270  0.84890  0.00263  Biso   1.000  C
  H13      1.0000 0.34930  0.34880  0.52680  Biso   1.000  H
  H14      1.0000 0.15070  0.65120  0.02680  Biso   1.000  H
  H15      1.0000 0.84930  0.15120  0.47320  Biso   1.000  H
  H16      1.0000 0.65070  0.84880  0.97320  Biso   1.000  H
  C17      1.0000 0.27710  0.92320  0.47044  Biso   1.000  C
  C18      1.0000 0.22290  0.07680  0.97044  Biso   1.000  C
  C19      1.0000 0.77710  0.57680  0.52956  Biso   1.000  C
  C20      1.0000 0.72290  0.42320  0.02956  Biso   1.000  C
  C21      1.0000 0.26980  0.04700  0.45360  Biso   1.000  C
  C22      1.0000 0.23020  0.95300  0.95360  Biso   1.000  C
  C23      1.0000 0.76980  0.45300  0.54640  Biso   1.000  C
  C24      1.0000 0.73020  0.54700  0.04640  Biso   1.000  C
  H17      1.0000 0.17270  0.06450  0.44370  Biso   1.000  H
  H18      1.0000 0.32730  0.93550  0.94370  Biso   1.000  H
  H19      1.0000 0.67270  0.43550  0.55630  Biso   1.000  H
  H20      1.0000 0.82730  0.56450  0.05630  Biso   1.000  H
  H21      1.0000 0.33540  0.05650  0.42930  Biso   1.000  H
  H22      1.0000 0.16460  0.94350  0.92930  Biso   1.000  H
  H23      1.0000 0.83540  0.44350  0.57070  Biso   1.000  H
  H24      1.0000 0.66460  0.55650  0.07070  Biso   1.000  H
  C25      1.0000 0.31150  0.12940  0.48984  Biso   1.000  C
  C26      1.0000 0.18850  0.87060  0.98984  Biso   1.000  C
  C27      1.0000 0.81150  0.37060  0.51016  Biso   1.000  C
  C28      1.0000 0.68850  0.62940  0.01016  Biso   1.000  C
  C29      1.0000 0.46250  0.10410  0.50504  Biso   1.000  C
  C30      1.0000 0.03750  0.89590  0.00504  Biso   1.000  C
  C31      1.0000 0.96250  0.39590  0.49496  Biso   1.000  C
  C32      1.0000 0.53750  0.60410  0.99496  Biso   1.000  C
  H25      1.0000 0.48870  0.15760  0.52820  Biso   1.000  H
  H26      1.0000 0.01130  0.84240  0.02820  Biso   1.000  H
  H27      1.0000 0.98870  0.34240  0.47180  Biso   1.000  H
  H28      1.0000 0.51130  0.65760  0.97180  Biso   1.000  H
  H29      1.0000 0.53010  0.11480  0.48130  Biso   1.000  H
  H30      1.0000 0.96990  0.88520  0.98130  Biso   1.000  H
  H31      1.0000 0.03010  0.38520  0.51870  Biso   1.000  H
  H32      1.0000 0.46990  0.61480  0.01870  Biso   1.000  H
  C33      1.0000 0.46880  0.97820  0.52122  Biso   1.000  C
  C34      1.0000 0.03120  0.02180  0.02122  Biso   1.000  C
  C35      1.0000 0.96880  0.52180  0.47878  Biso   1.000  C
  C36      1.0000 0.53120  0.47820  0.97878  Biso   1.000  C
  H33      1.0000 0.56690  0.96080  0.53120  Biso   1.000  H
  H34      1.0000 0.93310  0.03920  0.03120  Biso   1.000  H
  H35      1.0000 0.06690  0.53920  0.46880  Biso   1.000  H
  H36      1.0000 0.43310  0.46080  0.96880  Biso   1.000  H
  C37      1.0000 0.42960  0.89560  0.48523  Biso   1.000  C
  C38      1.0000 0.07040  0.10440  0.98523  Biso   1.000  C
  C39      1.0000 0.92960  0.60440  0.51477  Biso   1.000  C
  C40      1.0000 0.57040  0.39560  0.01477  Biso   1.000  C
  H37      1.0000 0.43500  0.81510  0.49540  Biso   1.000  H
  H38      1.0000 0.06500  0.18490  0.99540  Biso   1.000  H
  H39      1.0000 0.93500  0.68490  0.50460  Biso   1.000  H
  H40      1.0000 0.56500  0.31510  0.00460  Biso   1.000  H
  H41      1.0000 0.49640  0.90480  0.46120  Biso   1.000  H
  H42      1.0000 0.00360  0.09520  0.96120  Biso   1.000  H
  H43      1.0000 0.99640  0.59520  0.53880  Biso   1.000  H
  H44      1.0000 0.50360  0.40480  0.03880  Biso   1.000  H
  C41      1.0000 0.17170  0.90670  0.50726  Biso   1.000  C
  C42      1.0000 0.32830  0.09330  0.00726  Biso   1.000  C
  C43      1.0000 0.67170  0.59330  0.49274  Biso   1.000  C
  C44      1.0000 0.82830  0.40670  0.99274  Biso   1.000  C
  H45      1.0000 0.17460  0.82630  0.51750  Biso   1.000  H
  H46      1.0000 0.32540  0.17370  0.01750  Biso   1.000  H
  H47      1.0000 0.67460  0.67370  0.48250  Biso   1.000  H
  H48      1.0000 0.82540  0.32630  0.98250  Biso   1.000  H
  H49      1.0000 0.07430  0.92380  0.49760  Biso   1.000  H
  H50      1.0000 0.42570  0.07620  0.99760  Biso   1.000  H
  H51      1.0000 0.57430  0.57620  0.50240  Biso   1.000  H
  H52      1.0000 0.92570  0.42380  0.00240  Biso   1.000  H
  C45      1.0000 0.21490  0.99060  0.54367  Biso   1.000  C
  C46      1.0000 0.28510  0.00940  0.04367  Biso   1.000  C
  C47      1.0000 0.71490  0.50940  0.45633  Biso   1.000  C
  C48      1.0000 0.78510  0.49060  0.95633  Biso   1.000  C
  H53      1.0000 0.14800  0.98110  0.56810  Biso   1.000  H
  H54      1.0000 0.35200  0.01890  0.06810  Biso   1.000  H
  H55      1.0000 0.64800  0.51890  0.43190  Biso   1.000  H
  H56      1.0000 0.85200  0.48110  0.93190  Biso   1.000  H
  C49      1.0000 0.20680  0.11560  0.52736  Biso   1.000  C
  C50      1.0000 0.29320  0.88440  0.02736  Biso   1.000  C
  C51      1.0000 0.70680  0.38440  0.47264  Biso   1.000  C
  C52      1.0000 0.79320  0.61560  0.97264  Biso   1.000  C
  H57      1.0000 0.23180  0.16960  0.55050  Biso   1.000  H
  H58      1.0000 0.26820  0.83040  0.05050  Biso   1.000  H
  H59      1.0000 0.73180  0.33040  0.44950  Biso   1.000  H
  H60      1.0000 0.76820  0.66960  0.94950  Biso   1.000  H
  H61      1.0000 0.10930  0.13310  0.51780  Biso   1.000  H
  H62      1.0000 0.39070  0.86690  0.01780  Biso   1.000  H
  H63      1.0000 0.60930  0.36690  0.48220  Biso   1.000  H
  H64      1.0000 0.89070  0.63310  0.98220  Biso   1.000  H
  C53      1.0000 0.36490  0.96360  0.55857  Biso   1.000  C
  C54      1.0000 0.13510  0.03640  0.05857  Biso   1.000  C
  C55      1.0000 0.86490  0.53640  0.44143  Biso   1.000  C
  C56      1.0000 0.63510  0.46360  0.94143  Biso   1.000  C
  H65      1.0000 0.36940  0.88370  0.56940  Biso   1.000  H
  H66      1.0000 0.13060  0.11630  0.06940  Biso   1.000  H
  H67      1.0000 0.86940  0.61630  0.43060  Biso   1.000  H
  H68      1.0000 0.63060  0.38370  0.93060  Biso   1.000  H
  H69      1.0000 0.39160  0.01610  0.58200  Biso   1.000  H
  H70      1.0000 0.10840  0.98390  0.08200  Biso   1.000  H
  H71      1.0000 0.89160  0.48390  0.41800  Biso   1.000  H
  H72      1.0000 0.60840  0.51610  0.91800  Biso   1.000  H
  C57      1.0000 0.22510  0.94610  0.26275  Biso   1.000  C
  C58      1.0000 0.27490  0.05390  0.76275  Biso   1.000  C
  C59      1.0000 0.72510  0.55390  0.73725  Biso   1.000  C
  C60      1.0000 0.77490  0.44610  0.23725  Biso   1.000  C
  H73      1.0000 0.27220  0.98340  0.28560  Biso   1.000  H
  H74      1.0000 0.22780  0.01660  0.78560  Biso   1.000  H
  H75      1.0000 0.77220  0.51660  0.71440  Biso   1.000  H
  H76      1.0000 0.72780  0.48340  0.21440  Biso   1.000  H
  C61      1.0000 0.13610  0.90880  0.20119  Biso   1.000  C
  C62      1.0000 0.36390  0.09120  0.70119  Biso   1.000  C
  C63      1.0000 0.63610  0.59120  0.79881  Biso   1.000  C
  C64      1.0000 0.86390  0.40880  0.29881  Biso   1.000  C
  H77      1.0000 0.10900  0.91520  0.17220  Biso   1.000  H
  H78      1.0000 0.39100  0.08480  0.67220  Biso   1.000  H
  H79      1.0000 0.60900  0.58480  0.82780  Biso   1.000  H
  H80      1.0000 0.89100  0.41520  0.32780  Biso   1.000  H
  C65      1.0000 0.24330  0.38410  0.30394  Biso   1.000  C
  C66      1.0000 0.25670  0.61590  0.80394  Biso   1.000  C
  C67      1.0000 0.74330  0.11590  0.69606  Biso   1.000  C
  C68      1.0000 0.75670  0.88410  0.19606  Biso   1.000  C
  H81      1.0000 0.26620  0.31260  0.31680  Biso   1.000  H
  H82      1.0000 0.23380  0.68740  0.81680  Biso   1.000  H
  H83      1.0000 0.76620  0.18740  0.68320  Biso   1.000  H
  H84      1.0000 0.73380  0.81260  0.18320  Biso   1.000  H
  C69      1.0000 0.20260  0.51560  0.25715  Biso   1.000  C
  C70      1.0000 0.29740  0.48440  0.75715  Biso   1.000  C
  C71      1.0000 0.70260  0.98440  0.74285  Biso   1.000  C
  C72      1.0000 0.79740  0.01560  0.24285  Biso   1.000  C
  H85      1.0000 0.19070  0.55430  0.23080  Biso   1.000  H
  H86      1.0000 0.30930  0.44570  0.73080  Biso   1.000  H
  H87      1.0000 0.69070  0.94570  0.76920  Biso   1.000  H
  H88      1.0000 0.80930  0.05430  0.26920  Biso   1.000  H
  C73      1.0000 0.25990  0.10690  0.20796  Biso   1.000  C
  C74      1.0000 0.24010  0.89310  0.70796  Biso   1.000  C
  C75      1.0000 0.75990  0.39310  0.79204  Biso   1.000  C
  C76      1.0000 0.74010  0.60690  0.29204  Biso   1.000  C
  C77      1.0000 0.21960  0.19630  0.24201  Biso   1.000  C
  C78      1.0000 0.28040  0.80370  0.74201  Biso   1.000  C
  C79      1.0000 0.71960  0.30370  0.75799  Biso   1.000  C
  C80      1.0000 0.78040  0.69630  0.25799  Biso   1.000  C
  H89      1.0000 0.26420  0.17620  0.26950  Biso   1.000  H
  H90      1.0000 0.23580  0.82380  0.76950  Biso   1.000  H
  H91      1.0000 0.76420  0.32380  0.73050  Biso   1.000  H
  H92      1.0000 0.73580  0.67620  0.23050  Biso   1.000  H
  H93      1.0000 0.11570  0.19760  0.24600  Biso   1.000  H
  H94      1.0000 0.38430  0.80240  0.74600  Biso   1.000  H
  H95      1.0000 0.61570  0.30240  0.75400  Biso   1.000  H
  H96      1.0000 0.88430  0.69760  0.25400  Biso   1.000  H
  C81      1.0000 0.27240  0.31650  0.22694  Biso   1.000  C
  C82      1.0000 0.22760  0.68350  0.72694  Biso   1.000  C
  C83      1.0000 0.77240  0.18350  0.77306  Biso   1.000  C
  C84      1.0000 0.72760  0.81650  0.27306  Biso   1.000  C
  C85      1.0000 0.19840  0.34750  0.18502  Biso   1.000  C
  C86      1.0000 0.30160  0.65250  0.68502  Biso   1.000  C
  C87      1.0000 0.69840  0.15250  0.81498  Biso   1.000  C
  C88      1.0000 0.80160  0.84750  0.31498  Biso   1.000  C
  H97      1.0000 0.22860  0.42500  0.17560  Biso   1.000  H
  H98      1.0000 0.27140  0.57500  0.67560  Biso   1.000  H
  H99      1.0000 0.72860  0.07500  0.82440  Biso   1.000  H
  H100     1.0000 0.77140  0.92500  0.32440  Biso   1.000  H
  H101     1.0000 0.09460  0.34860  0.18920  Biso   1.000  H
  H102     1.0000 0.40540  0.65140  0.68920  Biso   1.000  H
  H103     1.0000 0.59460  0.15140  0.81080  Biso   1.000  H
  H104     1.0000 0.90540  0.84860  0.31080  Biso   1.000  H
  C89      1.0000 0.23780  0.25730  0.15077  Biso   1.000  C
  C90      1.0000 0.26220  0.74270  0.65077  Biso   1.000  C
  C91      1.0000 0.73780  0.24270  0.84923  Biso   1.000  C
  C92      1.0000 0.76220  0.75730  0.34923  Biso   1.000  C
  H105     1.0000 0.19040  0.27740  0.12330  Biso   1.000  H
  H106     1.0000 0.30960  0.72260  0.62330  Biso   1.000  H
  H107     1.0000 0.69040  0.22260  0.87670  Biso   1.000  H
  H108     1.0000 0.80960  0.77740  0.37670  Biso   1.000  H
  C93      1.0000 0.18820  0.13610  0.16542  Biso   1.000  C
  C94      1.0000 0.31180  0.86390  0.66542  Biso   1.000  C
  C95      1.0000 0.68820  0.36390  0.83458  Biso   1.000  C
  C96      1.0000 0.81180  0.63610  0.33458  Biso   1.000  C
  H109     1.0000 0.08410  0.13530  0.16890  Biso   1.000  H
  H110     1.0000 0.41590  0.86470  0.66890  Biso   1.000  H
  H111     1.0000 0.58410  0.36470  0.83110  Biso   1.000  H
  H112     1.0000 0.91590  0.63530  0.33110  Biso   1.000  H
  H113     1.0000 0.21410  0.07800  0.14380  Biso   1.000  H
  H114     1.0000 0.28590  0.92200  0.64380  Biso   1.000  H
  H115     1.0000 0.71410  0.42200  0.85620  Biso   1.000  H
  H116     1.0000 0.78590  0.57800  0.35620  Biso   1.000  H
  C97      1.0000 0.42120  0.10300  0.20188  Biso   1.000  C
  C98      1.0000 0.07880  0.89700  0.70188  Biso   1.000  C
  C99      1.0000 0.92120  0.39700  0.79812  Biso   1.000  C
  C100     1.0000 0.57880  0.60300  0.29812  Biso   1.000  C
  H117     1.0000 0.44620  0.04460  0.18030  Biso   1.000  H
  H118     1.0000 0.05380  0.95540  0.68030  Biso   1.000  H
  H119     1.0000 0.94620  0.45540  0.81970  Biso   1.000  H
  H120     1.0000 0.55380  0.54460  0.31970  Biso   1.000  H
  H121     1.0000 0.46790  0.08200  0.22890  Biso   1.000  H
  H122     1.0000 0.03210  0.91800  0.72890  Biso   1.000  H
  H123     1.0000 0.96790  0.41800  0.77110  Biso   1.000  H
  H124     1.0000 0.53210  0.58200  0.27110  Biso   1.000  H
  C101     1.0000 0.47160  0.22320  0.18723  Biso   1.000  C
  C102     1.0000 0.02840  0.77680  0.68723  Biso   1.000  C
  C103     1.0000 0.97160  0.27680  0.81277  Biso   1.000  C
  C104     1.0000 0.52840  0.72320  0.31277  Biso   1.000  C
  H125     1.0000 0.57660  0.22190  0.18320  Biso   1.000  H
  H126     1.0000 0.92340  0.77810  0.68320  Biso   1.000  H
  H127     1.0000 0.07660  0.27810  0.81680  Biso   1.000  H
  H128     1.0000 0.42340  0.72190  0.31680  Biso   1.000  H
  C105     1.0000 0.43360  0.31370  0.22077  Biso   1.000  C
  C106     1.0000 0.06640  0.68630  0.72077  Biso   1.000  C
  C107     1.0000 0.93360  0.18630  0.77923  Biso   1.000  C
  C108     1.0000 0.56640  0.81370  0.27923  Biso   1.000  C
  H129     1.0000 0.46740  0.39030  0.21140  Biso   1.000  H
  H130     1.0000 0.03260  0.60970  0.71140  Biso   1.000  H
  H131     1.0000 0.96740  0.10970  0.78860  Biso   1.000  H
  H132     1.0000 0.53260  0.89030  0.28860  Biso   1.000  H
  H133     1.0000 0.48050  0.29480  0.24800  Biso   1.000  H
  H134     1.0000 0.01950  0.70520  0.74800  Biso   1.000  H
  H135     1.0000 0.98050  0.20520  0.75200  Biso   1.000  H
  H136     1.0000 0.51950  0.79480  0.25200  Biso   1.000  H
  C109     1.0000 0.39940  0.25580  0.14438  Biso   1.000  C
  C110     1.0000 0.10060  0.74420  0.64438  Biso   1.000  C
  C111     1.0000 0.89940  0.24420  0.85562  Biso   1.000  C
  C112     1.0000 0.60060  0.75580  0.35562  Biso   1.000  C
  H137     1.0000 0.43230  0.33250  0.13500  Biso   1.000  H
  H138     1.0000 0.06770  0.66750  0.63500  Biso   1.000  H
  H139     1.0000 0.93230  0.16750  0.86500  Biso   1.000  H
  H140     1.0000 0.56770  0.83250  0.36500  Biso   1.000  H
  H141     1.0000 0.42490  0.19900  0.12220  Biso   1.000  H
  H142     1.0000 0.07510  0.80100  0.62220  Biso   1.000  H
  H143     1.0000 0.92490  0.30100  0.87780  Biso   1.000  H
  H144     1.0000 0.57510  0.69900  0.37780  Biso   1.000  H
  Mo1      1.0000 0.94632  0.14045  0.36785  Biso   1.000  Mo
  Mo2      1.0000 0.55368  0.85955  0.86785  Biso   1.000  Mo
  Mo3      1.0000 0.44632  0.35955  0.63215  Biso   1.000  Mo
  Mo4      1.0000 0.05368  0.64045  0.13215  Biso   1.000  Mo
  Mo5      1.0000 0.57839  0.17624  0.34980  Biso   1.000  Mo
  Mo6      1.0000 0.92161  0.82376  0.84980  Biso   1.000  Mo
  Mo7      1.0000 0.07839  0.32376  0.65020  Biso   1.000  Mo
  Mo8      1.0000 0.42161  0.67624  0.15020  Biso   1.000  Mo
  O1       1.0000 0.77080  0.13470  0.33823  Biso   1.000  O
  O2       1.0000 0.72920  0.86530  0.83823  Biso   1.000  O
  O3       1.0000 0.27080  0.36530  0.66177  Biso   1.000  O
  O4       1.0000 0.22920  0.63470  0.16177  Biso   1.000  O
  O5       1.0000 0.93830  0.05100  0.41143  Biso   1.000  O
  O6       1.0000 0.56170  0.94900  0.91143  Biso   1.000  O
  O7       1.0000 0.43830  0.44900  0.58857  Biso   1.000  O
  O8       1.0000 0.06170  0.55100  0.08857  Biso   1.000  O
  O9       1.0000 0.08430  0.09500  0.33641  Biso   1.000  O
  O10      1.0000 0.41570  0.90500  0.83641  Biso   1.000  O
  O11      1.0000 0.58430  0.40500  0.66359  Biso   1.000  O
  O12      1.0000 0.91570  0.59500  0.16359  Biso   1.000  O
  O13      1.0000 0.98040  0.27840  0.38502  Biso   1.000  O
  O14      1.0000 0.51960  0.72160  0.88502  Biso   1.000  O
  O15      1.0000 0.48040  0.22160  0.61498  Biso   1.000  O
  O16      1.0000 0.01960  0.77840  0.11498  Biso   1.000  O
  O17      1.0000 0.54450  0.15870  0.40270  Biso   1.000  O
  O18      1.0000 0.95550  0.84130  0.90270  Biso   1.000  O
  O19      1.0000 0.04450  0.34130  0.59730  Biso   1.000  O
  O20      1.0000 0.45550  0.65870  0.09730  Biso   1.000  O
  O21      1.0000 0.46960  0.09510  0.31811  Biso   1.000  O
  O22      1.0000 0.03040  0.90490  0.81811  Biso   1.000  O
  O23      1.0000 0.96960  0.40490  0.68189  Biso   1.000  O
  O24      1.0000 0.53040  0.59510  0.18189  Biso   1.000  O
  O25      1.0000 0.55040  0.31970  0.33699  Biso   1.000  O
  O26      1.0000 0.94960  0.68030  0.83699  Biso   1.000  O
  O27      1.0000 0.05040  0.18030  0.66301  Biso   1.000  O
  O28      1.0000 0.44960  0.81970  0.16301  Biso   1.000  O
  O29      1.0000 0.30400  0.62770  0.54061  Biso   1.000  O
  O30      1.0000 0.19600  0.37230  0.04061  Biso   1.000  O
  O31      1.0000 0.80400  0.87230  0.45939  Biso   1.000  O
  O32      1.0000 0.69600  0.12770  0.95939  Biso   1.000  O
  H145     1.0000 0.26710  0.58160  0.52240  Biso   1.000  H
  H146     1.0000 0.23290  0.41840  0.02240  Biso   1.000  H
  H147     1.0000 0.76710  0.91840  0.47760  Biso   1.000  H
  H148     1.0000 0.73290  0.08160  0.97760  Biso   1.000  H
  H149     1.0000 0.35050  0.58780  0.55880  Biso   1.000  H
  H150     1.0000 0.14950  0.41220  0.05880  Biso   1.000  H
  H151     1.0000 0.85050  0.91220  0.44120  Biso   1.000  H
  H152     1.0000 0.64950  0.08780  0.94120  Biso   1.000  H
