data_image0
_cell_length_a       6.8385
_cell_length_b       15.397
_cell_length_c       21.537
_cell_angle_alpha    90
_cell_angle_beta     90
_cell_angle_gamma    90

_symmetry_space_group_name_H-M    "P 1"
_symmetry_int_tables_number       1

loop_
  _symmetry_equiv_pos_as_xyz
  'x, y, z'

loop_
  _atom_site_label
  _atom_site_occupancy
  _atom_site_fract_x
  _atom_site_fract_y
  _atom_site_fract_z
  _atom_site_thermal_displace_type
  _atom_site_B_iso_or_equiv
  _atom_site_type_symbol
  Cu1      1.0000 0.00000  0.86244  0.25000  Biso   1.000  Cu
  Cu2      1.0000 0.50000  0.63756  0.75000  Biso   1.000  Cu
  Cu3      1.0000 0.00000  0.13756  0.75000  Biso   1.000  Cu
  Cu4      1.0000 0.50000  0.36244  0.25000  Biso   1.000  Cu
  Cu5      1.0000 0.21712  0.91791  0.46059  Biso   1.000  Cu
  Cu6      1.0000 0.28288  0.58209  0.96059  Biso   1.000  Cu
  Cu7      1.0000 0.78288  0.91791  0.03941  Biso   1.000  Cu
  Cu8      1.0000 0.71712  0.58209  0.53941  Biso   1.000  Cu
  Cu9      1.0000 0.78288  0.08209  0.53941  Biso   1.000  Cu
  Cu10     1.0000 0.71712  0.41791  0.03941  Biso   1.000  Cu
  Cu11     1.0000 0.21712  0.08209  0.96059  Biso   1.000  Cu
  Cu12     1.0000 0.28288  0.41791  0.46059  Biso   1.000  Cu
  N1       1.0000 0.00000  0.26640  0.25000  Biso   1.000  N
  N2       1.0000 0.50000  0.23360  0.75000  Biso   1.000  N
  N3       1.0000 0.00000  0.73360  0.75000  Biso   1.000  N
  N4       1.0000 0.50000  0.76640  0.25000  Biso   1.000  N
  C1       1.0000 0.00000  0.44650  0.25000  Biso   1.000  C
  C2       1.0000 0.50000  0.05350  0.75000  Biso   1.000  C
  C3       1.0000 0.00000  0.55350  0.75000  Biso   1.000  C
  C4       1.0000 0.50000  0.94650  0.25000  Biso   1.000  C
  C5       1.0000 0.05860  0.59020  0.30150  Biso   1.000  C
  C6       1.0000 0.44140  0.90980  0.80150  Biso   1.000  C
  C7       1.0000 0.94140  0.59020  0.19850  Biso   1.000  C
  C8       1.0000 0.55860  0.90980  0.69850  Biso   1.000  C
  C9       1.0000 0.94140  0.40980  0.69850  Biso   1.000  C
  C10      1.0000 0.55860  0.09020  0.19850  Biso   1.000  C
  C11      1.0000 0.05860  0.40980  0.80150  Biso   1.000  C
  C12      1.0000 0.44140  0.09020  0.30150  Biso   1.000  C
  H1       1.0000 0.09870  0.56200  0.33750  Biso   1.000  H
  H2       1.0000 0.40130  0.93800  0.83750  Biso   1.000  H
  H3       1.0000 0.90130  0.56200  0.16250  Biso   1.000  H
  H4       1.0000 0.59870  0.93800  0.66250  Biso   1.000  H
  H5       1.0000 0.90130  0.43800  0.66250  Biso   1.000  H
  H6       1.0000 0.59870  0.06200  0.16250  Biso   1.000  H
  H7       1.0000 0.09870  0.43800  0.83750  Biso   1.000  H
  H8       1.0000 0.40130  0.06200  0.33750  Biso   1.000  H
  C13      1.0000 0.00000  0.54220  0.25000  Biso   1.000  C
  C14      1.0000 0.50000  0.95780  0.75000  Biso   1.000  C
  C15      1.0000 0.00000  0.45780  0.75000  Biso   1.000  C
  C16      1.0000 0.50000  0.04220  0.25000  Biso   1.000  C
  N5       1.0000 0.09870  0.90390  0.38110  Biso   1.000  N
  N6       1.0000 0.40130  0.59610  0.88110  Biso   1.000  N
  N7       1.0000 0.90130  0.90390  0.11890  Biso   1.000  N
  N8       1.0000 0.59870  0.59610  0.61890  Biso   1.000  N
  N9       1.0000 0.90130  0.09610  0.61890  Biso   1.000  N
  N10      1.0000 0.59870  0.40390  0.11890  Biso   1.000  N
  N11      1.0000 0.09870  0.09610  0.88110  Biso   1.000  N
  N12      1.0000 0.40130  0.40390  0.38110  Biso   1.000  N
  C17      1.0000 0.07520  0.25840  0.14090  Biso   1.000  C
  C18      1.0000 0.42480  0.24160  0.64090  Biso   1.000  C
  C19      1.0000 0.92480  0.25840  0.35910  Biso   1.000  C
  C20      1.0000 0.57520  0.24160  0.85910  Biso   1.000  C
  C21      1.0000 0.92480  0.74160  0.85910  Biso   1.000  C
  C22      1.0000 0.57520  0.75840  0.35910  Biso   1.000  C
  C23      1.0000 0.07520  0.74160  0.64090  Biso   1.000  C
  C24      1.0000 0.42480  0.75840  0.14090  Biso   1.000  C
  C25      1.0000 0.04370  0.40050  0.19730  Biso   1.000  C
  C26      1.0000 0.45630  0.09950  0.69730  Biso   1.000  C
  C27      1.0000 0.95630  0.40050  0.30270  Biso   1.000  C
  C28      1.0000 0.54370  0.09950  0.80270  Biso   1.000  C
  C29      1.0000 0.95630  0.59950  0.80270  Biso   1.000  C
  C30      1.0000 0.54370  0.90050  0.30270  Biso   1.000  C
  C31      1.0000 0.04370  0.59950  0.69730  Biso   1.000  C
  C32      1.0000 0.45630  0.90050  0.19730  Biso   1.000  C
  H9       1.0000 0.07680  0.43000  0.16110  Biso   1.000  H
  H10      1.0000 0.42320  0.07000  0.66110  Biso   1.000  H
  H11      1.0000 0.92320  0.43000  0.33890  Biso   1.000  H
  H12      1.0000 0.57680  0.07000  0.83890  Biso   1.000  H
  H13      1.0000 0.92320  0.57000  0.83890  Biso   1.000  H
  H14      1.0000 0.57680  0.93000  0.33890  Biso   1.000  H
  H15      1.0000 0.07680  0.57000  0.66110  Biso   1.000  H
  H16      1.0000 0.42320  0.93000  0.16110  Biso   1.000  H
  C33      1.0000 0.03920  0.31120  0.19750  Biso   1.000  C
  C34      1.0000 0.46080  0.18880  0.69750  Biso   1.000  C
  C35      1.0000 0.96080  0.31120  0.30250  Biso   1.000  C
  C36      1.0000 0.53920  0.18880  0.80250  Biso   1.000  C
  C37      1.0000 0.96080  0.68880  0.80250  Biso   1.000  C
  C38      1.0000 0.53920  0.81120  0.30250  Biso   1.000  C
  C39      1.0000 0.03920  0.68880  0.69750  Biso   1.000  C
  C40      1.0000 0.46080  0.81120  0.19750  Biso   1.000  C
  C41      1.0000 0.11900  0.29570  0.08400  Biso   1.000  C
  C42      1.0000 0.38100  0.20430  0.58400  Biso   1.000  C
  C43      1.0000 0.88100  0.29570  0.41600  Biso   1.000  C
  C44      1.0000 0.61900  0.20430  0.91600  Biso   1.000  C
  C45      1.0000 0.88100  0.70430  0.91600  Biso   1.000  C
  C46      1.0000 0.61900  0.79570  0.41600  Biso   1.000  C
  C47      1.0000 0.11900  0.70430  0.58400  Biso   1.000  C
  C48      1.0000 0.38100  0.79570  0.08400  Biso   1.000  C
  H17      1.0000 0.13100  0.35560  0.08040  Biso   1.000  H
  H18      1.0000 0.36900  0.14440  0.58040  Biso   1.000  H
  H19      1.0000 0.86900  0.35560  0.41960  Biso   1.000  H
  H20      1.0000 0.63100  0.14440  0.91960  Biso   1.000  H
  H21      1.0000 0.86900  0.64440  0.91960  Biso   1.000  H
  H22      1.0000 0.63100  0.85560  0.41960  Biso   1.000  H
  H23      1.0000 0.13100  0.64440  0.58040  Biso   1.000  H
  H24      1.0000 0.36900  0.85560  0.08040  Biso   1.000  H
  C49      1.0000 0.05120  0.89390  0.33070  Biso   1.000  C
  C50      1.0000 0.44880  0.60610  0.83070  Biso   1.000  C
  C51      1.0000 0.94880  0.89390  0.16930  Biso   1.000  C
  C52      1.0000 0.55120  0.60610  0.66930  Biso   1.000  C
  C53      1.0000 0.94880  0.10610  0.66930  Biso   1.000  C
  C54      1.0000 0.55120  0.39390  0.16930  Biso   1.000  C
  C55      1.0000 0.05120  0.10610  0.83070  Biso   1.000  C
  C56      1.0000 0.44880  0.39390  0.33070  Biso   1.000  C
  N13      1.0000 0.00000  0.72420  0.25000  Biso   1.000  N
  N14      1.0000 0.50000  0.77580  0.75000  Biso   1.000  N
  N15      1.0000 0.00000  0.27580  0.75000  Biso   1.000  N
  N16      1.0000 0.50000  0.22420  0.25000  Biso   1.000  N
  C57      1.0000 0.05710  0.67820  0.29900  Biso   1.000  C
  C58      1.0000 0.44290  0.82180  0.79900  Biso   1.000  C
  C59      1.0000 0.94290  0.67820  0.20100  Biso   1.000  C
  C60      1.0000 0.55710  0.82180  0.70100  Biso   1.000  C
  C61      1.0000 0.94290  0.32180  0.70100  Biso   1.000  C
  C62      1.0000 0.55710  0.17820  0.20100  Biso   1.000  C
  C63      1.0000 0.05710  0.32180  0.79900  Biso   1.000  C
  C64      1.0000 0.44290  0.17820  0.29900  Biso   1.000  C
  H25      1.0000 0.09880  0.70840  0.33400  Biso   1.000  H
  H26      1.0000 0.40120  0.79160  0.83400  Biso   1.000  H
  H27      1.0000 0.90120  0.70840  0.16600  Biso   1.000  H
  H28      1.0000 0.59880  0.79160  0.66600  Biso   1.000  H
  H29      1.0000 0.90120  0.29160  0.66600  Biso   1.000  H
  H30      1.0000 0.59880  0.20840  0.16600  Biso   1.000  H
  H31      1.0000 0.09880  0.29160  0.83400  Biso   1.000  H
  H32      1.0000 0.40120  0.20840  0.33400  Biso   1.000  H
  C65      1.0000 0.06450  0.16930  0.14230  Biso   1.000  C
  C66      1.0000 0.43550  0.33070  0.64230  Biso   1.000  C
  C67      1.0000 0.93550  0.16930  0.35770  Biso   1.000  C
  C68      1.0000 0.56450  0.33070  0.85770  Biso   1.000  C
  C69      1.0000 0.93550  0.83070  0.85770  Biso   1.000  C
  C70      1.0000 0.56450  0.66930  0.35770  Biso   1.000  C
  C71      1.0000 0.06450  0.83070  0.64230  Biso   1.000  C
  C72      1.0000 0.43550  0.66930  0.14230  Biso   1.000  C
  H33      1.0000 0.03510  0.14070  0.17920  Biso   1.000  H
  H34      1.0000 0.46490  0.35930  0.67920  Biso   1.000  H
  H35      1.0000 0.96490  0.14070  0.32080  Biso   1.000  H
  H36      1.0000 0.53510  0.35930  0.82080  Biso   1.000  H
  H37      1.0000 0.96490  0.85930  0.82080  Biso   1.000  H
  H38      1.0000 0.53510  0.64070  0.32080  Biso   1.000  H
  H39      1.0000 0.03510  0.85930  0.67920  Biso   1.000  H
  H40      1.0000 0.46490  0.64070  0.17920  Biso   1.000  H
  C73      1.0000 0.43160  0.98410  0.49090  Biso   1.000  C
  C74      1.0000 0.06840  0.51590  0.99090  Biso   1.000  C
  C75      1.0000 0.56840  0.98410  0.00910  Biso   1.000  C
  C76      1.0000 0.93160  0.51590  0.50910  Biso   1.000  C
  C77      1.0000 0.56840  0.01590  0.50910  Biso   1.000  C
  C78      1.0000 0.93160  0.48410  0.00910  Biso   1.000  C
  C79      1.0000 0.43160  0.01590  0.99090  Biso   1.000  C
  C80      1.0000 0.06840  0.48410  0.49090  Biso   1.000  C
  C81      1.0000 0.14440  0.24330  0.03300  Biso   1.000  C
  C82      1.0000 0.35560  0.25670  0.53300  Biso   1.000  C
  C83      1.0000 0.85560  0.24330  0.46700  Biso   1.000  C
  C84      1.0000 0.64440  0.25670  0.96700  Biso   1.000  C
  C85      1.0000 0.85560  0.75670  0.96700  Biso   1.000  C
  C86      1.0000 0.64440  0.74330  0.46700  Biso   1.000  C
  C87      1.0000 0.14440  0.75670  0.53300  Biso   1.000  C
  C88      1.0000 0.35560  0.74330  0.03300  Biso   1.000  C
  H41      1.0000 0.16950  0.26980  0.99500  Biso   1.000  H
  H42      1.0000 0.33050  0.23020  0.49500  Biso   1.000  H
  H43      1.0000 0.83050  0.26980  0.50500  Biso   1.000  H
  H44      1.0000 0.66950  0.23020  0.00500  Biso   1.000  H
  H45      1.0000 0.83050  0.73020  0.00500  Biso   1.000  H
  H46      1.0000 0.66950  0.76980  0.50500  Biso   1.000  H
  H47      1.0000 0.16950  0.73020  0.49500  Biso   1.000  H
  H48      1.0000 0.33050  0.76980  0.99500  Biso   1.000  H
  C89      1.0000 0.09700  0.12280  0.08930  Biso   1.000  C
  C90      1.0000 0.40300  0.37720  0.58930  Biso   1.000  C
  C91      1.0000 0.90300  0.12280  0.41070  Biso   1.000  C
  C92      1.0000 0.59700  0.37720  0.91070  Biso   1.000  C
  C93      1.0000 0.90300  0.87720  0.91070  Biso   1.000  C
  C94      1.0000 0.59700  0.62280  0.41070  Biso   1.000  C
  C95      1.0000 0.09700  0.87720  0.58930  Biso   1.000  C
  C96      1.0000 0.40300  0.62280  0.08930  Biso   1.000  C
  H49      1.0000 0.09180  0.06250  0.09190  Biso   1.000  H
  H50      1.0000 0.40820  0.43750  0.59190  Biso   1.000  H
  H51      1.0000 0.90820  0.06250  0.40810  Biso   1.000  H
  H52      1.0000 0.59180  0.43750  0.90810  Biso   1.000  H
  H53      1.0000 0.90820  0.93750  0.90810  Biso   1.000  H
  H54      1.0000 0.59180  0.56250  0.40810  Biso   1.000  H
  H55      1.0000 0.09180  0.93750  0.59190  Biso   1.000  H
  H56      1.0000 0.40820  0.56250  0.09190  Biso   1.000  H
  N17      1.0000 0.13550  0.15780  0.03432  Biso   1.000  N
  N18      1.0000 0.36450  0.34220  0.53432  Biso   1.000  N
  N19      1.0000 0.86450  0.15780  0.46568  Biso   1.000  N
  N20      1.0000 0.63550  0.34220  0.96568  Biso   1.000  N
  N21      1.0000 0.86450  0.84220  0.96568  Biso   1.000  N
  N22      1.0000 0.63550  0.65780  0.46568  Biso   1.000  N
  N23      1.0000 0.13550  0.84220  0.53432  Biso   1.000  N
  N24      1.0000 0.36450  0.65780  0.03432  Biso   1.000  N
