data_image0
_cell_length_a       4.9293
_cell_length_b       8.8904
_cell_length_c       19.378
_cell_angle_alpha    90
_cell_angle_beta     91.643
_cell_angle_gamma    90

_symmetry_space_group_name_H-M    "P 1"
_symmetry_int_tables_number       1

loop_
  _symmetry_equiv_pos_as_xyz
  'x, y, z'

loop_
  _atom_site_label
  _atom_site_occupancy
  _atom_site_fract_x
  _atom_site_fract_y
  _atom_site_fract_z
  _atom_site_thermal_displace_type
  _atom_site_B_iso_or_equiv
  _atom_site_type_symbol
  C1       1.0000 0.21040  0.83680  0.41260  Biso   1.000  C
  C2       1.0000 0.78960  0.33680  0.08740  Biso   1.000  C
  C3       1.0000 0.78960  0.16320  0.58740  Biso   1.000  C
  C4       1.0000 0.21040  0.66320  0.91260  Biso   1.000  C
  H1       1.0000 0.34540  0.90480  0.40140  Biso   1.000  H
  H2       1.0000 0.65460  0.40480  0.09860  Biso   1.000  H
  H3       1.0000 0.65460  0.09520  0.59860  Biso   1.000  H
  H4       1.0000 0.34540  0.59520  0.90140  Biso   1.000  H
  C5       1.0000 0.13640  0.82810  0.48060  Biso   1.000  C
  C6       1.0000 0.86360  0.32810  0.01940  Biso   1.000  C
  C7       1.0000 0.86360  0.17190  0.51940  Biso   1.000  C
  C8       1.0000 0.13640  0.67190  0.98060  Biso   1.000  C
  H5       1.0000 0.22230  0.88780  0.51410  Biso   1.000  H
  H6       1.0000 0.77770  0.38780  0.98590  Biso   1.000  H
  H7       1.0000 0.77770  0.11220  0.48590  Biso   1.000  H
  H8       1.0000 0.22230  0.61220  0.01410  Biso   1.000  H
  C9       1.0000 0.93430  0.73030  0.49840  Biso   1.000  C
  C10      1.0000 0.06570  0.23030  0.00160  Biso   1.000  C
  C11      1.0000 0.06570  0.26970  0.50160  Biso   1.000  C
  C12      1.0000 0.93430  0.76970  0.99840  Biso   1.000  C
  C13      1.0000 0.81190  0.64550  0.44630  Biso   1.000  C
  C14      1.0000 0.18810  0.14550  0.05370  Biso   1.000  C
  C15      1.0000 0.18810  0.35450  0.55370  Biso   1.000  C
  C16      1.0000 0.81190  0.85450  0.94630  Biso   1.000  C
  H9       1.0000 0.66990  0.58060  0.45600  Biso   1.000  H
  H10      1.0000 0.33010  0.08060  0.04400  Biso   1.000  H
  H11      1.0000 0.33010  0.41940  0.54400  Biso   1.000  H
  H12      1.0000 0.66990  0.91940  0.95600  Biso   1.000  H
  C17      1.0000 0.90340  0.65830  0.37960  Biso   1.000  C
  C18      1.0000 0.09660  0.15830  0.12040  Biso   1.000  C
  C19      1.0000 0.09660  0.34170  0.62040  Biso   1.000  C
  C20      1.0000 0.90340  0.84170  0.87960  Biso   1.000  C
  H13      1.0000 0.82420  0.59790  0.34540  Biso   1.000  H
  H14      1.0000 0.17580  0.09790  0.15460  Biso   1.000  H
  H15      1.0000 0.17580  0.40210  0.65460  Biso   1.000  H
  H16      1.0000 0.82420  0.90210  0.84540  Biso   1.000  H
  C21      1.0000 0.83270  0.71800  0.57000  Biso   1.000  C
  C22      1.0000 0.16730  0.21800  0.93000  Biso   1.000  C
  C23      1.0000 0.16730  0.28200  0.43000  Biso   1.000  C
  C24      1.0000 0.83270  0.78200  0.07000  Biso   1.000  C
  C25      1.0000 0.43480  0.56460  0.24370  Biso   1.000  C
  C26      1.0000 0.56520  0.06460  0.25630  Biso   1.000  C
  C27      1.0000 0.56520  0.43540  0.75630  Biso   1.000  C
  C28      1.0000 0.43480  0.93540  0.74370  Biso   1.000  C
  Cu1      1.0000 0.27758  0.75327  0.26473  Biso   1.000  Cu
  Cu2      1.0000 0.72242  0.25327  0.23527  Biso   1.000  Cu
  Cu3      1.0000 0.72242  0.24673  0.73527  Biso   1.000  Cu
  Cu4      1.0000 0.27758  0.74673  0.76473  Biso   1.000  Cu
  N1       1.0000 0.09950  0.75310  0.36218  Biso   1.000  N
  N2       1.0000 0.90050  0.25310  0.13782  Biso   1.000  N
  N3       1.0000 0.90050  0.24690  0.63782  Biso   1.000  N
  N4       1.0000 0.09950  0.74690  0.86218  Biso   1.000  N
  N5       1.0000 0.01570  0.73340  0.62089  Biso   1.000  N
  N6       1.0000 0.98430  0.23340  0.87911  Biso   1.000  N
  N7       1.0000 0.98430  0.26660  0.37911  Biso   1.000  N
  N8       1.0000 0.01570  0.76660  0.12089  Biso   1.000  N
  H17      1.0000 0.19270  0.75260  0.60890  Biso   1.000  H
  H18      1.0000 0.80730  0.25260  0.89110  Biso   1.000  H
  H19      1.0000 0.80730  0.24740  0.39110  Biso   1.000  H
  H20      1.0000 0.19270  0.74740  0.10890  Biso   1.000  H
  N9       1.0000 0.94230  0.72310  0.69103  Biso   1.000  N
  N10      1.0000 0.05770  0.22310  0.80897  Biso   1.000  N
  N11      1.0000 0.05770  0.27690  0.30897  Biso   1.000  N
  N12      1.0000 0.94230  0.77690  0.19103  Biso   1.000  N
  H21      1.0000 0.86260  0.63340  0.69770  Biso   1.000  H
  H22      1.0000 0.13740  0.13340  0.80230  Biso   1.000  H
  H23      1.0000 0.13740  0.36660  0.30230  Biso   1.000  H
  H24      1.0000 0.86260  0.86660  0.19770  Biso   1.000  H
  H25      1.0000 0.81890  0.79490  0.69940  Biso   1.000  H
  H26      1.0000 0.18110  0.29490  0.80060  Biso   1.000  H
  H27      1.0000 0.18110  0.20510  0.30060  Biso   1.000  H
  H28      1.0000 0.81890  0.70510  0.19940  Biso   1.000  H
  N13      1.0000 0.53990  0.44940  0.23620  Biso   1.000  N
  N14      1.0000 0.46010  0.94940  0.26380  Biso   1.000  N
  N15      1.0000 0.46010  0.55060  0.76380  Biso   1.000  N
  N16      1.0000 0.53990  0.05060  0.73620  Biso   1.000  N
  O1       1.0000 0.59310  0.69140  0.58071  Biso   1.000  O
  O2       1.0000 0.40690  0.19140  0.91929  Biso   1.000  O
  O3       1.0000 0.40690  0.30860  0.41929  Biso   1.000  O
  O4       1.0000 0.59310  0.80860  0.08071  Biso   1.000  O
