data_image0
_cell_length_a       9.324
_cell_length_b       3.8484
_cell_length_c       8.663
_cell_angle_alpha    90
_cell_angle_beta     107.08
_cell_angle_gamma    90

_symmetry_space_group_name_H-M    "P 1"
_symmetry_int_tables_number       1

loop_
  _symmetry_equiv_pos_as_xyz
  'x, y, z'

loop_
  _atom_site_label
  _atom_site_occupancy
  _atom_site_fract_x
  _atom_site_fract_y
  _atom_site_fract_z
  _atom_site_thermal_displace_type
  _atom_site_B_iso_or_equiv
  _atom_site_type_symbol
  Cl1      1.0000 0.66140  0.25000  0.65510  Biso   1.000  Cl
  Cl2      1.0000 0.33860  0.75000  0.34490  Biso   1.000  Cl
  Cu1      1.0000 0.38300  0.25800  0.51050  Biso   1.000  Cu
  Cu2      1.0000 0.61700  0.75800  0.48950  Biso   1.000  Cu
  N1       1.0000 0.28400  0.20200  0.68400  Biso   1.000  N
  N2       1.0000 0.71600  0.70200  0.31600  Biso   1.000  N
  C1       1.0000 0.34900  0.30700  0.83700  Biso   1.000  C
  C2       1.0000 0.65100  0.80700  0.16300  Biso   1.000  C
  C3       1.0000 0.28500  0.28500  0.95800  Biso   1.000  C
  C4       1.0000 0.71500  0.78500  0.04200  Biso   1.000  C
  C5       1.0000 0.14600  0.12100  0.92300  Biso   1.000  C
  C6       1.0000 0.85400  0.62100  0.07700  Biso   1.000  C
  C7       1.0000 0.14900  0.05500  0.65300  Biso   1.000  C
  C8       1.0000 0.85100  0.55500  0.34700  Biso   1.000  C
  C9       1.0000 0.07700  0.01700  0.76700  Biso   1.000  C
  C10      1.0000 0.92300  0.51700  0.23300  Biso   1.000  C
  H1       1.0000 0.45900  0.43100  0.87100  Biso   1.000  H
  H2       1.0000 0.54100  0.93100  0.12900  Biso   1.000  H
  H3       1.0000 0.32700  0.37700  0.06800  Biso   1.000  H
  H4       1.0000 0.67300  0.87700  0.93200  Biso   1.000  H
  H5       1.0000 0.12900  0.13300  0.01700  Biso   1.000  H
  H6       1.0000 0.87100  0.63300  0.98300  Biso   1.000  H
  H7       1.0000 0.10200  0.00900  0.54500  Biso   1.000  H
  H8       1.0000 0.89800  0.50900  0.45500  Biso   1.000  H
  H9       1.0000 0.00200  0.90900  0.75400  Biso   1.000  H
  H10      1.0000 0.99800  0.40900  0.24600  Biso   1.000  H
