data_image0
_cell_length_a       20.667
_cell_length_b       17.965
_cell_length_c       8.738
_cell_angle_alpha    95.9
_cell_angle_beta     90.62
_cell_angle_gamma    108.71

_symmetry_space_group_name_H-M    "P 1"
_symmetry_int_tables_number       1

loop_
  _symmetry_equiv_pos_as_xyz
  'x, y, z'

loop_
  _atom_site_label
  _atom_site_occupancy
  _atom_site_fract_x
  _atom_site_fract_y
  _atom_site_fract_z
  _atom_site_thermal_displace_type
  _atom_site_B_iso_or_equiv
  _atom_site_type_symbol
  Cu1      1.0000 0.22540  0.25190  0.34060  Biso   1.000  Cu
  Cu2      1.0000 0.77460  0.74810  0.65940  Biso   1.000  Cu
  C1       1.0000 0.37150  0.30090  0.48670  Biso   1.000  C
  C2       1.0000 0.62850  0.69910  0.51330  Biso   1.000  C
  C3       1.0000 0.14790  0.07260  0.23020  Biso   1.000  C
  C4       1.0000 0.85210  0.92740  0.76980  Biso   1.000  C
  N1       1.0000 0.31580  0.24560  0.42220  Biso   1.000  N
  N2       1.0000 0.68420  0.75440  0.57780  Biso   1.000  N
  C5       1.0000 0.42630  0.28510  0.55660  Biso   1.000  C
  C6       1.0000 0.57370  0.71490  0.44340  Biso   1.000  C
  C7       1.0000 0.42270  0.20860  0.55940  Biso   1.000  C
  C8       1.0000 0.57730  0.79140  0.44060  Biso   1.000  C
  C9       1.0000 0.35820  0.06510  0.49530  Biso   1.000  C
  C10      1.0000 0.64180  0.93490  0.50470  Biso   1.000  C
  C11      1.0000 0.30470  0.00940  0.43110  Biso   1.000  C
  C12      1.0000 0.69530  0.99060  0.56890  Biso   1.000  C
  C13      1.0000 0.19110  0.96990  0.28800  Biso   1.000  C
  C14      1.0000 0.80890  0.03010  0.71200  Biso   1.000  C
  C15      1.0000 0.14110  0.99060  0.22580  Biso   1.000  C
  C16      1.0000 0.85890  0.00940  0.77420  Biso   1.000  C
  N3       1.0000 0.20220  0.12950  0.29480  Biso   1.000  N
  N4       1.0000 0.79780  0.87050  0.70520  Biso   1.000  N
  C17      1.0000 0.25340  0.10770  0.35500  Biso   1.000  C
  C18      1.0000 0.74660  0.89230  0.64500  Biso   1.000  C
  C19      1.0000 0.31310  0.16770  0.42330  Biso   1.000  C
  C20      1.0000 0.68690  0.83230  0.57670  Biso   1.000  C
  C21      1.0000 0.36680  0.14750  0.49370  Biso   1.000  C
  C22      1.0000 0.63320  0.85250  0.50630  Biso   1.000  C
  C23      1.0000 0.24970  0.02660  0.35580  Biso   1.000  C
  C24      1.0000 0.75030  0.97340  0.64420  Biso   1.000  C
  C25      1.0000 0.36990  0.38880  0.46960  Biso   1.000  C
  C26      1.0000 0.63010  0.61120  0.53040  Biso   1.000  C
  C27      1.0000 0.31170  0.40810  0.51010  Biso   1.000  C
  C28      1.0000 0.68830  0.59190  0.48990  Biso   1.000  C
  C29      1.0000 0.30420  0.47840  0.47110  Biso   1.000  C
  C30      1.0000 0.69580  0.52160  0.52890  Biso   1.000  C
  C31      1.0000 0.35490  0.52920  0.39170  Biso   1.000  C
  C32      1.0000 0.64510  0.47080  0.60830  Biso   1.000  C
  C33      1.0000 0.41310  0.50970  0.35130  Biso   1.000  C
  C34      1.0000 0.58690  0.49030  0.64870  Biso   1.000  C
  C35      1.0000 0.42060  0.43950  0.39020  Biso   1.000  C
  C36      1.0000 0.57940  0.56050  0.60980  Biso   1.000  C
  O1       1.0000 0.35600  0.59550  0.33000  Biso   1.000  O
  O2       1.0000 0.64400  0.40450  0.67000  Biso   1.000  O
  C37      1.0000 0.28930  0.61390  0.34690  Biso   1.000  C
  C38      1.0000 0.71070  0.38610  0.65310  Biso   1.000  C
  C39      1.0000 0.28310  0.65570  0.20550  Biso   1.000  C
  C40      1.0000 0.71690  0.34430  0.79450  Biso   1.000  C
  O3       1.0000 0.27420  0.60970  0.06730  Biso   1.000  O
  O4       1.0000 0.72580  0.39030  0.93270  Biso   1.000  O
  C41      1.0000 0.26280  0.65410  0.95660  Biso   1.000  C
  C42      1.0000 0.73720  0.34590  0.04340  Biso   1.000  C
  C43      1.0000 0.24640  0.59600  0.81400  Biso   1.000  C
  C44      1.0000 0.75360  0.40400  0.18600  Biso   1.000  C
  O5       1.0000 0.18440  0.53520  0.78970  Biso   1.000  O
  O6       1.0000 0.81560  0.46480  0.21030  Biso   1.000  O
  C45      1.0000 0.13260  0.55210  0.71420  Biso   1.000  C
  C46      1.0000 0.86740  0.44790  0.28580  Biso   1.000  C
  C47      1.0000 0.07390  0.47510  0.67470  Biso   1.000  C
  C48      1.0000 0.92610  0.52490  0.32530  Biso   1.000  C
  O7       1.0000 0.03270  0.46360  0.79280  Biso   1.000  O
  O8       1.0000 0.96730  0.53640  0.20720  Biso   1.000  O
  C49      1.0000 0.96870  0.41260  0.75100  Biso   1.000  C
  C50      1.0000 0.03130  0.58740  0.24900  Biso   1.000  C
  C51      1.0000 0.92670  0.37270  0.85960  Biso   1.000  C
  C52      1.0000 0.07330  0.62730  0.14040  Biso   1.000  C
  O9       1.0000 0.91550  0.32060  0.93940  Biso   1.000  O
  O10      1.0000 0.08450  0.67940  0.06060  Biso   1.000  O
  C53      1.0000 0.87410  0.24810  0.90680  Biso   1.000  C
  C54      1.0000 0.12590  0.75190  0.09320  Biso   1.000  C
  C55      1.0000 0.89930  0.19490  0.00360  Biso   1.000  C
  C56      1.0000 0.10070  0.80510  0.99640  Biso   1.000  C
  O11      1.0000 0.96730  0.19640  0.93090  Biso   1.000  O
  O12      1.0000 0.03270  0.80360  0.06910  Biso   1.000  O
  C57      1.0000 0.09880  0.10090  0.14590  Biso   1.000  C
  C58      1.0000 0.90120  0.89910  0.85410  Biso   1.000  C
  C59      1.0000 0.03000  0.07410  0.17990  Biso   1.000  C
  C60      1.0000 0.97000  0.92590  0.82010  Biso   1.000  C
  C61      1.0000 0.98340  0.10300  0.10940  Biso   1.000  C
  C62      1.0000 0.01660  0.89700  0.89060  Biso   1.000  C
  C63      1.0000 0.00580  0.15850  0.00480  Biso   1.000  C
  C64      1.0000 0.99420  0.84150  0.99520  Biso   1.000  C
  C65      1.0000 0.07470  0.18530  0.97080  Biso   1.000  C
  C66      1.0000 0.92530  0.81470  0.02920  Biso   1.000  C
  C67      1.0000 0.12120  0.15640  0.04130  Biso   1.000  C
  C68      1.0000 0.87880  0.84360  0.95870  Biso   1.000  C
  C69      1.0000 0.22320  0.37390  0.12260  Biso   1.000  C
  C70      1.0000 0.77680  0.62610  0.87740  Biso   1.000  C
  C71      1.0000 0.10320  0.18620  0.55040  Biso   1.000  C
  C72      1.0000 0.89680  0.81380  0.44960  Biso   1.000  C
  N5       1.0000 0.19470  0.32730  0.22880  Biso   1.000  N
  N6       1.0000 0.80530  0.67270  0.77120  Biso   1.000  N
  C73      1.0000 0.19060  0.41760  0.04550  Biso   1.000  C
  C74      1.0000 0.80940  0.58240  0.95450  Biso   1.000  C
  C75      1.0000 0.12570  0.41230  0.08080  Biso   1.000  C
  C76      1.0000 0.87430  0.58770  0.91920  Biso   1.000  C
  C77      1.0000 0.02350  0.35520  0.23250  Biso   1.000  C
  C78      1.0000 0.97650  0.64480  0.76750  Biso   1.000  C
  C79      1.0000 0.99440  0.31090  0.33790  Biso   1.000  C
  C80      1.0000 0.00560  0.68910  0.66210  Biso   1.000  C
  C81      1.0000 0.00060  0.21910  0.53040  Biso   1.000  C
  C82      1.0000 0.99940  0.78090  0.46960  Biso   1.000  C
  C83      1.0000 0.03540  0.17900  0.59620  Biso   1.000  C
  C84      1.0000 0.96460  0.82100  0.40380  Biso   1.000  C
  N7       1.0000 0.13320  0.23140  0.44370  Biso   1.000  N
  N8       1.0000 0.86680  0.76860  0.55630  Biso   1.000  N
  C85      1.0000 0.09770  0.27330  0.37980  Biso   1.000  C
  C86      1.0000 0.90230  0.72670  0.62020  Biso   1.000  C
  C87      1.0000 0.12900  0.32330  0.26610  Biso   1.000  C
  C88      1.0000 0.87100  0.67670  0.73390  Biso   1.000  C
  C89      1.0000 0.09260  0.36570  0.19120  Biso   1.000  C
  C90      1.0000 0.90740  0.63430  0.80880  Biso   1.000  C
  C91      1.0000 0.02930  0.26820  0.41920  Biso   1.000  C
  C92      1.0000 0.97070  0.73180  0.58080  Biso   1.000  C
  C93      1.0000 0.29640  0.37630  0.05810  Biso   1.000  C
  C94      1.0000 0.70360  0.62370  0.94190  Biso   1.000  C
  C95      1.0000 0.33960  0.44080  0.99300  Biso   1.000  C
  C96      1.0000 0.66040  0.55920  0.00700  Biso   1.000  C
  C97      1.0000 0.40330  0.43960  0.94380  Biso   1.000  C
  C98      1.0000 0.59670  0.56040  0.05620  Biso   1.000  C
  C99      1.0000 0.42380  0.37390  0.95970  Biso   1.000  C
  C100     1.0000 0.57620  0.62610  0.04030  Biso   1.000  C
  C101     1.0000 0.38060  0.30930  0.02470  Biso   1.000  C
  C102     1.0000 0.61940  0.69070  0.97530  Biso   1.000  C
  C103     1.0000 0.31690  0.31060  0.07390  Biso   1.000  C
  C104     1.0000 0.68310  0.68940  0.92610  Biso   1.000  C
  O13      1.0000 0.48580  0.37830  0.89740  Biso   1.000  O
  O14      1.0000 0.51420  0.62170  0.10260  Biso   1.000  O
  C105     1.0000 0.51860  0.32470  0.93970  Biso   1.000  C
  C106     1.0000 0.48140  0.67530  0.06030  Biso   1.000  C
  C107     1.0000 0.54030  0.32740  0.10420  Biso   1.000  C
  C108     1.0000 0.45970  0.67260  0.89580  Biso   1.000  C
  O15      1.0000 0.55730  0.26700  0.14000  Biso   1.000  O
  O16      1.0000 0.44270  0.73300  0.86000  Biso   1.000  O
  C109     1.0000 0.56710  0.26430  0.30060  Biso   1.000  C
  C110     1.0000 0.43290  0.73570  0.69940  Biso   1.000  C
  C111     1.0000 0.57360  0.18590  0.31430  Biso   1.000  C
  C112     1.0000 0.42640  0.81410  0.68570  Biso   1.000  C
  O17      1.0000 0.56970  0.18130  0.46930  Biso   1.000  O
  O18      1.0000 0.43030  0.81870  0.53070  Biso   1.000  O
  C113     1.0000 0.57380  0.11060  0.51470  Biso   1.000  C
  C114     1.0000 0.42620  0.88940  0.48530  Biso   1.000  C
  C115     1.0000 0.57360  0.10570  0.68640  Biso   1.000  C
  C116     1.0000 0.42640  0.89430  0.31360  Biso   1.000  C
  O19      1.0000 0.50550  0.09440  0.72160  Biso   1.000  O
  O20      1.0000 0.49450  0.90560  0.27840  Biso   1.000  O
  C117     1.0000 0.50110  0.08750  0.87970  Biso   1.000  C
  C118     1.0000 0.49890  0.91250  0.12030  Biso   1.000  C
  C119     1.0000 0.42830  0.07240  0.93310  Biso   1.000  C
  C120     1.0000 0.57170  0.92760  0.06690  Biso   1.000  C
  O21      1.0000 0.38970  0.99090  0.87040  Biso   1.000  O
  O22      1.0000 0.61030  0.00910  0.12960  Biso   1.000  O
  C121     1.0000 0.32540  0.96100  0.93030  Biso   1.000  C
  C122     1.0000 0.67460  0.03900  0.06970  Biso   1.000  C
  C123     1.0000 0.26990  0.97310  0.83550  Biso   1.000  C
  C124     1.0000 0.73010  0.02690  0.16450  Biso   1.000  C
  O23      1.0000 0.27900  0.05550  0.85450  Biso   1.000  O
  O24      1.0000 0.72100  0.94450  0.14550  Biso   1.000  O
  C125     1.0000 0.14950  0.14820  0.63060  Biso   1.000  C
  C126     1.0000 0.85050  0.85180  0.36940  Biso   1.000  C
  C127     1.0000 0.21140  0.19610  0.70360  Biso   1.000  C
  C128     1.0000 0.78860  0.80390  0.29640  Biso   1.000  C
  C129     1.0000 0.25330  0.16200  0.77690  Biso   1.000  C
  C130     1.0000 0.74670  0.83800  0.22310  Biso   1.000  C
  C131     1.0000 0.23340  0.08010  0.77710  Biso   1.000  C
  C132     1.0000 0.76660  0.91990  0.22290  Biso   1.000  C
  C133     1.0000 0.17150  0.03230  0.70410  Biso   1.000  C
  C134     1.0000 0.82850  0.96770  0.29590  Biso   1.000  C
  C135     1.0000 0.12960  0.06630  0.63080  Biso   1.000  C
  C136     1.0000 0.87040  0.93370  0.36920  Biso   1.000  C
  B1       1.0000 0.20390  0.78190  0.54850  Biso   1.000  B
  B2       1.0000 0.79610  0.21810  0.45150  Biso   1.000  B
  F1       1.0000 0.16800  0.71150  0.49860  Biso   1.000  F
  F2       1.0000 0.83200  0.28850  0.50140  Biso   1.000  F
  F3       1.0000 0.16500  0.82350  0.57560  Biso   1.000  F
  F4       1.0000 0.83500  0.17650  0.42440  Biso   1.000  F
  F5       1.0000 0.24580  0.81100  0.44790  Biso   1.000  F
  F6       1.0000 0.75420  0.18900  0.55210  Biso   1.000  F
  F7       1.0000 0.23680  0.78140  0.67200  Biso   1.000  F
  F8       1.0000 0.76320  0.21860  0.32800  Biso   1.000  F
