data_image0
_cell_length_a       7.721
_cell_length_b       7.753
_cell_length_c       16.113
_cell_angle_alpha    90
_cell_angle_beta     90.67
_cell_angle_gamma    90

_symmetry_space_group_name_H-M    "P 1"
_symmetry_int_tables_number       1

loop_
  _symmetry_equiv_pos_as_xyz
  'x, y, z'

loop_
  _atom_site_label
  _atom_site_occupancy
  _atom_site_fract_x
  _atom_site_fract_y
  _atom_site_fract_z
  _atom_site_thermal_displace_type
  _atom_site_B_iso_or_equiv
  _atom_site_type_symbol
  Cu1      1.0000 0.21013  0.11883  0.17978  Biso   1.000  Cu
  Cu2      1.0000 0.78987  0.61883  0.32022  Biso   1.000  Cu
  Cu3      1.0000 0.78987  0.88117  0.82022  Biso   1.000  Cu
  Cu4      1.0000 0.21013  0.38117  0.67978  Biso   1.000  Cu
  N1       1.0000 0.08080  0.02620  0.27020  Biso   1.000  N
  N2       1.0000 0.91920  0.52620  0.22980  Biso   1.000  N
  N3       1.0000 0.91920  0.97380  0.72980  Biso   1.000  N
  N4       1.0000 0.08080  0.47380  0.77020  Biso   1.000  N
  C1       1.0000 0.99160  0.95830  0.31570  Biso   1.000  C
  C2       1.0000 0.00840  0.45830  0.18430  Biso   1.000  C
  C3       1.0000 0.00840  0.04170  0.68430  Biso   1.000  C
  C4       1.0000 0.99160  0.54170  0.81570  Biso   1.000  C
  S1       1.0000 0.14130  0.36690  0.11730  Biso   1.000  S
  S2       1.0000 0.85870  0.86690  0.38270  Biso   1.000  S
  S3       1.0000 0.85870  0.63310  0.88270  Biso   1.000  S
  S4       1.0000 0.14130  0.13310  0.61730  Biso   1.000  S
  N5       1.0000 0.40330  0.98280  0.13150  Biso   1.000  N
  N6       1.0000 0.59670  0.48280  0.36850  Biso   1.000  N
  N7       1.0000 0.59670  0.01720  0.86850  Biso   1.000  N
  N8       1.0000 0.40330  0.51720  0.63150  Biso   1.000  N
  C5       1.0000 0.36830  0.85380  0.07720  Biso   1.000  C
  C6       1.0000 0.63170  0.35380  0.42280  Biso   1.000  C
  C7       1.0000 0.63170  0.14620  0.92280  Biso   1.000  C
  C8       1.0000 0.36830  0.64620  0.57720  Biso   1.000  C
  C9       1.0000 0.18240  0.82990  0.05250  Biso   1.000  C
  C10      1.0000 0.81760  0.32990  0.44750  Biso   1.000  C
  C11      1.0000 0.81760  0.17010  0.94750  Biso   1.000  C
  C12      1.0000 0.18240  0.67010  0.55250  Biso   1.000  C
  C13      1.0000 0.49920  0.74880  0.04790  Biso   1.000  C
  C14      1.0000 0.50080  0.24880  0.45210  Biso   1.000  C
  C15      1.0000 0.50080  0.25120  0.95210  Biso   1.000  C
  C16      1.0000 0.49920  0.75120  0.54790  Biso   1.000  C
  C17      1.0000 0.66650  0.77260  0.07500  Biso   1.000  C
  C18      1.0000 0.33350  0.27260  0.42500  Biso   1.000  C
  C19      1.0000 0.33350  0.22740  0.92500  Biso   1.000  C
  C20      1.0000 0.66650  0.72740  0.57500  Biso   1.000  C
  C21      1.0000 0.70290  0.90530  0.12930  Biso   1.000  C
  C22      1.0000 0.29710  0.40530  0.37070  Biso   1.000  C
  C23      1.0000 0.29710  0.09470  0.87070  Biso   1.000  C
  C24      1.0000 0.70290  0.59470  0.62930  Biso   1.000  C
  C25      1.0000 0.56810  0.00880  0.15600  Biso   1.000  C
  C26      1.0000 0.43190  0.50880  0.34400  Biso   1.000  C
  C27      1.0000 0.43190  0.99120  0.84400  Biso   1.000  C
  C28      1.0000 0.56810  0.49120  0.65600  Biso   1.000  C
  C29      1.0000 0.59950  0.15560  0.21470  Biso   1.000  C
  C30      1.0000 0.40050  0.65560  0.28530  Biso   1.000  C
  C31      1.0000 0.40050  0.84440  0.78530  Biso   1.000  C
  C32      1.0000 0.59950  0.34440  0.71470  Biso   1.000  C
  H1       1.0000 0.13100  0.93100  0.03800  Biso   1.000  H
  H2       1.0000 0.86900  0.43100  0.46200  Biso   1.000  H
  H3       1.0000 0.86900  0.06900  0.96200  Biso   1.000  H
  H4       1.0000 0.13100  0.56900  0.53800  Biso   1.000  H
  H5       1.0000 0.11000  0.80500  0.09800  Biso   1.000  H
  H6       1.0000 0.89000  0.30500  0.40200  Biso   1.000  H
  H7       1.0000 0.89000  0.19500  0.90200  Biso   1.000  H
  H8       1.0000 0.11000  0.69500  0.59800  Biso   1.000  H
  H9       1.0000 0.19300  0.73100  0.00000  Biso   1.000  H
  H10      1.0000 0.80700  0.23100  0.50000  Biso   1.000  H
  H11      1.0000 0.80700  0.26900  0.00000  Biso   1.000  H
  H12      1.0000 0.19300  0.76900  0.50000  Biso   1.000  H
  H13      1.0000 0.47300  0.66000  0.00700  Biso   1.000  H
  H14      1.0000 0.52700  0.16000  0.49300  Biso   1.000  H
  H15      1.0000 0.52700  0.34000  0.99300  Biso   1.000  H
  H16      1.0000 0.47300  0.84000  0.50700  Biso   1.000  H
  H17      1.0000 0.75500  0.69100  0.05700  Biso   1.000  H
  H18      1.0000 0.24500  0.19100  0.44300  Biso   1.000  H
  H19      1.0000 0.24500  0.30900  0.94300  Biso   1.000  H
  H20      1.0000 0.75500  0.80900  0.55700  Biso   1.000  H
  H21      1.0000 0.81900  0.92600  0.14900  Biso   1.000  H
  H22      1.0000 0.18100  0.42600  0.35100  Biso   1.000  H
  H23      1.0000 0.18100  0.07400  0.85100  Biso   1.000  H
  H24      1.0000 0.81900  0.57400  0.64900  Biso   1.000  H
  H25      1.0000 0.70600  0.18000  0.22700  Biso   1.000  H
  H26      1.0000 0.29400  0.68000  0.27300  Biso   1.000  H
  H27      1.0000 0.29400  0.82000  0.77300  Biso   1.000  H
  H28      1.0000 0.70600  0.32000  0.72700  Biso   1.000  H
  H29      1.0000 0.56200  0.26200  0.19300  Biso   1.000  H
  H30      1.0000 0.43800  0.76200  0.30700  Biso   1.000  H
  H31      1.0000 0.43800  0.73800  0.80700  Biso   1.000  H
  H32      1.0000 0.56200  0.23800  0.69300  Biso   1.000  H
  H33      1.0000 0.52200  0.13500  0.26200  Biso   1.000  H
  H34      1.0000 0.47800  0.63500  0.23800  Biso   1.000  H
  H35      1.0000 0.47800  0.86500  0.73800  Biso   1.000  H
  H36      1.0000 0.52200  0.36500  0.76200  Biso   1.000  H
