data_image0
_cell_length_a       9.452
_cell_length_b       8.077
_cell_length_c       5.779
_cell_angle_alpha    104.33
_cell_angle_beta     96.64
_cell_angle_gamma    100.83

_symmetry_space_group_name_H-M    "P 1"
_symmetry_int_tables_number       1

loop_
  _symmetry_equiv_pos_as_xyz
  'x, y, z'

loop_
  _atom_site_label
  _atom_site_occupancy
  _atom_site_fract_x
  _atom_site_fract_y
  _atom_site_fract_z
  _atom_site_thermal_displace_type
  _atom_site_B_iso_or_equiv
  _atom_site_type_symbol
  Cu1      1.0000 0.34679  0.00994  0.37844  Biso   1.000  Cu
  Cu2      1.0000 0.65321  0.99006  0.62156  Biso   1.000  Cu
  N1       1.0000 0.32660  0.91080  0.03540  Biso   1.000  N
  N2       1.0000 0.67340  0.08920  0.96460  Biso   1.000  N
  C1       1.0000 0.34380  0.85790  0.83850  Biso   1.000  C
  C2       1.0000 0.65620  0.14210  0.16150  Biso   1.000  C
  S1       1.0000 0.62906  0.21879  0.44265  Biso   1.000  S
  S2       1.0000 0.37094  0.78121  0.55735  Biso   1.000  S
  N3       1.0000 0.27010  0.19300  0.59720  Biso   1.000  N
  N4       1.0000 0.72990  0.80700  0.40280  Biso   1.000  N
  C3       1.0000 0.14490  0.24130  0.53940  Biso   1.000  C
  C4       1.0000 0.85510  0.75870  0.46060  Biso   1.000  C
  C5       1.0000 0.10140  0.37130  0.70090  Biso   1.000  C
  C6       1.0000 0.89860  0.62870  0.29910  Biso   1.000  C
  C7       1.0000 0.18300  0.45250  0.92360  Biso   1.000  C
  C8       1.0000 0.81700  0.54750  0.07640  Biso   1.000  C
  C9       1.0000 0.30920  0.40230  0.98590  Biso   1.000  C
  C10      1.0000 0.69080  0.59770  0.01410  Biso   1.000  C
  C11      1.0000 0.34830  0.27340  0.82040  Biso   1.000  C
  C12      1.0000 0.65170  0.72660  0.17960  Biso   1.000  C
  C13      1.0000 0.05650  0.14530  0.29350  Biso   1.000  C
  C14      1.0000 0.94350  0.85470  0.70650  Biso   1.000  C
  H1       1.0000 0.11000  0.15700  0.18300  Biso   1.000  H
  H2       1.0000 0.89000  0.84300  0.81700  Biso   1.000  H
  H3       1.0000 0.03600  0.02600  0.27600  Biso   1.000  H
  H4       1.0000 0.96400  0.97400  0.72400  Biso   1.000  H
  H5       1.0000 0.98500  0.17700  0.25800  Biso   1.000  H
  H6       1.0000 0.01500  0.82300  0.74200  Biso   1.000  H
  H7       1.0000 0.02400  0.40100  0.65800  Biso   1.000  H
  H8       1.0000 0.97600  0.59900  0.34200  Biso   1.000  H
  H9       1.0000 0.15800  0.54400  0.03300  Biso   1.000  H
  H10      1.0000 0.84200  0.45600  0.96700  Biso   1.000  H
  H11      1.0000 0.36800  0.44100  0.12800  Biso   1.000  H
  H12      1.0000 0.63200  0.55900  0.87200  Biso   1.000  H
  H13      1.0000 0.44300  0.23600  0.85800  Biso   1.000  H
  H14      1.0000 0.55700  0.76400  0.14200  Biso   1.000  H
