data_image0
_cell_length_a       16.219
_cell_length_b       12.838
_cell_length_c       8.032
_cell_angle_alpha    90
_cell_angle_beta     90
_cell_angle_gamma    90

_symmetry_space_group_name_H-M    "P 1"
_symmetry_int_tables_number       1

loop_
  _symmetry_equiv_pos_as_xyz
  'x, y, z'

loop_
  _atom_site_label
  _atom_site_occupancy
  _atom_site_fract_x
  _atom_site_fract_y
  _atom_site_fract_z
  _atom_site_thermal_displace_type
  _atom_site_B_iso_or_equiv
  _atom_site_type_symbol
  Cu1      1.0000 0.19010  0.15830  0.09110  Biso   1.000  Cu
  Cu2      1.0000 0.30990  0.84170  0.59110  Biso   1.000  Cu
  Cu3      1.0000 0.69010  0.34170  0.90890  Biso   1.000  Cu
  Cu4      1.0000 0.80990  0.65830  0.40890  Biso   1.000  Cu
  N1       1.0000 0.25770  0.07050  0.24470  Biso   1.000  N
  N2       1.0000 0.24230  0.92950  0.74470  Biso   1.000  N
  N3       1.0000 0.75770  0.42950  0.75530  Biso   1.000  N
  N4       1.0000 0.74230  0.57050  0.25530  Biso   1.000  N
  C1       1.0000 0.30160  0.01340  0.30780  Biso   1.000  C
  C2       1.0000 0.19840  0.98660  0.80780  Biso   1.000  C
  C3       1.0000 0.80160  0.48660  0.69220  Biso   1.000  C
  C4       1.0000 0.69840  0.51340  0.19220  Biso   1.000  C
  S1       1.0000 0.12560  0.06360  0.88750  Biso   1.000  S
  S2       1.0000 0.37440  0.93640  0.38750  Biso   1.000  S
  S3       1.0000 0.62560  0.43640  0.11250  Biso   1.000  S
  S4       1.0000 0.87440  0.56360  0.61250  Biso   1.000  S
  N5       1.0000 0.09750  0.22050  0.24400  Biso   1.000  N
  N6       1.0000 0.40250  0.77950  0.74400  Biso   1.000  N
  N7       1.0000 0.59750  0.27950  0.75600  Biso   1.000  N
  N8       1.0000 0.90250  0.72050  0.25600  Biso   1.000  N
  N9       1.0000 0.27760  0.27620  0.04100  Biso   1.000  N
  N10      1.0000 0.22240  0.72380  0.54100  Biso   1.000  N
  N11      1.0000 0.77760  0.22380  0.95900  Biso   1.000  N
  N12      1.0000 0.72240  0.77620  0.45900  Biso   1.000  N
  C5       1.0000 0.09530  0.19460  0.40100  Biso   1.000  C
  C6       1.0000 0.40470  0.80540  0.90100  Biso   1.000  C
  C7       1.0000 0.59530  0.30540  0.59900  Biso   1.000  C
  C8       1.0000 0.90470  0.69460  0.09900  Biso   1.000  C
  C9       1.0000 0.32370  0.30350  0.16900  Biso   1.000  C
  C10      1.0000 0.17630  0.69650  0.66900  Biso   1.000  C
  C11      1.0000 0.82370  0.19650  0.83100  Biso   1.000  C
  C12      1.0000 0.67630  0.80350  0.33100  Biso   1.000  C
  C13      1.0000 0.03490  0.22790  0.50800  Biso   1.000  C
  C14      1.0000 0.46510  0.77210  0.00800  Biso   1.000  C
  C15      1.0000 0.53490  0.27210  0.49200  Biso   1.000  C
  C16      1.0000 0.96510  0.72790  0.99200  Biso   1.000  C
  C17      1.0000 0.38470  0.37840  0.16000  Biso   1.000  C
  C18      1.0000 0.11530  0.62160  0.66000  Biso   1.000  C
  C19      1.0000 0.88470  0.12160  0.84000  Biso   1.000  C
  C20      1.0000 0.61530  0.87840  0.34000  Biso   1.000  C
  C21      1.0000 0.97470  0.29160  0.45800  Biso   1.000  C
  C22      1.0000 0.52530  0.70840  0.95800  Biso   1.000  C
  C23      1.0000 0.47470  0.20840  0.54200  Biso   1.000  C
  C24      1.0000 0.02530  0.79160  0.04200  Biso   1.000  C
  C25      1.0000 0.39840  0.43230  0.01600  Biso   1.000  C
  C26      1.0000 0.10160  0.56770  0.51600  Biso   1.000  C
  C27      1.0000 0.89840  0.06770  0.98400  Biso   1.000  C
  C28      1.0000 0.60160  0.93230  0.48400  Biso   1.000  C
  C29      1.0000 0.97350  0.32300  0.28600  Biso   1.000  C
  C30      1.0000 0.52650  0.67700  0.78600  Biso   1.000  C
  C31      1.0000 0.47350  0.17700  0.71400  Biso   1.000  C
  C32      1.0000 0.02650  0.82300  0.21400  Biso   1.000  C
  C33      1.0000 0.35030  0.40870  0.87300  Biso   1.000  C
  C34      1.0000 0.14970  0.59130  0.37300  Biso   1.000  C
  C35      1.0000 0.85030  0.09130  0.12700  Biso   1.000  C
  C36      1.0000 0.64970  0.90870  0.62700  Biso   1.000  C
  C37      1.0000 0.91210  0.38820  0.22400  Biso   1.000  C
  C38      1.0000 0.58790  0.61180  0.72400  Biso   1.000  C
  C39      1.0000 0.41210  0.11180  0.77600  Biso   1.000  C
  C40      1.0000 0.08790  0.88820  0.27600  Biso   1.000  C
  C41      1.0000 0.36140  0.45920  0.71800  Biso   1.000  C
  C42      1.0000 0.13860  0.54080  0.21800  Biso   1.000  C
  C43      1.0000 0.86140  0.04080  0.28200  Biso   1.000  C
  C44      1.0000 0.63860  0.95920  0.78200  Biso   1.000  C
  C45      1.0000 0.91730  0.41630  0.05700  Biso   1.000  C
  C46      1.0000 0.58270  0.58370  0.55700  Biso   1.000  C
  C47      1.0000 0.41730  0.08370  0.94300  Biso   1.000  C
  C48      1.0000 0.08270  0.91630  0.44300  Biso   1.000  C
  C49      1.0000 0.30810  0.43680  0.59700  Biso   1.000  C
  C50      1.0000 0.19190  0.56320  0.09700  Biso   1.000  C
  C51      1.0000 0.80810  0.06320  0.40300  Biso   1.000  C
  C52      1.0000 0.69190  0.93680  0.90300  Biso   1.000  C
  C53      1.0000 0.97910  0.38170  0.95200  Biso   1.000  C
  C54      1.0000 0.52090  0.61830  0.45200  Biso   1.000  C
  C55      1.0000 0.47910  0.11830  0.04800  Biso   1.000  C
  C56      1.0000 0.02090  0.88170  0.54800  Biso   1.000  C
  C57      1.0000 0.24990  0.35530  0.60400  Biso   1.000  C
  C58      1.0000 0.25010  0.64470  0.10400  Biso   1.000  C
  C59      1.0000 0.74990  0.14470  0.39600  Biso   1.000  C
  C60      1.0000 0.75010  0.85530  0.89600  Biso   1.000  C
  C61      1.0000 0.03740  0.31820  0.01500  Biso   1.000  C
  C62      1.0000 0.46260  0.68180  0.51500  Biso   1.000  C
  C63      1.0000 0.53740  0.18180  0.98500  Biso   1.000  C
  C64      1.0000 0.96260  0.81820  0.48500  Biso   1.000  C
  C65      1.0000 0.24000  0.30600  0.75200  Biso   1.000  C
  C66      1.0000 0.26000  0.69400  0.25200  Biso   1.000  C
  C67      1.0000 0.74000  0.19400  0.24800  Biso   1.000  C
  C68      1.0000 0.76000  0.80600  0.74800  Biso   1.000  C
  C69      1.0000 0.03830  0.28230  0.18700  Biso   1.000  C
  C70      1.0000 0.46170  0.71770  0.68700  Biso   1.000  C
  C71      1.0000 0.53830  0.21770  0.81300  Biso   1.000  C
  C72      1.0000 0.96170  0.78230  0.31300  Biso   1.000  C
  C73      1.0000 0.28920  0.32790  0.89300  Biso   1.000  C
  C74      1.0000 0.21080  0.67210  0.39300  Biso   1.000  C
  C75      1.0000 0.78920  0.17210  0.10700  Biso   1.000  C
  C76      1.0000 0.71080  0.82790  0.60700  Biso   1.000  C
  H1       1.0000 0.13900  0.14900  0.45200  Biso   1.000  H
  H2       1.0000 0.36100  0.85100  0.95200  Biso   1.000  H
  H3       1.0000 0.63900  0.35100  0.54800  Biso   1.000  H
  H4       1.0000 0.86100  0.64900  0.04800  Biso   1.000  H
  H5       1.0000 0.31400  0.27100  0.28100  Biso   1.000  H
  H6       1.0000 0.18600  0.72900  0.78100  Biso   1.000  H
  H7       1.0000 0.81400  0.22900  0.71900  Biso   1.000  H
  H8       1.0000 0.68600  0.77100  0.21900  Biso   1.000  H
  H9       1.0000 0.03500  0.20600  0.62500  Biso   1.000  H
  H10      1.0000 0.46500  0.79400  0.12500  Biso   1.000  H
  H11      1.0000 0.53500  0.29400  0.37500  Biso   1.000  H
  H12      1.0000 0.96500  0.70600  0.87500  Biso   1.000  H
  H13      1.0000 0.41900  0.39800  0.26000  Biso   1.000  H
  H14      1.0000 0.08100  0.60200  0.76000  Biso   1.000  H
  H15      1.0000 0.91900  0.10200  0.74000  Biso   1.000  H
  H16      1.0000 0.58100  0.89800  0.24000  Biso   1.000  H
  H17      1.0000 0.92900  0.31500  0.53600  Biso   1.000  H
  H18      1.0000 0.57100  0.68500  0.03600  Biso   1.000  H
  H19      1.0000 0.42900  0.18500  0.46400  Biso   1.000  H
  H20      1.0000 0.07100  0.81500  0.96400  Biso   1.000  H
  H21      1.0000 0.44300  0.48400  0.00600  Biso   1.000  H
  H22      1.0000 0.05700  0.51600  0.50600  Biso   1.000  H
  H23      1.0000 0.94300  0.01600  0.99400  Biso   1.000  H
  H24      1.0000 0.55700  0.98400  0.49400  Biso   1.000  H
  H25      1.0000 0.86400  0.41100  0.29600  Biso   1.000  H
  H26      1.0000 0.63600  0.58900  0.79600  Biso   1.000  H
  H27      1.0000 0.36400  0.08900  0.70400  Biso   1.000  H
  H28      1.0000 0.13600  0.91100  0.20400  Biso   1.000  H
  H29      1.0000 0.40500  0.51400  0.70500  Biso   1.000  H
  H30      1.0000 0.09500  0.48600  0.20500  Biso   1.000  H
  H31      1.0000 0.90500  0.98600  0.29500  Biso   1.000  H
  H32      1.0000 0.59500  0.01400  0.79500  Biso   1.000  H
  H33      1.0000 0.87500  0.46300  0.01100  Biso   1.000  H
  H34      1.0000 0.62500  0.53700  0.51100  Biso   1.000  H
  H35      1.0000 0.37500  0.03700  0.98900  Biso   1.000  H
  H36      1.0000 0.12500  0.96300  0.48900  Biso   1.000  H
  H37      1.0000 0.31500  0.47500  0.48700  Biso   1.000  H
  H38      1.0000 0.18500  0.52500  0.98700  Biso   1.000  H
  H39      1.0000 0.81500  0.02500  0.51300  Biso   1.000  H
  H40      1.0000 0.68500  0.97500  0.01300  Biso   1.000  H
  H41      1.0000 0.97700  0.40600  0.83900  Biso   1.000  H
  H42      1.0000 0.52300  0.59400  0.33900  Biso   1.000  H
  H43      1.0000 0.47700  0.09400  0.16100  Biso   1.000  H
  H44      1.0000 0.02300  0.90600  0.66100  Biso   1.000  H
  H45      1.0000 0.21900  0.33600  0.50400  Biso   1.000  H
  H46      1.0000 0.28100  0.66400  0.00400  Biso   1.000  H
  H47      1.0000 0.71900  0.16400  0.49600  Biso   1.000  H
  H48      1.0000 0.78100  0.83600  0.99600  Biso   1.000  H
  H49      1.0000 0.08000  0.29200  0.93700  Biso   1.000  H
  H50      1.0000 0.42000  0.70800  0.43700  Biso   1.000  H
  H51      1.0000 0.58000  0.20800  0.06300  Biso   1.000  H
  H52      1.0000 0.92000  0.79200  0.56300  Biso   1.000  H
  H53      1.0000 0.19200  0.25500  0.76400  Biso   1.000  H
  H54      1.0000 0.30800  0.74500  0.26400  Biso   1.000  H
  H55      1.0000 0.69200  0.24500  0.23600  Biso   1.000  H
  H56      1.0000 0.80800  0.75500  0.73600  Biso   1.000  H
