data_image0
_cell_length_a       28.93
_cell_length_b       5.867
_cell_length_c       20.19
_cell_angle_alpha    90
_cell_angle_beta     112.7
_cell_angle_gamma    90

_symmetry_space_group_name_H-M    "P 1"
_symmetry_int_tables_number       1

loop_
  _symmetry_equiv_pos_as_xyz
  'x, y, z'

loop_
  _atom_site_label
  _atom_site_occupancy
  _atom_site_fract_x
  _atom_site_fract_y
  _atom_site_fract_z
  _atom_site_thermal_displace_type
  _atom_site_B_iso_or_equiv
  _atom_site_type_symbol
  Cu1      1.0000 0.39125  0.49590  0.28328  Biso   1.000  Cu
  Cu2      1.0000 0.60875  0.99590  0.21672  Biso   1.000  Cu
  Cu3      1.0000 0.60875  0.50410  0.71672  Biso   1.000  Cu
  Cu4      1.0000 0.39125  0.00410  0.78328  Biso   1.000  Cu
  N1       1.0000 0.37510  0.80540  0.24330  Biso   1.000  N
  N2       1.0000 0.62490  0.30540  0.25670  Biso   1.000  N
  N3       1.0000 0.62490  0.19460  0.75670  Biso   1.000  N
  N4       1.0000 0.37510  0.69460  0.74330  Biso   1.000  N
  C1       1.0000 0.36740  0.98350  0.21770  Biso   1.000  C
  C2       1.0000 0.63260  0.48350  0.28230  Biso   1.000  C
  C3       1.0000 0.63260  0.01650  0.78230  Biso   1.000  C
  C4       1.0000 0.36740  0.51650  0.71770  Biso   1.000  C
  S1       1.0000 0.35440  0.24410  0.18440  Biso   1.000  S
  S2       1.0000 0.64560  0.74410  0.31560  Biso   1.000  S
  S3       1.0000 0.64560  0.75590  0.81560  Biso   1.000  S
  S4       1.0000 0.35440  0.25590  0.68440  Biso   1.000  S
  N5       1.0000 0.34880  0.47680  0.34830  Biso   1.000  N
  N6       1.0000 0.65120  0.97680  0.15170  Biso   1.000  N
  N7       1.0000 0.65120  0.52320  0.65170  Biso   1.000  N
  N8       1.0000 0.34880  0.02320  0.84830  Biso   1.000  N
  N9       1.0000 0.46690  0.41790  0.33110  Biso   1.000  N
  N10      1.0000 0.53310  0.91790  0.16890  Biso   1.000  N
  N11      1.0000 0.53310  0.58210  0.66890  Biso   1.000  N
  N12      1.0000 0.46690  0.08210  0.83110  Biso   1.000  N
  C5       1.0000 0.35310  0.30850  0.39370  Biso   1.000  C
  C6       1.0000 0.64690  0.80850  0.10630  Biso   1.000  C
  C7       1.0000 0.64690  0.69150  0.60630  Biso   1.000  C
  C8       1.0000 0.35310  0.19150  0.89370  Biso   1.000  C
  C9       1.0000 0.49940  0.53380  0.38690  Biso   1.000  C
  C10      1.0000 0.50060  0.03380  0.11310  Biso   1.000  C
  C11      1.0000 0.50060  0.46620  0.61310  Biso   1.000  C
  C12      1.0000 0.49940  0.96620  0.88690  Biso   1.000  C
  C13      1.0000 0.39390  0.12970  0.40810  Biso   1.000  C
  C14      1.0000 0.60610  0.62970  0.09190  Biso   1.000  C
  C15      1.0000 0.60610  0.87030  0.59190  Biso   1.000  C
  C16      1.0000 0.39390  0.37030  0.90810  Biso   1.000  C
  C17      1.0000 0.47790  0.72480  0.41510  Biso   1.000  C
  C18      1.0000 0.52210  0.22480  0.08490  Biso   1.000  C
  C19      1.0000 0.52210  0.27520  0.58490  Biso   1.000  C
  C20      1.0000 0.47790  0.77520  0.91510  Biso   1.000  C
  C21      1.0000 0.32020  0.28030  0.42940  Biso   1.000  C
  C22      1.0000 0.67980  0.78030  0.07060  Biso   1.000  C
  C23      1.0000 0.67980  0.71970  0.57060  Biso   1.000  C
  C24      1.0000 0.32020  0.21970  0.92940  Biso   1.000  C
  C25      1.0000 0.54920  0.47770  0.41770  Biso   1.000  C
  C26      1.0000 0.45080  0.97770  0.08230  Biso   1.000  C
  C27      1.0000 0.45080  0.52230  0.58230  Biso   1.000  C
  C28      1.0000 0.54920  0.02230  0.91770  Biso   1.000  C
  C29      1.0000 0.28250  0.43740  0.41810  Biso   1.000  C
  C30      1.0000 0.71750  0.93740  0.08190  Biso   1.000  C
  C31      1.0000 0.71750  0.56260  0.58190  Biso   1.000  C
  C32      1.0000 0.28250  0.06260  0.91810  Biso   1.000  C
  C33      1.0000 0.56900  0.29490  0.39390  Biso   1.000  C
  C34      1.0000 0.43100  0.79490  0.10610  Biso   1.000  C
  C35      1.0000 0.43100  0.70510  0.60610  Biso   1.000  C
  C36      1.0000 0.56900  0.20510  0.89390  Biso   1.000  C
  C37      1.0000 0.24600  0.40960  0.45390  Biso   1.000  C
  C38      1.0000 0.75400  0.90960  0.04610  Biso   1.000  C
  C39      1.0000 0.75400  0.59040  0.54610  Biso   1.000  C
  C40      1.0000 0.24600  0.09040  0.95390  Biso   1.000  C
  C41      1.0000 0.62460  0.23660  0.42900  Biso   1.000  C
  C42      1.0000 0.37540  0.73660  0.07100  Biso   1.000  C
  C43      1.0000 0.37540  0.76340  0.57100  Biso   1.000  C
  C44      1.0000 0.62460  0.26340  0.92900  Biso   1.000  C
  C45      1.0000 0.27860  0.61640  0.37110  Biso   1.000  C
  C46      1.0000 0.72140  0.11640  0.12890  Biso   1.000  C
  C47      1.0000 0.72140  0.38360  0.62890  Biso   1.000  C
  C48      1.0000 0.27860  0.88360  0.87110  Biso   1.000  C
  C49      1.0000 0.53510  0.18050  0.33530  Biso   1.000  C
  C50      1.0000 0.46490  0.68050  0.16470  Biso   1.000  C
  C51      1.0000 0.46490  0.81950  0.66470  Biso   1.000  C
  C52      1.0000 0.53510  0.31950  0.83530  Biso   1.000  C
  C53      1.0000 0.31180  0.62720  0.33760  Biso   1.000  C
  C54      1.0000 0.68820  0.12720  0.16240  Biso   1.000  C
  C55      1.0000 0.68820  0.37280  0.66240  Biso   1.000  C
  C56      1.0000 0.31180  0.87280  0.83760  Biso   1.000  C
  C57      1.0000 0.48550  0.24690  0.30610  Biso   1.000  C
  C58      1.0000 0.51450  0.74690  0.19390  Biso   1.000  C
  C59      1.0000 0.51450  0.75310  0.69390  Biso   1.000  C
  C60      1.0000 0.48550  0.25310  0.80610  Biso   1.000  C
  Cu5      1.0000 0.11787  0.10910  0.24123  Biso   1.000  Cu
  Cu6      1.0000 0.88213  0.60910  0.25877  Biso   1.000  Cu
  Cu7      1.0000 0.88213  0.89090  0.75877  Biso   1.000  Cu
  Cu8      1.0000 0.11787  0.39090  0.74123  Biso   1.000  Cu
  N13      1.0000 0.12820  0.42040  0.27690  Biso   1.000  N
  N14      1.0000 0.87180  0.92040  0.22310  Biso   1.000  N
  N15      1.0000 0.87180  0.57960  0.72310  Biso   1.000  N
  N16      1.0000 0.12820  0.07960  0.77690  Biso   1.000  N
  C61      1.0000 0.13410  0.60160  0.30210  Biso   1.000  C
  C62      1.0000 0.86590  0.10160  0.19790  Biso   1.000  C
  C63      1.0000 0.86590  0.39840  0.69790  Biso   1.000  C
  C64      1.0000 0.13410  0.89840  0.80210  Biso   1.000  C
  S5       1.0000 0.14210  0.85500  0.34010  Biso   1.000  S
  S6       1.0000 0.85790  0.35500  0.15990  Biso   1.000  S
  S7       1.0000 0.85790  0.14500  0.65990  Biso   1.000  S
  S8       1.0000 0.14210  0.64500  0.84010  Biso   1.000  S
  N17      1.0000 0.04200  0.03080  0.17800  Biso   1.000  N
  N18      1.0000 0.95800  0.53080  0.32200  Biso   1.000  N
  N19      1.0000 0.95800  0.96920  0.82200  Biso   1.000  N
  N20      1.0000 0.04200  0.46920  0.67800  Biso   1.000  N
  N21      1.0000 0.15440  0.97580  0.17810  Biso   1.000  N
  N22      1.0000 0.84560  0.47580  0.32190  Biso   1.000  N
  N23      1.0000 0.84560  0.02420  0.82190  Biso   1.000  N
  N24      1.0000 0.15440  0.52420  0.67810  Biso   1.000  N
  C65      1.0000 0.01560  0.13850  0.11670  Biso   1.000  C
  C66      1.0000 0.98440  0.63850  0.38330  Biso   1.000  C
  C67      1.0000 0.98440  0.86150  0.88330  Biso   1.000  C
  C68      1.0000 0.01560  0.36150  0.61670  Biso   1.000  C
  C69      1.0000 0.20160  0.01990  0.18710  Biso   1.000  C
  C70      1.0000 0.79840  0.51990  0.31290  Biso   1.000  C
  C71      1.0000 0.79840  0.98010  0.81290  Biso   1.000  C
  C72      1.0000 0.20160  0.48010  0.68710  Biso   1.000  C
  C73      1.0000 0.04250  0.32510  0.09180  Biso   1.000  C
  C74      1.0000 0.95750  0.82510  0.40820  Biso   1.000  C
  C75      1.0000 0.95750  0.67490  0.90820  Biso   1.000  C
  C76      1.0000 0.04250  0.17490  0.59180  Biso   1.000  C
  C77      1.0000 0.22870  0.21100  0.23500  Biso   1.000  C
  C78      1.0000 0.77130  0.71100  0.26500  Biso   1.000  C
  C79      1.0000 0.77130  0.78900  0.76500  Biso   1.000  C
  C80      1.0000 0.22870  0.28900  0.73500  Biso   1.000  C
  C81      1.0000 0.96620  0.08280  0.07360  Biso   1.000  C
  C82      1.0000 0.03380  0.58280  0.42640  Biso   1.000  C
  C83      1.0000 0.03380  0.91720  0.92640  Biso   1.000  C
  C84      1.0000 0.96620  0.41720  0.57360  Biso   1.000  C
  C85      1.0000 0.22570  0.89070  0.15100  Biso   1.000  C
  C86      1.0000 0.77430  0.39070  0.34900  Biso   1.000  C
  C87      1.0000 0.77430  0.10930  0.84900  Biso   1.000  C
  C88      1.0000 0.22570  0.60930  0.65100  Biso   1.000  C
  C89      1.0000 0.94120  0.91110  0.09320  Biso   1.000  C
  C90      1.0000 0.05880  0.41110  0.40680  Biso   1.000  C
  C91      1.0000 0.05880  0.08890  0.90680  Biso   1.000  C
  C92      1.0000 0.94120  0.58890  0.59320  Biso   1.000  C
  C93      1.0000 0.20130  0.71430  0.10610  Biso   1.000  C
  C94      1.0000 0.79870  0.21430  0.39390  Biso   1.000  C
  C95      1.0000 0.79870  0.28570  0.89390  Biso   1.000  C
  C96      1.0000 0.20130  0.78570  0.60610  Biso   1.000  C
  C97      1.0000 0.88810  0.84960  0.04990  Biso   1.000  C
  C98      1.0000 0.11190  0.34960  0.45010  Biso   1.000  C
  C99      1.0000 0.11190  0.15040  0.95010  Biso   1.000  C
  C100     1.0000 0.88810  0.65040  0.54990  Biso   1.000  C
  C101     1.0000 0.22800  0.56850  0.06950  Biso   1.000  C
  C102     1.0000 0.77200  0.06850  0.43050  Biso   1.000  C
  C103     1.0000 0.77200  0.43150  0.93050  Biso   1.000  C
  C104     1.0000 0.22800  0.93150  0.56950  Biso   1.000  C
  C105     1.0000 0.96810  0.80570  0.15720  Biso   1.000  C
  C106     1.0000 0.03190  0.30570  0.34280  Biso   1.000  C
  C107     1.0000 0.03190  0.19430  0.84280  Biso   1.000  C
  C108     1.0000 0.96810  0.69430  0.65720  Biso   1.000  C
  C109     1.0000 0.15310  0.66950  0.09890  Biso   1.000  C
  C110     1.0000 0.84690  0.16950  0.40110  Biso   1.000  C
  C111     1.0000 0.84690  0.33050  0.90110  Biso   1.000  C
  C112     1.0000 0.15310  0.83050  0.59890  Biso   1.000  C
  C113     1.0000 0.01700  0.86620  0.19690  Biso   1.000  C
  C114     1.0000 0.98300  0.36620  0.30310  Biso   1.000  C
  C115     1.0000 0.98300  0.13380  0.80310  Biso   1.000  C
  C116     1.0000 0.01700  0.63380  0.69690  Biso   1.000  C
  C117     1.0000 0.13080  0.80520  0.13490  Biso   1.000  C
  C118     1.0000 0.86920  0.30520  0.36510  Biso   1.000  C
  C119     1.0000 0.86920  0.19480  0.86510  Biso   1.000  C
  C120     1.0000 0.13080  0.69480  0.63490  Biso   1.000  C
  H1       1.0000 0.40200  0.00000  0.45300  Biso   1.000  H
  H2       1.0000 0.59800  0.50000  0.04700  Biso   1.000  H
  H3       1.0000 0.59800  0.00000  0.54700  Biso   1.000  H
  H4       1.0000 0.40200  0.50000  0.95300  Biso   1.000  H
  H5       1.0000 0.48600  0.74300  0.47500  Biso   1.000  H
  H6       1.0000 0.51400  0.24300  0.02500  Biso   1.000  H
  H7       1.0000 0.51400  0.25700  0.52500  Biso   1.000  H
  H8       1.0000 0.48600  0.75700  0.97500  Biso   1.000  H
  H9       1.0000 0.42600  0.25500  0.43400  Biso   1.000  H
  H10      1.0000 0.57400  0.75500  0.06600  Biso   1.000  H
  H11      1.0000 0.57400  0.74500  0.56600  Biso   1.000  H
  H12      1.0000 0.42600  0.24500  0.93400  Biso   1.000  H
  H13      1.0000 0.48900  0.86900  0.40200  Biso   1.000  H
  H14      1.0000 0.51100  0.36900  0.09800  Biso   1.000  H
  H15      1.0000 0.51100  0.13100  0.59800  Biso   1.000  H
  H16      1.0000 0.48900  0.63100  0.90200  Biso   1.000  H
  H17      1.0000 0.38800  0.04400  0.36600  Biso   1.000  H
  H18      1.0000 0.61200  0.54400  0.13400  Biso   1.000  H
  H19      1.0000 0.61200  0.95600  0.63400  Biso   1.000  H
  H20      1.0000 0.38800  0.45600  0.86600  Biso   1.000  H
  H21      1.0000 0.44200  0.72200  0.39100  Biso   1.000  H
  H22      1.0000 0.55800  0.22200  0.10900  Biso   1.000  H
  H23      1.0000 0.55800  0.27800  0.60900  Biso   1.000  H
  H24      1.0000 0.44200  0.77800  0.89100  Biso   1.000  H
  H25      1.0000 0.32300  0.15600  0.46300  Biso   1.000  H
  H26      1.0000 0.67700  0.65600  0.03700  Biso   1.000  H
  H27      1.0000 0.67700  0.84400  0.53700  Biso   1.000  H
  H28      1.0000 0.32300  0.34400  0.96300  Biso   1.000  H
  H29      1.0000 0.57200  0.57200  0.45800  Biso   1.000  H
  H30      1.0000 0.42800  0.07200  0.04200  Biso   1.000  H
  H31      1.0000 0.42800  0.42800  0.54200  Biso   1.000  H
  H32      1.0000 0.57200  0.92800  0.95800  Biso   1.000  H
  H33      1.0000 0.25600  0.42500  0.50000  Biso   1.000  H
  H34      1.0000 0.74400  0.92500  0.00000  Biso   1.000  H
  H35      1.0000 0.74400  0.57500  0.50000  Biso   1.000  H
  H36      1.0000 0.25600  0.07500  0.00000  Biso   1.000  H
  H37      1.0000 0.63400  0.26900  0.47700  Biso   1.000  H
  H38      1.0000 0.36600  0.76900  0.02300  Biso   1.000  H
  H39      1.0000 0.36600  0.73100  0.52300  Biso   1.000  H
  H40      1.0000 0.63400  0.23100  0.97700  Biso   1.000  H
  H41      1.0000 0.21700  0.51000  0.43200  Biso   1.000  H
  H42      1.0000 0.78300  0.01000  0.06800  Biso   1.000  H
  H43      1.0000 0.78300  0.49000  0.56800  Biso   1.000  H
  H44      1.0000 0.21700  0.99000  0.93200  Biso   1.000  H
  H45      1.0000 0.63100  0.07600  0.42500  Biso   1.000  H
  H46      1.0000 0.36900  0.57600  0.07500  Biso   1.000  H
  H47      1.0000 0.36900  0.92400  0.57500  Biso   1.000  H
  H48      1.0000 0.63100  0.42400  0.92500  Biso   1.000  H
  H49      1.0000 0.23100  0.25400  0.44300  Biso   1.000  H
  H50      1.0000 0.76900  0.75400  0.05700  Biso   1.000  H
  H51      1.0000 0.76900  0.74600  0.55700  Biso   1.000  H
  H52      1.0000 0.23100  0.24600  0.94300  Biso   1.000  H
  H53      1.0000 0.64500  0.32100  0.41100  Biso   1.000  H
  H54      1.0000 0.35500  0.82100  0.08900  Biso   1.000  H
  H55      1.0000 0.35500  0.67900  0.58900  Biso   1.000  H
  H56      1.0000 0.64500  0.17900  0.91100  Biso   1.000  H
  H57      1.0000 0.25300  0.73600  0.36000  Biso   1.000  H
  H58      1.0000 0.74700  0.23600  0.14000  Biso   1.000  H
  H59      1.0000 0.74700  0.26400  0.64000  Biso   1.000  H
  H60      1.0000 0.25300  0.76400  0.86000  Biso   1.000  H
  H61      1.0000 0.54800  0.05400  0.31500  Biso   1.000  H
  H62      1.0000 0.45200  0.55400  0.18500  Biso   1.000  H
  H63      1.0000 0.45200  0.94600  0.68500  Biso   1.000  H
  H64      1.0000 0.54800  0.44600  0.81500  Biso   1.000  H
  H65      1.0000 0.30900  0.75400  0.30300  Biso   1.000  H
  H66      1.0000 0.69100  0.25400  0.19700  Biso   1.000  H
  H67      1.0000 0.69100  0.24600  0.69700  Biso   1.000  H
  H68      1.0000 0.30900  0.74600  0.80300  Biso   1.000  H
  H69      1.0000 0.46300  0.16300  0.26400  Biso   1.000  H
  H70      1.0000 0.53700  0.66300  0.23600  Biso   1.000  H
  H71      1.0000 0.53700  0.83700  0.73600  Biso   1.000  H
  H72      1.0000 0.46300  0.33700  0.76400  Biso   1.000  H
  H73      1.0000 0.08800  0.40500  0.12100  Biso   1.000  H
  H74      1.0000 0.91200  0.90500  0.37900  Biso   1.000  H
  H75      1.0000 0.91200  0.59500  0.87900  Biso   1.000  H
  H76      1.0000 0.08800  0.09500  0.62100  Biso   1.000  H
  H77      1.0000 0.20000  0.34600  0.24900  Biso   1.000  H
  H78      1.0000 0.80000  0.84600  0.25100  Biso   1.000  H
  H79      1.0000 0.80000  0.65400  0.75100  Biso   1.000  H
  H80      1.0000 0.20000  0.15400  0.74900  Biso   1.000  H
  H81      1.0000 0.04000  0.43400  0.12400  Biso   1.000  H
  H82      1.0000 0.96000  0.93400  0.37600  Biso   1.000  H
  H83      1.0000 0.96000  0.56600  0.87600  Biso   1.000  H
  H84      1.0000 0.04000  0.06600  0.62400  Biso   1.000  H
  H85      1.0000 0.27300  0.22000  0.25900  Biso   1.000  H
  H86      1.0000 0.72700  0.72000  0.24100  Biso   1.000  H
  H87      1.0000 0.72700  0.78000  0.74100  Biso   1.000  H
  H88      1.0000 0.27300  0.28000  0.75900  Biso   1.000  H
  H89      1.0000 0.04000  0.28500  0.04600  Biso   1.000  H
  H90      1.0000 0.96000  0.78500  0.45400  Biso   1.000  H
  H91      1.0000 0.96000  0.71500  0.95400  Biso   1.000  H
  H92      1.0000 0.04000  0.21500  0.54600  Biso   1.000  H
  H93      1.0000 0.22300  0.17100  0.29400  Biso   1.000  H
  H94      1.0000 0.77700  0.67100  0.20600  Biso   1.000  H
  H95      1.0000 0.77700  0.82900  0.70600  Biso   1.000  H
  H96      1.0000 0.22300  0.32900  0.79400  Biso   1.000  H
  H97      1.0000 0.94800  0.16700  0.02900  Biso   1.000  H
  H98      1.0000 0.05200  0.66700  0.47100  Biso   1.000  H
  H99      1.0000 0.05200  0.83300  0.97100  Biso   1.000  H
  H100     1.0000 0.94800  0.33300  0.52900  Biso   1.000  H
  H101     1.0000 0.26100  0.92500  0.15800  Biso   1.000  H
  H102     1.0000 0.73900  0.42500  0.34200  Biso   1.000  H
  H103     1.0000 0.73900  0.07500  0.84200  Biso   1.000  H
  H104     1.0000 0.26100  0.57500  0.65800  Biso   1.000  H
  H105     1.0000 0.86300  0.98800  0.04100  Biso   1.000  H
  H106     1.0000 0.13700  0.48800  0.45900  Biso   1.000  H
  H107     1.0000 0.13700  0.01200  0.95900  Biso   1.000  H
  H108     1.0000 0.86300  0.51200  0.54100  Biso   1.000  H
  H109     1.0000 0.26000  0.66500  0.07900  Biso   1.000  H
  H110     1.0000 0.74000  0.16500  0.42100  Biso   1.000  H
  H111     1.0000 0.74000  0.33500  0.92100  Biso   1.000  H
  H112     1.0000 0.26000  0.83500  0.57900  Biso   1.000  H
  H113     1.0000 0.88400  0.79000  0.00400  Biso   1.000  H
  H114     1.0000 0.11600  0.29000  0.49600  Biso   1.000  H
  H115     1.0000 0.11600  0.21000  0.99600  Biso   1.000  H
  H116     1.0000 0.88400  0.71000  0.50400  Biso   1.000  H
  H117     1.0000 0.23700  0.42000  0.09000  Biso   1.000  H
  H118     1.0000 0.76300  0.92000  0.41000  Biso   1.000  H
  H119     1.0000 0.76300  0.58000  0.91000  Biso   1.000  H
  H120     1.0000 0.23700  0.08000  0.59000  Biso   1.000  H
  H121     1.0000 0.87600  0.73300  0.07400  Biso   1.000  H
  H122     1.0000 0.12400  0.23300  0.42600  Biso   1.000  H
  H123     1.0000 0.12400  0.26700  0.92600  Biso   1.000  H
  H124     1.0000 0.87600  0.76700  0.57400  Biso   1.000  H
  H125     1.0000 0.21000  0.55200  0.01900  Biso   1.000  H
  H126     1.0000 0.79000  0.05200  0.48100  Biso   1.000  H
  H127     1.0000 0.79000  0.44800  0.98100  Biso   1.000  H
  H128     1.0000 0.21000  0.94800  0.51900  Biso   1.000  H
  H129     1.0000 0.95200  0.68600  0.17500  Biso   1.000  H
  H130     1.0000 0.04800  0.18600  0.32500  Biso   1.000  H
  H131     1.0000 0.04800  0.31400  0.82500  Biso   1.000  H
  H132     1.0000 0.95200  0.81400  0.67500  Biso   1.000  H
  H133     1.0000 0.13500  0.54500  0.06700  Biso   1.000  H
  H134     1.0000 0.86500  0.04500  0.43300  Biso   1.000  H
  H135     1.0000 0.86500  0.45500  0.93300  Biso   1.000  H
  H136     1.0000 0.13500  0.95500  0.56700  Biso   1.000  H
  H137     1.0000 0.03600  0.78500  0.24200  Biso   1.000  H
  H138     1.0000 0.96400  0.28500  0.25800  Biso   1.000  H
  H139     1.0000 0.96400  0.21500  0.75800  Biso   1.000  H
  H140     1.0000 0.03600  0.71500  0.74200  Biso   1.000  H
  H141     1.0000 0.09600  0.77000  0.13000  Biso   1.000  H
  H142     1.0000 0.90400  0.27000  0.37000  Biso   1.000  H
  H143     1.0000 0.90400  0.23000  0.87000  Biso   1.000  H
  H144     1.0000 0.09600  0.73000  0.63000  Biso   1.000  H
