data_image0
_cell_length_a       43.68
_cell_length_b       16.402
_cell_length_c       8.064
_cell_angle_alpha    90
_cell_angle_beta     90
_cell_angle_gamma    90

_symmetry_space_group_name_H-M    "P 1"
_symmetry_int_tables_number       1

loop_
  _symmetry_equiv_pos_as_xyz
  'x, y, z'

loop_
  _atom_site_label
  _atom_site_occupancy
  _atom_site_fract_x
  _atom_site_fract_y
  _atom_site_fract_z
  _atom_site_thermal_displace_type
  _atom_site_B_iso_or_equiv
  _atom_site_type_symbol
  Cu1      1.0000 0.04524  0.19580  0.00000  Biso   1.000  Cu
  Cu2      1.0000 0.04524  0.69580  0.50000  Biso   1.000  Cu
  Cu3      1.0000 0.54524  0.19580  0.50000  Biso   1.000  Cu
  Cu4      1.0000 0.54524  0.69580  0.00000  Biso   1.000  Cu
  Cu5      1.0000 0.45476  0.80420  0.50000  Biso   1.000  Cu
  Cu6      1.0000 0.20476  0.44580  0.25000  Biso   1.000  Cu
  Cu7      1.0000 0.45476  0.30420  0.00000  Biso   1.000  Cu
  Cu8      1.0000 0.20476  0.94580  0.75000  Biso   1.000  Cu
  Cu9      1.0000 0.95476  0.80420  0.00000  Biso   1.000  Cu
  Cu10     1.0000 0.70476  0.44580  0.75000  Biso   1.000  Cu
  Cu11     1.0000 0.95476  0.30420  0.50000  Biso   1.000  Cu
  Cu12     1.0000 0.70476  0.94580  0.25000  Biso   1.000  Cu
  Cu13     1.0000 0.29524  0.55420  0.75000  Biso   1.000  Cu
  Cu14     1.0000 0.29524  0.05420  0.25000  Biso   1.000  Cu
  Cu15     1.0000 0.79524  0.55420  0.25000  Biso   1.000  Cu
  Cu16     1.0000 0.79524  0.05420  0.75000  Biso   1.000  Cu
  N1       1.0000 0.00810  0.20710  0.86450  Biso   1.000  N
  N2       1.0000 0.00810  0.70710  0.36450  Biso   1.000  N
  N3       1.0000 0.50810  0.20710  0.36450  Biso   1.000  N
  N4       1.0000 0.50810  0.70710  0.86450  Biso   1.000  N
  N5       1.0000 0.49190  0.79290  0.36450  Biso   1.000  N
  N6       1.0000 0.24190  0.45710  0.11450  Biso   1.000  N
  N7       1.0000 0.49190  0.29290  0.86450  Biso   1.000  N
  N8       1.0000 0.24190  0.95710  0.61450  Biso   1.000  N
  N9       1.0000 0.99190  0.79290  0.86450  Biso   1.000  N
  N10      1.0000 0.74190  0.45710  0.61450  Biso   1.000  N
  N11      1.0000 0.99190  0.29290  0.36450  Biso   1.000  N
  N12      1.0000 0.74190  0.95710  0.11450  Biso   1.000  N
  N13      1.0000 0.25810  0.54290  0.61450  Biso   1.000  N
  N14      1.0000 0.25810  0.04290  0.11450  Biso   1.000  N
  N15      1.0000 0.75810  0.54290  0.11450  Biso   1.000  N
  N16      1.0000 0.75810  0.04290  0.61450  Biso   1.000  N
  C1       1.0000 0.98520  0.20520  0.79610  Biso   1.000  C
  C2       1.0000 0.98520  0.70520  0.29610  Biso   1.000  C
  C3       1.0000 0.48520  0.20520  0.29610  Biso   1.000  C
  C4       1.0000 0.48520  0.70520  0.79610  Biso   1.000  C
  C5       1.0000 0.51480  0.79480  0.29610  Biso   1.000  C
  C6       1.0000 0.26480  0.45520  0.04610  Biso   1.000  C
  C7       1.0000 0.51480  0.29480  0.79610  Biso   1.000  C
  C8       1.0000 0.26480  0.95520  0.54610  Biso   1.000  C
  C9       1.0000 0.01480  0.79480  0.79610  Biso   1.000  C
  C10      1.0000 0.76480  0.45520  0.54610  Biso   1.000  C
  C11      1.0000 0.01480  0.29480  0.29610  Biso   1.000  C
  C12      1.0000 0.76480  0.95520  0.04610  Biso   1.000  C
  C13      1.0000 0.23520  0.54480  0.54610  Biso   1.000  C
  C14      1.0000 0.23520  0.04480  0.04610  Biso   1.000  C
  C15      1.0000 0.73520  0.54480  0.04610  Biso   1.000  C
  C16      1.0000 0.73520  0.04480  0.54610  Biso   1.000  C
  S1       1.0000 0.04844  0.29948  0.20020  Biso   1.000  S
  S2       1.0000 0.04844  0.79948  0.70020  Biso   1.000  S
  S3       1.0000 0.54844  0.29948  0.70020  Biso   1.000  S
  S4       1.0000 0.54844  0.79948  0.20020  Biso   1.000  S
  S5       1.0000 0.45156  0.70052  0.70020  Biso   1.000  S
  S6       1.0000 0.20156  0.54948  0.45020  Biso   1.000  S
  S7       1.0000 0.45156  0.20052  0.20020  Biso   1.000  S
  S8       1.0000 0.20156  0.04948  0.95020  Biso   1.000  S
  S9       1.0000 0.95156  0.70052  0.20020  Biso   1.000  S
  S10      1.0000 0.70156  0.54948  0.95020  Biso   1.000  S
  S11      1.0000 0.95156  0.20052  0.70020  Biso   1.000  S
  S12      1.0000 0.70156  0.04948  0.45020  Biso   1.000  S
  S13      1.0000 0.29844  0.45052  0.95020  Biso   1.000  S
  S14      1.0000 0.29844  0.95052  0.45020  Biso   1.000  S
  S15      1.0000 0.79844  0.45052  0.45020  Biso   1.000  S
  S16      1.0000 0.79844  0.95052  0.95020  Biso   1.000  S
  N17      1.0000 0.08240  0.20460  0.84730  Biso   1.000  N
  N18      1.0000 0.08240  0.70460  0.34730  Biso   1.000  N
  N19      1.0000 0.58240  0.20460  0.34730  Biso   1.000  N
  N20      1.0000 0.58240  0.70460  0.84730  Biso   1.000  N
  N21      1.0000 0.41760  0.79540  0.34730  Biso   1.000  N
  N22      1.0000 0.16760  0.45460  0.09730  Biso   1.000  N
  N23      1.0000 0.41760  0.29540  0.84730  Biso   1.000  N
  N24      1.0000 0.16760  0.95460  0.59730  Biso   1.000  N
  N25      1.0000 0.91760  0.79540  0.84730  Biso   1.000  N
  N26      1.0000 0.66760  0.45460  0.59730  Biso   1.000  N
  N27      1.0000 0.91760  0.29540  0.34730  Biso   1.000  N
  N28      1.0000 0.66760  0.95460  0.09730  Biso   1.000  N
  N29      1.0000 0.33240  0.54540  0.59730  Biso   1.000  N
  N30      1.0000 0.33240  0.04540  0.09730  Biso   1.000  N
  N31      1.0000 0.83240  0.54540  0.09730  Biso   1.000  N
  N32      1.0000 0.83240  0.04540  0.59730  Biso   1.000  N
  C17      1.0000 0.11190  0.18580  0.88810  Biso   1.000  C
  C18      1.0000 0.11190  0.68580  0.38810  Biso   1.000  C
  C19      1.0000 0.61190  0.18580  0.38810  Biso   1.000  C
  C20      1.0000 0.61190  0.68580  0.88810  Biso   1.000  C
  C21      1.0000 0.38810  0.81420  0.38810  Biso   1.000  C
  C22      1.0000 0.13810  0.43580  0.13810  Biso   1.000  C
  C23      1.0000 0.38810  0.31420  0.88810  Biso   1.000  C
  C24      1.0000 0.13810  0.93580  0.63810  Biso   1.000  C
  C25      1.0000 0.88810  0.81420  0.88810  Biso   1.000  C
  C26      1.0000 0.63810  0.43580  0.63810  Biso   1.000  C
  C27      1.0000 0.88810  0.31420  0.38810  Biso   1.000  C
  C28      1.0000 0.63810  0.93580  0.13810  Biso   1.000  C
  C29      1.0000 0.36190  0.56420  0.63810  Biso   1.000  C
  C30      1.0000 0.36190  0.06420  0.13810  Biso   1.000  C
  C31      1.0000 0.86190  0.56420  0.13810  Biso   1.000  C
  C32      1.0000 0.86190  0.06420  0.63810  Biso   1.000  C
  C33      1.0000 0.13440  0.18320  0.76980  Biso   1.000  C
  C34      1.0000 0.13440  0.68320  0.26980  Biso   1.000  C
  C35      1.0000 0.63440  0.18320  0.26980  Biso   1.000  C
  C36      1.0000 0.63440  0.68320  0.76980  Biso   1.000  C
  C37      1.0000 0.36560  0.81680  0.26980  Biso   1.000  C
  C38      1.0000 0.11560  0.43320  0.01980  Biso   1.000  C
  C39      1.0000 0.36560  0.31680  0.76980  Biso   1.000  C
  C40      1.0000 0.11560  0.93320  0.51980  Biso   1.000  C
  C41      1.0000 0.86560  0.81680  0.76980  Biso   1.000  C
  C42      1.0000 0.61560  0.43320  0.51980  Biso   1.000  C
  C43      1.0000 0.86560  0.31680  0.26980  Biso   1.000  C
  C44      1.0000 0.61560  0.93320  0.01980  Biso   1.000  C
  C45      1.0000 0.38440  0.56680  0.51980  Biso   1.000  C
  C46      1.0000 0.38440  0.06680  0.01980  Biso   1.000  C
  C47      1.0000 0.88440  0.56680  0.01980  Biso   1.000  C
  C48      1.0000 0.88440  0.06680  0.51980  Biso   1.000  C
  C49      1.0000 0.12760  0.20140  0.60870  Biso   1.000  C
  C50      1.0000 0.12760  0.70140  0.10870  Biso   1.000  C
  C51      1.0000 0.62760  0.20140  0.10870  Biso   1.000  C
  C52      1.0000 0.62760  0.70140  0.60870  Biso   1.000  C
  C53      1.0000 0.37240  0.79860  0.10870  Biso   1.000  C
  C54      1.0000 0.12240  0.45140  0.85870  Biso   1.000  C
  C55      1.0000 0.37240  0.29860  0.60870  Biso   1.000  C
  C56      1.0000 0.12240  0.95140  0.35870  Biso   1.000  C
  C57      1.0000 0.87240  0.79860  0.60870  Biso   1.000  C
  C58      1.0000 0.62240  0.45140  0.35870  Biso   1.000  C
  C59      1.0000 0.87240  0.29860  0.10870  Biso   1.000  C
  C60      1.0000 0.62240  0.95140  0.85870  Biso   1.000  C
  C61      1.0000 0.37760  0.54860  0.35870  Biso   1.000  C
  C62      1.0000 0.37760  0.04860  0.85870  Biso   1.000  C
  C63      1.0000 0.87760  0.54860  0.85870  Biso   1.000  C
  C64      1.0000 0.87760  0.04860  0.35870  Biso   1.000  C
  C65      1.0000 0.09860  0.22060  0.56710  Biso   1.000  C
  C66      1.0000 0.09860  0.72060  0.06710  Biso   1.000  C
  C67      1.0000 0.59860  0.22060  0.06710  Biso   1.000  C
  C68      1.0000 0.59860  0.72060  0.56710  Biso   1.000  C
  C69      1.0000 0.40140  0.77940  0.06710  Biso   1.000  C
  C70      1.0000 0.15140  0.47060  0.81710  Biso   1.000  C
  C71      1.0000 0.40140  0.27940  0.56710  Biso   1.000  C
  C72      1.0000 0.15140  0.97060  0.31710  Biso   1.000  C
  C73      1.0000 0.90140  0.77940  0.56710  Biso   1.000  C
  C74      1.0000 0.65140  0.47060  0.31710  Biso   1.000  C
  C75      1.0000 0.90140  0.27940  0.06710  Biso   1.000  C
  C76      1.0000 0.65140  0.97060  0.81710  Biso   1.000  C
  C77      1.0000 0.34860  0.52940  0.31710  Biso   1.000  C
  C78      1.0000 0.34860  0.02940  0.81710  Biso   1.000  C
  C79      1.0000 0.84860  0.52940  0.81710  Biso   1.000  C
  C80      1.0000 0.84860  0.02940  0.31710  Biso   1.000  C
  C81      1.0000 0.07670  0.22160  0.68860  Biso   1.000  C
  C82      1.0000 0.07670  0.72160  0.18860  Biso   1.000  C
  C83      1.0000 0.57670  0.22160  0.18860  Biso   1.000  C
  C84      1.0000 0.57670  0.72160  0.68860  Biso   1.000  C
  C85      1.0000 0.42330  0.77840  0.18860  Biso   1.000  C
  C86      1.0000 0.17330  0.47160  0.93860  Biso   1.000  C
  C87      1.0000 0.42330  0.27840  0.68860  Biso   1.000  C
  C88      1.0000 0.17330  0.97160  0.43860  Biso   1.000  C
  C89      1.0000 0.92330  0.77840  0.68860  Biso   1.000  C
  C90      1.0000 0.67330  0.47160  0.43860  Biso   1.000  C
  C91      1.0000 0.92330  0.27840  0.18860  Biso   1.000  C
  C92      1.0000 0.67330  0.97160  0.93860  Biso   1.000  C
  C93      1.0000 0.32670  0.52840  0.43860  Biso   1.000  C
  C94      1.0000 0.32670  0.02840  0.93860  Biso   1.000  C
  C95      1.0000 0.82670  0.52840  0.93860  Biso   1.000  C
  C96      1.0000 0.82670  0.02840  0.43860  Biso   1.000  C
  C97      1.0000 0.11830  0.16810  0.06460  Biso   1.000  C
  C98      1.0000 0.11830  0.66810  0.56460  Biso   1.000  C
  C99      1.0000 0.61830  0.16810  0.56460  Biso   1.000  C
  C100     1.0000 0.61830  0.66810  0.06460  Biso   1.000  C
  C101     1.0000 0.38170  0.83190  0.56460  Biso   1.000  C
  C102     1.0000 0.13170  0.41810  0.31460  Biso   1.000  C
  C103     1.0000 0.38170  0.33190  0.06460  Biso   1.000  C
  C104     1.0000 0.13170  0.91810  0.81460  Biso   1.000  C
  C105     1.0000 0.88170  0.83190  0.06460  Biso   1.000  C
  C106     1.0000 0.63170  0.41810  0.81460  Biso   1.000  C
  C107     1.0000 0.88170  0.33190  0.56460  Biso   1.000  C
  C108     1.0000 0.63170  0.91810  0.31460  Biso   1.000  C
  C109     1.0000 0.36830  0.58190  0.81460  Biso   1.000  C
  C110     1.0000 0.36830  0.08190  0.31460  Biso   1.000  C
  C111     1.0000 0.86830  0.58190  0.31460  Biso   1.000  C
  C112     1.0000 0.86830  0.08190  0.81460  Biso   1.000  C
  N33      1.0000 0.04400  0.08410  0.13030  Biso   1.000  N
  N34      1.0000 0.04400  0.58410  0.63030  Biso   1.000  N
  N35      1.0000 0.54400  0.08410  0.63030  Biso   1.000  N
  N36      1.0000 0.54400  0.58410  0.13030  Biso   1.000  N
  N37      1.0000 0.45600  0.91590  0.63030  Biso   1.000  N
  N38      1.0000 0.20600  0.33410  0.38030  Biso   1.000  N
  N39      1.0000 0.45600  0.41590  0.13030  Biso   1.000  N
  N40      1.0000 0.20600  0.83410  0.88030  Biso   1.000  N
  N41      1.0000 0.95600  0.91590  0.13030  Biso   1.000  N
  N42      1.0000 0.70600  0.33410  0.88030  Biso   1.000  N
  N43      1.0000 0.95600  0.41590  0.63030  Biso   1.000  N
  N44      1.0000 0.70600  0.83410  0.38030  Biso   1.000  N
  N45      1.0000 0.29400  0.66590  0.88030  Biso   1.000  N
  N46      1.0000 0.29400  0.16590  0.38030  Biso   1.000  N
  N47      1.0000 0.79400  0.66590  0.38030  Biso   1.000  N
  N48      1.0000 0.79400  0.16590  0.88030  Biso   1.000  N
  C113     1.0000 0.04220  0.01280  0.04660  Biso   1.000  C
  C114     1.0000 0.04220  0.51280  0.54660  Biso   1.000  C
  C115     1.0000 0.54220  0.01280  0.54660  Biso   1.000  C
  C116     1.0000 0.54220  0.51280  0.04660  Biso   1.000  C
  C117     1.0000 0.45780  0.98720  0.54660  Biso   1.000  C
  C118     1.0000 0.20780  0.26280  0.29660  Biso   1.000  C
  C119     1.0000 0.45780  0.48720  0.04660  Biso   1.000  C
  C120     1.0000 0.20780  0.76280  0.79660  Biso   1.000  C
  C121     1.0000 0.95780  0.98720  0.04660  Biso   1.000  C
  C122     1.0000 0.70780  0.26280  0.79660  Biso   1.000  C
  C123     1.0000 0.95780  0.48720  0.54660  Biso   1.000  C
  C124     1.0000 0.70780  0.76280  0.29660  Biso   1.000  C
  C125     1.0000 0.29220  0.73720  0.79660  Biso   1.000  C
  C126     1.0000 0.29220  0.23720  0.29660  Biso   1.000  C
  C127     1.0000 0.79220  0.73720  0.29660  Biso   1.000  C
  C128     1.0000 0.79220  0.23720  0.79660  Biso   1.000  C
  C129     1.0000 0.03890  0.94000  0.13120  Biso   1.000  C
  C130     1.0000 0.03890  0.44000  0.63120  Biso   1.000  C
  C131     1.0000 0.53890  0.94000  0.63120  Biso   1.000  C
  C132     1.0000 0.53890  0.44000  0.13120  Biso   1.000  C
  C133     1.0000 0.46110  0.06000  0.63120  Biso   1.000  C
  C134     1.0000 0.21110  0.19000  0.38120  Biso   1.000  C
  C135     1.0000 0.46110  0.56000  0.13120  Biso   1.000  C
  C136     1.0000 0.21110  0.69000  0.88120  Biso   1.000  C
  C137     1.0000 0.96110  0.06000  0.13120  Biso   1.000  C
  C138     1.0000 0.71110  0.19000  0.88120  Biso   1.000  C
  C139     1.0000 0.96110  0.56000  0.63120  Biso   1.000  C
  C140     1.0000 0.71110  0.69000  0.38120  Biso   1.000  C
  C141     1.0000 0.28890  0.81000  0.88120  Biso   1.000  C
  C142     1.0000 0.28890  0.31000  0.38120  Biso   1.000  C
  C143     1.0000 0.78890  0.81000  0.38120  Biso   1.000  C
  C144     1.0000 0.78890  0.31000  0.88120  Biso   1.000  C
  C145     1.0000 0.03860  0.93840  0.29790  Biso   1.000  C
  C146     1.0000 0.03860  0.43840  0.79790  Biso   1.000  C
  C147     1.0000 0.53860  0.93840  0.79790  Biso   1.000  C
  C148     1.0000 0.53860  0.43840  0.29790  Biso   1.000  C
  C149     1.0000 0.46140  0.06160  0.79790  Biso   1.000  C
  C150     1.0000 0.21140  0.18840  0.54790  Biso   1.000  C
  C151     1.0000 0.46140  0.56160  0.29790  Biso   1.000  C
  C152     1.0000 0.21140  0.68840  0.04790  Biso   1.000  C
  C153     1.0000 0.96140  0.06160  0.29790  Biso   1.000  C
  C154     1.0000 0.71140  0.18840  0.04790  Biso   1.000  C
  C155     1.0000 0.96140  0.56160  0.79790  Biso   1.000  C
  C156     1.0000 0.71140  0.68840  0.54790  Biso   1.000  C
  C157     1.0000 0.28860  0.81160  0.04790  Biso   1.000  C
  C158     1.0000 0.28860  0.31160  0.54790  Biso   1.000  C
  C159     1.0000 0.78860  0.81160  0.54790  Biso   1.000  C
  C160     1.0000 0.78860  0.31160  0.04790  Biso   1.000  C
  C161     1.0000 0.04040  0.01080  0.38640  Biso   1.000  C
  C162     1.0000 0.04040  0.51080  0.88640  Biso   1.000  C
  C163     1.0000 0.54040  0.01080  0.88640  Biso   1.000  C
  C164     1.0000 0.54040  0.51080  0.38640  Biso   1.000  C
  C165     1.0000 0.45960  0.98920  0.88640  Biso   1.000  C
  C166     1.0000 0.20960  0.26080  0.63640  Biso   1.000  C
  C167     1.0000 0.45960  0.48920  0.38640  Biso   1.000  C
  C168     1.0000 0.20960  0.76080  0.13640  Biso   1.000  C
  C169     1.0000 0.95960  0.98920  0.38640  Biso   1.000  C
  C170     1.0000 0.70960  0.26080  0.13640  Biso   1.000  C
  C171     1.0000 0.95960  0.48920  0.88640  Biso   1.000  C
  C172     1.0000 0.70960  0.76080  0.63640  Biso   1.000  C
  C173     1.0000 0.29040  0.73920  0.13640  Biso   1.000  C
  C174     1.0000 0.29040  0.23920  0.63640  Biso   1.000  C
  C175     1.0000 0.79040  0.73920  0.63640  Biso   1.000  C
  C176     1.0000 0.79040  0.23920  0.13640  Biso   1.000  C
  C177     1.0000 0.04300  0.08170  0.29430  Biso   1.000  C
  C178     1.0000 0.04300  0.58170  0.79430  Biso   1.000  C
  C179     1.0000 0.54300  0.08170  0.79430  Biso   1.000  C
  C180     1.0000 0.54300  0.58170  0.29430  Biso   1.000  C
  C181     1.0000 0.45700  0.91830  0.79430  Biso   1.000  C
  C182     1.0000 0.20700  0.33170  0.54430  Biso   1.000  C
  C183     1.0000 0.45700  0.41830  0.29430  Biso   1.000  C
  C184     1.0000 0.20700  0.83170  0.04430  Biso   1.000  C
  C185     1.0000 0.95700  0.91830  0.29430  Biso   1.000  C
  C186     1.0000 0.70700  0.33170  0.04430  Biso   1.000  C
  C187     1.0000 0.95700  0.41830  0.79430  Biso   1.000  C
  C188     1.0000 0.70700  0.83170  0.54430  Biso   1.000  C
  C189     1.0000 0.29300  0.66830  0.04430  Biso   1.000  C
  C190     1.0000 0.29300  0.16830  0.54430  Biso   1.000  C
  C191     1.0000 0.79300  0.66830  0.54430  Biso   1.000  C
  C192     1.0000 0.79300  0.16830  0.04430  Biso   1.000  C
  C193     1.0000 0.04400  0.01700  0.86420  Biso   1.000  C
  C194     1.0000 0.04400  0.51700  0.36420  Biso   1.000  C
  C195     1.0000 0.54400  0.01700  0.36420  Biso   1.000  C
  C196     1.0000 0.54400  0.51700  0.86420  Biso   1.000  C
  C197     1.0000 0.45600  0.98300  0.36420  Biso   1.000  C
  C198     1.0000 0.20600  0.26700  0.11420  Biso   1.000  C
  C199     1.0000 0.45600  0.48300  0.86420  Biso   1.000  C
  C200     1.0000 0.20600  0.76700  0.61420  Biso   1.000  C
  C201     1.0000 0.95600  0.98300  0.86420  Biso   1.000  C
  C202     1.0000 0.70600  0.26700  0.61420  Biso   1.000  C
  C203     1.0000 0.95600  0.48300  0.36420  Biso   1.000  C
  C204     1.0000 0.70600  0.76700  0.11420  Biso   1.000  C
  C205     1.0000 0.29400  0.73300  0.61420  Biso   1.000  C
  C206     1.0000 0.29400  0.23300  0.11420  Biso   1.000  C
  C207     1.0000 0.79400  0.73300  0.11420  Biso   1.000  C
  C208     1.0000 0.79400  0.23300  0.61420  Biso   1.000  C
  H1       1.0000 0.11300  0.21800  0.12500  Biso   1.000  H
  H2       1.0000 0.11300  0.71800  0.62500  Biso   1.000  H
  H3       1.0000 0.61300  0.21800  0.62500  Biso   1.000  H
  H4       1.0000 0.61300  0.71800  0.12500  Biso   1.000  H
  H5       1.0000 0.38700  0.78200  0.62500  Biso   1.000  H
  H6       1.0000 0.13700  0.46800  0.37500  Biso   1.000  H
  H7       1.0000 0.38700  0.28200  0.12500  Biso   1.000  H
  H8       1.0000 0.13700  0.96800  0.87500  Biso   1.000  H
  H9       1.0000 0.88700  0.78200  0.12500  Biso   1.000  H
  H10      1.0000 0.63700  0.46800  0.87500  Biso   1.000  H
  H11      1.0000 0.88700  0.28200  0.62500  Biso   1.000  H
  H12      1.0000 0.63700  0.96800  0.37500  Biso   1.000  H
  H13      1.0000 0.36300  0.53200  0.87500  Biso   1.000  H
  H14      1.0000 0.36300  0.03200  0.37500  Biso   1.000  H
  H15      1.0000 0.86300  0.53200  0.37500  Biso   1.000  H
  H16      1.0000 0.86300  0.03200  0.87500  Biso   1.000  H
  H17      1.0000 0.02800  0.05100  0.82400  Biso   1.000  H
  H18      1.0000 0.02800  0.55100  0.32400  Biso   1.000  H
  H19      1.0000 0.52800  0.05100  0.32400  Biso   1.000  H
  H20      1.0000 0.52800  0.55100  0.82400  Biso   1.000  H
  H21      1.0000 0.47200  0.94900  0.32400  Biso   1.000  H
  H22      1.0000 0.22200  0.30100  0.07400  Biso   1.000  H
  H23      1.0000 0.47200  0.44900  0.82400  Biso   1.000  H
  H24      1.0000 0.22200  0.80100  0.57400  Biso   1.000  H
  H25      1.0000 0.97200  0.94900  0.82400  Biso   1.000  H
  H26      1.0000 0.72200  0.30100  0.57400  Biso   1.000  H
  H27      1.0000 0.97200  0.44900  0.32400  Biso   1.000  H
  H28      1.0000 0.72200  0.80100  0.07400  Biso   1.000  H
  H29      1.0000 0.27800  0.69900  0.57400  Biso   1.000  H
  H30      1.0000 0.27800  0.19900  0.07400  Biso   1.000  H
  H31      1.0000 0.77800  0.69900  0.07400  Biso   1.000  H
  H32      1.0000 0.77800  0.19900  0.57400  Biso   1.000  H
  H33      1.0000 0.10600  0.12600  0.09900  Biso   1.000  H
  H34      1.0000 0.10600  0.62600  0.59900  Biso   1.000  H
  H35      1.0000 0.60600  0.12600  0.59900  Biso   1.000  H
  H36      1.0000 0.60600  0.62600  0.09900  Biso   1.000  H
  H37      1.0000 0.39400  0.87400  0.59900  Biso   1.000  H
  H38      1.0000 0.14400  0.37600  0.34900  Biso   1.000  H
  H39      1.0000 0.39400  0.37400  0.09900  Biso   1.000  H
  H40      1.0000 0.14400  0.87600  0.84900  Biso   1.000  H
  H41      1.0000 0.89400  0.87400  0.09900  Biso   1.000  H
  H42      1.0000 0.64400  0.37600  0.84900  Biso   1.000  H
  H43      1.0000 0.89400  0.37400  0.59900  Biso   1.000  H
  H44      1.0000 0.64400  0.87600  0.34900  Biso   1.000  H
  H45      1.0000 0.35600  0.62400  0.84900  Biso   1.000  H
  H46      1.0000 0.35600  0.12400  0.34900  Biso   1.000  H
  H47      1.0000 0.85600  0.62400  0.34900  Biso   1.000  H
  H48      1.0000 0.85600  0.12400  0.84900  Biso   1.000  H
  H49      1.0000 0.06300  0.04100  0.83500  Biso   1.000  H
  H50      1.0000 0.06300  0.54100  0.33500  Biso   1.000  H
  H51      1.0000 0.56300  0.04100  0.33500  Biso   1.000  H
  H52      1.0000 0.56300  0.54100  0.83500  Biso   1.000  H
  H53      1.0000 0.43700  0.95900  0.33500  Biso   1.000  H
  H54      1.0000 0.18700  0.29100  0.08500  Biso   1.000  H
  H55      1.0000 0.43700  0.45900  0.83500  Biso   1.000  H
  H56      1.0000 0.18700  0.79100  0.58500  Biso   1.000  H
  H57      1.0000 0.93700  0.95900  0.83500  Biso   1.000  H
  H58      1.0000 0.68700  0.29100  0.58500  Biso   1.000  H
  H59      1.0000 0.93700  0.45900  0.33500  Biso   1.000  H
  H60      1.0000 0.68700  0.79100  0.08500  Biso   1.000  H
  H61      1.0000 0.31300  0.70900  0.58500  Biso   1.000  H
  H62      1.0000 0.31300  0.20900  0.08500  Biso   1.000  H
  H63      1.0000 0.81300  0.70900  0.08500  Biso   1.000  H
  H64      1.0000 0.81300  0.20900  0.58500  Biso   1.000  H
  H65      1.0000 0.13900  0.15800  0.09300  Biso   1.000  H
  H66      1.0000 0.13900  0.65800  0.59300  Biso   1.000  H
  H67      1.0000 0.63900  0.15800  0.59300  Biso   1.000  H
  H68      1.0000 0.63900  0.65800  0.09300  Biso   1.000  H
  H69      1.0000 0.36100  0.84200  0.59300  Biso   1.000  H
  H70      1.0000 0.11100  0.40800  0.34300  Biso   1.000  H
  H71      1.0000 0.36100  0.34200  0.09300  Biso   1.000  H
  H72      1.0000 0.11100  0.90800  0.84300  Biso   1.000  H
  H73      1.0000 0.86100  0.84200  0.09300  Biso   1.000  H
  H74      1.0000 0.61100  0.40800  0.84300  Biso   1.000  H
  H75      1.0000 0.86100  0.34200  0.59300  Biso   1.000  H
  H76      1.0000 0.61100  0.90800  0.34300  Biso   1.000  H
  H77      1.0000 0.38900  0.59200  0.84300  Biso   1.000  H
  H78      1.0000 0.38900  0.09200  0.34300  Biso   1.000  H
  H79      1.0000 0.88900  0.59200  0.34300  Biso   1.000  H
  H80      1.0000 0.88900  0.09200  0.84300  Biso   1.000  H
  H81      1.0000 0.04300  0.96700  0.80100  Biso   1.000  H
  H82      1.0000 0.04300  0.46700  0.30100  Biso   1.000  H
  H83      1.0000 0.54300  0.96700  0.30100  Biso   1.000  H
  H84      1.0000 0.54300  0.46700  0.80100  Biso   1.000  H
  H85      1.0000 0.45700  0.03300  0.30100  Biso   1.000  H
  H86      1.0000 0.20700  0.21700  0.05100  Biso   1.000  H
  H87      1.0000 0.45700  0.53300  0.80100  Biso   1.000  H
  H88      1.0000 0.20700  0.71700  0.55100  Biso   1.000  H
  H89      1.0000 0.95700  0.03300  0.80100  Biso   1.000  H
  H90      1.0000 0.70700  0.21700  0.55100  Biso   1.000  H
  H91      1.0000 0.95700  0.53300  0.30100  Biso   1.000  H
  H92      1.0000 0.70700  0.71700  0.05100  Biso   1.000  H
  H93      1.0000 0.29300  0.78300  0.55100  Biso   1.000  H
  H94      1.0000 0.29300  0.28300  0.05100  Biso   1.000  H
  H95      1.0000 0.79300  0.78300  0.05100  Biso   1.000  H
  H96      1.0000 0.79300  0.28300  0.55100  Biso   1.000  H
  H97      1.0000 0.15500  0.16800  0.80700  Biso   1.000  H
  H98      1.0000 0.15500  0.66800  0.30700  Biso   1.000  H
  H99      1.0000 0.65500  0.16800  0.30700  Biso   1.000  H
  H100     1.0000 0.65500  0.66800  0.80700  Biso   1.000  H
  H101     1.0000 0.34500  0.83200  0.30700  Biso   1.000  H
  H102     1.0000 0.09500  0.41800  0.05700  Biso   1.000  H
  H103     1.0000 0.34500  0.33200  0.80700  Biso   1.000  H
  H104     1.0000 0.09500  0.91800  0.55700  Biso   1.000  H
  H105     1.0000 0.84500  0.83200  0.80700  Biso   1.000  H
  H106     1.0000 0.59500  0.41800  0.55700  Biso   1.000  H
  H107     1.0000 0.84500  0.33200  0.30700  Biso   1.000  H
  H108     1.0000 0.59500  0.91800  0.05700  Biso   1.000  H
  H109     1.0000 0.40500  0.58200  0.55700  Biso   1.000  H
  H110     1.0000 0.40500  0.08200  0.05700  Biso   1.000  H
  H111     1.0000 0.90500  0.58200  0.05700  Biso   1.000  H
  H112     1.0000 0.90500  0.08200  0.55700  Biso   1.000  H
  H113     1.0000 0.03600  0.89000  0.07300  Biso   1.000  H
  H114     1.0000 0.03600  0.39000  0.57300  Biso   1.000  H
  H115     1.0000 0.53600  0.89000  0.57300  Biso   1.000  H
  H116     1.0000 0.53600  0.39000  0.07300  Biso   1.000  H
  H117     1.0000 0.46400  0.11000  0.57300  Biso   1.000  H
  H118     1.0000 0.21400  0.14000  0.32300  Biso   1.000  H
  H119     1.0000 0.46400  0.61000  0.07300  Biso   1.000  H
  H120     1.0000 0.21400  0.64000  0.82300  Biso   1.000  H
  H121     1.0000 0.96400  0.11000  0.07300  Biso   1.000  H
  H122     1.0000 0.71400  0.14000  0.82300  Biso   1.000  H
  H123     1.0000 0.96400  0.61000  0.57300  Biso   1.000  H
  H124     1.0000 0.71400  0.64000  0.32300  Biso   1.000  H
  H125     1.0000 0.28600  0.86000  0.82300  Biso   1.000  H
  H126     1.0000 0.28600  0.36000  0.32300  Biso   1.000  H
  H127     1.0000 0.78600  0.86000  0.32300  Biso   1.000  H
  H128     1.0000 0.78600  0.36000  0.82300  Biso   1.000  H
  H129     1.0000 0.14300  0.20400  0.52200  Biso   1.000  H
  H130     1.0000 0.14300  0.70400  0.02200  Biso   1.000  H
  H131     1.0000 0.64300  0.20400  0.02200  Biso   1.000  H
  H132     1.0000 0.64300  0.70400  0.52200  Biso   1.000  H
  H133     1.0000 0.35700  0.79600  0.02200  Biso   1.000  H
  H134     1.0000 0.10700  0.45400  0.77200  Biso   1.000  H
  H135     1.0000 0.35700  0.29600  0.52200  Biso   1.000  H
  H136     1.0000 0.10700  0.95400  0.27200  Biso   1.000  H
  H137     1.0000 0.85700  0.79600  0.52200  Biso   1.000  H
  H138     1.0000 0.60700  0.45400  0.27200  Biso   1.000  H
  H139     1.0000 0.85700  0.29600  0.02200  Biso   1.000  H
  H140     1.0000 0.60700  0.95400  0.77200  Biso   1.000  H
  H141     1.0000 0.39300  0.54600  0.27200  Biso   1.000  H
  H142     1.0000 0.39300  0.04600  0.77200  Biso   1.000  H
  H143     1.0000 0.89300  0.54600  0.77200  Biso   1.000  H
  H144     1.0000 0.89300  0.04600  0.27200  Biso   1.000  H
  H145     1.0000 0.03700  0.88600  0.35500  Biso   1.000  H
  H146     1.0000 0.03700  0.38600  0.85500  Biso   1.000  H
  H147     1.0000 0.53700  0.88600  0.85500  Biso   1.000  H
  H148     1.0000 0.53700  0.38600  0.35500  Biso   1.000  H
  H149     1.0000 0.46300  0.11400  0.85500  Biso   1.000  H
  H150     1.0000 0.21300  0.13600  0.60500  Biso   1.000  H
  H151     1.0000 0.46300  0.61400  0.35500  Biso   1.000  H
  H152     1.0000 0.21300  0.63600  0.10500  Biso   1.000  H
  H153     1.0000 0.96300  0.11400  0.35500  Biso   1.000  H
  H154     1.0000 0.71300  0.13600  0.10500  Biso   1.000  H
  H155     1.0000 0.96300  0.61400  0.85500  Biso   1.000  H
  H156     1.0000 0.71300  0.63600  0.60500  Biso   1.000  H
  H157     1.0000 0.28700  0.86400  0.10500  Biso   1.000  H
  H158     1.0000 0.28700  0.36400  0.60500  Biso   1.000  H
  H159     1.0000 0.78700  0.86400  0.60500  Biso   1.000  H
  H160     1.0000 0.78700  0.36400  0.10500  Biso   1.000  H
  H161     1.0000 0.09200  0.23400  0.45200  Biso   1.000  H
  H162     1.0000 0.09200  0.73400  0.95200  Biso   1.000  H
  H163     1.0000 0.59200  0.23400  0.95200  Biso   1.000  H
  H164     1.0000 0.59200  0.73400  0.45200  Biso   1.000  H
  H165     1.0000 0.40800  0.76600  0.95200  Biso   1.000  H
  H166     1.0000 0.15800  0.48400  0.70200  Biso   1.000  H
  H167     1.0000 0.40800  0.26600  0.45200  Biso   1.000  H
  H168     1.0000 0.15800  0.98400  0.20200  Biso   1.000  H
  H169     1.0000 0.90800  0.76600  0.45200  Biso   1.000  H
  H170     1.0000 0.65800  0.48400  0.20200  Biso   1.000  H
  H171     1.0000 0.90800  0.26600  0.95200  Biso   1.000  H
  H172     1.0000 0.65800  0.98400  0.70200  Biso   1.000  H
  H173     1.0000 0.34200  0.51600  0.20200  Biso   1.000  H
  H174     1.0000 0.34200  0.01600  0.70200  Biso   1.000  H
  H175     1.0000 0.84200  0.51600  0.70200  Biso   1.000  H
  H176     1.0000 0.84200  0.01600  0.20200  Biso   1.000  H
  H177     1.0000 0.04000  0.01200  0.50800  Biso   1.000  H
  H178     1.0000 0.04000  0.51200  0.00800  Biso   1.000  H
  H179     1.0000 0.54000  0.01200  0.00800  Biso   1.000  H
  H180     1.0000 0.54000  0.51200  0.50800  Biso   1.000  H
  H181     1.0000 0.46000  0.98800  0.00800  Biso   1.000  H
  H182     1.0000 0.21000  0.26200  0.75800  Biso   1.000  H
  H183     1.0000 0.46000  0.48800  0.50800  Biso   1.000  H
  H184     1.0000 0.21000  0.76200  0.25800  Biso   1.000  H
  H185     1.0000 0.96000  0.98800  0.50800  Biso   1.000  H
  H186     1.0000 0.71000  0.26200  0.25800  Biso   1.000  H
  H187     1.0000 0.96000  0.48800  0.00800  Biso   1.000  H
  H188     1.0000 0.71000  0.76200  0.75800  Biso   1.000  H
  H189     1.0000 0.29000  0.73800  0.25800  Biso   1.000  H
  H190     1.0000 0.29000  0.23800  0.75800  Biso   1.000  H
  H191     1.0000 0.79000  0.73800  0.75800  Biso   1.000  H
  H192     1.0000 0.79000  0.23800  0.25800  Biso   1.000  H
  H193     1.0000 0.05600  0.23600  0.66000  Biso   1.000  H
  H194     1.0000 0.05600  0.73600  0.16000  Biso   1.000  H
  H195     1.0000 0.55600  0.23600  0.16000  Biso   1.000  H
  H196     1.0000 0.55600  0.73600  0.66000  Biso   1.000  H
  H197     1.0000 0.44400  0.76400  0.16000  Biso   1.000  H
  H198     1.0000 0.19400  0.48600  0.91000  Biso   1.000  H
  H199     1.0000 0.44400  0.26400  0.66000  Biso   1.000  H
  H200     1.0000 0.19400  0.98600  0.41000  Biso   1.000  H
  H201     1.0000 0.94400  0.76400  0.66000  Biso   1.000  H
  H202     1.0000 0.69400  0.48600  0.41000  Biso   1.000  H
  H203     1.0000 0.94400  0.26400  0.16000  Biso   1.000  H
  H204     1.0000 0.69400  0.98600  0.91000  Biso   1.000  H
  H205     1.0000 0.30600  0.51400  0.41000  Biso   1.000  H
  H206     1.0000 0.30600  0.01400  0.91000  Biso   1.000  H
  H207     1.0000 0.80600  0.51400  0.91000  Biso   1.000  H
  H208     1.0000 0.80600  0.01400  0.41000  Biso   1.000  H
  H209     1.0000 0.04400  0.13300  0.35200  Biso   1.000  H
  H210     1.0000 0.04400  0.63300  0.85200  Biso   1.000  H
  H211     1.0000 0.54400  0.13300  0.85200  Biso   1.000  H
  H212     1.0000 0.54400  0.63300  0.35200  Biso   1.000  H
  H213     1.0000 0.45600  0.86700  0.85200  Biso   1.000  H
  H214     1.0000 0.20600  0.38300  0.60200  Biso   1.000  H
  H215     1.0000 0.45600  0.36700  0.35200  Biso   1.000  H
  H216     1.0000 0.20600  0.88300  0.10200  Biso   1.000  H
  H217     1.0000 0.95600  0.86700  0.35200  Biso   1.000  H
  H218     1.0000 0.70600  0.38300  0.10200  Biso   1.000  H
  H219     1.0000 0.95600  0.36700  0.85200  Biso   1.000  H
  H220     1.0000 0.70600  0.88300  0.60200  Biso   1.000  H
  H221     1.0000 0.29400  0.61700  0.10200  Biso   1.000  H
  H222     1.0000 0.29400  0.11700  0.60200  Biso   1.000  H
  H223     1.0000 0.79400  0.61700  0.60200  Biso   1.000  H
  H224     1.0000 0.79400  0.11700  0.10200  Biso   1.000  H
