data_image0
_cell_length_a       17.68
_cell_length_b       5.874
_cell_length_c       14.367
_cell_angle_alpha    90
_cell_angle_beta     112.91
_cell_angle_gamma    90

_symmetry_space_group_name_H-M    "P 1"
_symmetry_int_tables_number       1

loop_
  _symmetry_equiv_pos_as_xyz
  'x, y, z'

loop_
  _atom_site_label
  _atom_site_occupancy
  _atom_site_fract_x
  _atom_site_fract_y
  _atom_site_fract_z
  _atom_site_thermal_displace_type
  _atom_site_B_iso_or_equiv
  _atom_site_type_symbol
  C1       1.0000 0.17940  0.54320  0.96010  Biso   1.000  C
  C2       1.0000 0.32060  0.04320  0.53990  Biso   1.000  C
  C3       1.0000 0.82060  0.45680  0.03990  Biso   1.000  C
  C4       1.0000 0.67940  0.95680  0.46010  Biso   1.000  C
  Cu1      1.0000 0.24477  0.04843  0.99342  Biso   1.000  Cu
  Cu2      1.0000 0.25523  0.54843  0.50658  Biso   1.000  Cu
  Cu3      1.0000 0.75523  0.95157  0.00658  Biso   1.000  Cu
  Cu4      1.0000 0.74477  0.45157  0.49342  Biso   1.000  Cu
  N1       1.0000 0.20820  0.36620  0.97530  Biso   1.000  N
  N2       1.0000 0.29180  0.86620  0.52470  Biso   1.000  N
  N3       1.0000 0.79180  0.63380  0.02470  Biso   1.000  N
  N4       1.0000 0.70820  0.13380  0.47530  Biso   1.000  N
  S1       1.0000 0.13413  0.79541  0.93707  Biso   1.000  S
  S2       1.0000 0.36587  0.29541  0.56293  Biso   1.000  S
  S3       1.0000 0.86587  0.20459  0.06293  Biso   1.000  S
  S4       1.0000 0.63413  0.70459  0.43707  Biso   1.000  S
  N5       1.0000 0.31340  0.99160  0.14570  Biso   1.000  N
  N6       1.0000 0.18660  0.49160  0.35430  Biso   1.000  N
  N7       1.0000 0.68660  0.00840  0.85430  Biso   1.000  N
  N8       1.0000 0.81340  0.50840  0.64570  Biso   1.000  N
  C5       1.0000 0.36890  0.14480  0.20110  Biso   1.000  C
  C6       1.0000 0.13110  0.64480  0.29890  Biso   1.000  C
  C7       1.0000 0.63110  0.85520  0.79890  Biso   1.000  C
  C8       1.0000 0.86890  0.35520  0.70110  Biso   1.000  C
  C9       1.0000 0.41440  0.12570  0.30370  Biso   1.000  C
  C10      1.0000 0.08560  0.62570  0.19630  Biso   1.000  C
  C11      1.0000 0.58560  0.87430  0.69630  Biso   1.000  C
  C12      1.0000 0.91440  0.37430  0.80370  Biso   1.000  C
  C13      1.0000 0.39910  0.93840  0.35170  Biso   1.000  C
  C14      1.0000 0.10090  0.43840  0.14830  Biso   1.000  C
  C15      1.0000 0.60090  0.06160  0.64830  Biso   1.000  C
  C16      1.0000 0.89910  0.56160  0.85170  Biso   1.000  C
  C17      1.0000 0.34230  0.78120  0.29700  Biso   1.000  C
  C18      1.0000 0.15770  0.28120  0.20300  Biso   1.000  C
  C19      1.0000 0.65770  0.21880  0.70300  Biso   1.000  C
  C20      1.0000 0.84230  0.71880  0.79700  Biso   1.000  C
  C21      1.0000 0.30060  0.81040  0.19520  Biso   1.000  C
  C22      1.0000 0.19940  0.31040  0.30480  Biso   1.000  C
  C23      1.0000 0.69940  0.18960  0.80480  Biso   1.000  C
  C24      1.0000 0.80060  0.68960  0.69520  Biso   1.000  C
  C25      1.0000 0.47670  0.30300  0.36050  Biso   1.000  C
  C26      1.0000 0.02330  0.80300  0.13950  Biso   1.000  C
  C27      1.0000 0.52330  0.69700  0.63950  Biso   1.000  C
  C28      1.0000 0.97670  0.19700  0.86050  Biso   1.000  C
  N9       1.0000 0.31790  0.99470  0.91200  Biso   1.000  N
  N10      1.0000 0.18210  0.49470  0.58800  Biso   1.000  N
  N11      1.0000 0.68210  0.00530  0.08800  Biso   1.000  N
  N12      1.0000 0.81790  0.50530  0.41200  Biso   1.000  N
  C29      1.0000 0.37850  0.13840  0.91970  Biso   1.000  C
  C30      1.0000 0.12150  0.63840  0.58030  Biso   1.000  C
  C31      1.0000 0.62150  0.86160  0.08030  Biso   1.000  C
  C32      1.0000 0.87850  0.36160  0.41970  Biso   1.000  C
  C33      1.0000 0.42910  0.11990  0.86720  Biso   1.000  C
  C34      1.0000 0.07090  0.61990  0.63280  Biso   1.000  C
  C35      1.0000 0.57090  0.88010  0.13280  Biso   1.000  C
  C36      1.0000 0.92910  0.38010  0.36720  Biso   1.000  C
  C37      1.0000 0.41300  0.94080  0.80030  Biso   1.000  C
  C38      1.0000 0.08700  0.44080  0.69970  Biso   1.000  C
  C39      1.0000 0.58700  0.05920  0.19970  Biso   1.000  C
  C40      1.0000 0.91300  0.55920  0.30030  Biso   1.000  C
  C41      1.0000 0.35170  0.79120  0.79040  Biso   1.000  C
  C42      1.0000 0.14830  0.29120  0.70960  Biso   1.000  C
  C43      1.0000 0.64830  0.20880  0.20960  Biso   1.000  C
  C44      1.0000 0.85170  0.70880  0.29040  Biso   1.000  C
  C45      1.0000 0.30520  0.82190  0.84670  Biso   1.000  C
  C46      1.0000 0.19480  0.32190  0.65330  Biso   1.000  C
  C47      1.0000 0.69480  0.17810  0.15330  Biso   1.000  C
  C48      1.0000 0.80520  0.67810  0.34670  Biso   1.000  C
  C49      1.0000 0.49670  0.28910  0.88120  Biso   1.000  C
  C50      1.0000 0.00330  0.78910  0.61880  Biso   1.000  C
  C51      1.0000 0.50330  0.71090  0.11880  Biso   1.000  C
  C52      1.0000 0.99670  0.21090  0.38120  Biso   1.000  C
  H1       1.0000 0.37800  0.27700  0.16600  Biso   1.000  H
  H2       1.0000 0.12200  0.77700  0.33400  Biso   1.000  H
  H3       1.0000 0.62200  0.72300  0.83400  Biso   1.000  H
  H4       1.0000 0.87800  0.22300  0.66600  Biso   1.000  H
  H5       1.0000 0.38800  0.26500  0.96700  Biso   1.000  H
  H6       1.0000 0.11200  0.76500  0.53300  Biso   1.000  H
  H7       1.0000 0.61200  0.73500  0.03300  Biso   1.000  H
  H8       1.0000 0.88800  0.23500  0.46700  Biso   1.000  H
  H9       1.0000 0.51600  0.31400  0.33000  Biso   1.000  H
  H10      1.0000 0.98400  0.81400  0.17000  Biso   1.000  H
  H11      1.0000 0.48400  0.68600  0.67000  Biso   1.000  H
  H12      1.0000 0.01600  0.18600  0.83000  Biso   1.000  H
  H13      1.0000 0.47300  0.43700  0.86600  Biso   1.000  H
  H14      1.0000 0.02700  0.93700  0.63400  Biso   1.000  H
  H15      1.0000 0.52700  0.56300  0.13400  Biso   1.000  H
  H16      1.0000 0.97300  0.06300  0.36600  Biso   1.000  H
  H17      1.0000 0.44900  0.44700  0.35100  Biso   1.000  H
  H18      1.0000 0.05100  0.94700  0.14900  Biso   1.000  H
  H19      1.0000 0.55100  0.55300  0.64900  Biso   1.000  H
  H20      1.0000 0.94900  0.05300  0.85100  Biso   1.000  H
  H21      1.0000 0.53300  0.28800  0.95200  Biso   1.000  H
  H22      1.0000 0.96700  0.78800  0.54800  Biso   1.000  H
  H23      1.0000 0.46700  0.71200  0.04800  Biso   1.000  H
  H24      1.0000 0.03300  0.21200  0.45200  Biso   1.000  H
  H25      1.0000 0.50900  0.29300  0.43200  Biso   1.000  H
  H26      1.0000 0.99100  0.79300  0.06800  Biso   1.000  H
  H27      1.0000 0.49100  0.70700  0.56800  Biso   1.000  H
  H28      1.0000 0.00900  0.20700  0.93200  Biso   1.000  H
  H29      1.0000 0.53200  0.27800  0.84600  Biso   1.000  H
  H30      1.0000 0.96800  0.77800  0.65400  Biso   1.000  H
  H31      1.0000 0.46800  0.72200  0.15400  Biso   1.000  H
  H32      1.0000 0.03200  0.22200  0.34600  Biso   1.000  H
  H33      1.0000 0.43000  0.91800  0.42400  Biso   1.000  H
  H34      1.0000 0.07000  0.41800  0.07600  Biso   1.000  H
  H35      1.0000 0.57000  0.08200  0.57600  Biso   1.000  H
  H36      1.0000 0.93000  0.58200  0.92400  Biso   1.000  H
  H37      1.0000 0.44700  0.91900  0.76100  Biso   1.000  H
  H38      1.0000 0.05300  0.41900  0.73900  Biso   1.000  H
  H39      1.0000 0.55300  0.08100  0.23900  Biso   1.000  H
  H40      1.0000 0.94700  0.58100  0.26100  Biso   1.000  H
  H41      1.0000 0.33200  0.64900  0.33100  Biso   1.000  H
  H42      1.0000 0.16800  0.14900  0.16900  Biso   1.000  H
  H43      1.0000 0.66800  0.35100  0.66900  Biso   1.000  H
  H44      1.0000 0.83200  0.85100  0.83100  Biso   1.000  H
  H45      1.0000 0.34100  0.66500  0.74300  Biso   1.000  H
  H46      1.0000 0.15900  0.16500  0.75700  Biso   1.000  H
  H47      1.0000 0.65900  0.33500  0.25700  Biso   1.000  H
  H48      1.0000 0.84100  0.83500  0.24300  Biso   1.000  H
  H49      1.0000 0.26100  0.69800  0.15600  Biso   1.000  H
  H50      1.0000 0.23900  0.19800  0.34400  Biso   1.000  H
  H51      1.0000 0.73900  0.30200  0.84400  Biso   1.000  H
  H52      1.0000 0.76100  0.80200  0.65600  Biso   1.000  H
  H53      1.0000 0.26100  0.71200  0.84000  Biso   1.000  H
  H54      1.0000 0.23900  0.21200  0.66000  Biso   1.000  H
  H55      1.0000 0.73900  0.28800  0.16000  Biso   1.000  H
  H56      1.0000 0.76100  0.78800  0.34000  Biso   1.000  H
