data_image0
_cell_length_a       14.59
_cell_length_b       5.823
_cell_length_c       8.593
_cell_angle_alpha    90
_cell_angle_beta     106.44
_cell_angle_gamma    90

_symmetry_space_group_name_H-M    "P 1"
_symmetry_int_tables_number       1

loop_
  _symmetry_equiv_pos_as_xyz
  'x, y, z'

loop_
  _atom_site_label
  _atom_site_occupancy
  _atom_site_fract_x
  _atom_site_fract_y
  _atom_site_fract_z
  _atom_site_thermal_displace_type
  _atom_site_B_iso_or_equiv
  _atom_site_type_symbol
  C1       1.0000 0.24790  0.50260  0.11960  Biso   1.000  C
  C2       1.0000 0.75210  0.00260  0.88040  Biso   1.000  C
  Cu1      1.0000 0.22070  0.00000  0.98810  Biso   1.000  Cu
  Cu2      1.0000 0.77930  0.50000  0.01190  Biso   1.000  Cu
  N1       1.0000 0.23700  0.31830  0.05900  Biso   1.000  N
  N2       1.0000 0.76300  0.81830  0.94100  Biso   1.000  N
  S1       1.0000 0.26460  0.74670  0.21220  Biso   1.000  S
  S2       1.0000 0.73540  0.24670  0.78780  Biso   1.000  S
  N3       1.0000 0.08550  0.91600  0.84600  Biso   1.000  N
  N4       1.0000 0.91450  0.41600  0.15400  Biso   1.000  N
  C3       1.0000 0.03940  0.04500  0.72700  Biso   1.000  C
  C4       1.0000 0.96060  0.54500  0.27300  Biso   1.000  C
  C5       1.0000 0.94890  0.99600  0.62400  Biso   1.000  C
  C6       1.0000 0.05110  0.49600  0.37600  Biso   1.000  C
  C7       1.0000 0.90410  0.80000  0.64300  Biso   1.000  C
  C8       1.0000 0.09590  0.30000  0.35700  Biso   1.000  C
  C9       1.0000 0.95230  0.66200  0.77000  Biso   1.000  C
  C10      1.0000 0.04770  0.16200  0.23000  Biso   1.000  C
  C11      1.0000 0.04140  0.71800  0.86800  Biso   1.000  C
  C12      1.0000 0.95860  0.21800  0.13200  Biso   1.000  C
  C13      1.0000 0.80490  0.73700  0.53700  Biso   1.000  C
  C14      1.0000 0.19510  0.23700  0.46300  Biso   1.000  C
  N5       1.0000 0.31890  0.93300  0.85900  Biso   1.000  N
  N6       1.0000 0.68110  0.43300  0.14100  Biso   1.000  N
  C15      1.0000 0.39450  0.05600  0.87100  Biso   1.000  C
  C16      1.0000 0.60550  0.55600  0.12900  Biso   1.000  C
  C17      1.0000 0.46730  0.00200  0.80400  Biso   1.000  C
  C18      1.0000 0.53270  0.50200  0.19600  Biso   1.000  C
  C19      1.0000 0.46390  0.80500  0.71800  Biso   1.000  C
  C20      1.0000 0.53610  0.30500  0.28200  Biso   1.000  C
  C21      1.0000 0.38490  0.66900  0.70300  Biso   1.000  C
  C22      1.0000 0.61510  0.16900  0.29700  Biso   1.000  C
  C23      1.0000 0.31470  0.72800  0.77500  Biso   1.000  C
  C24      1.0000 0.68530  0.22800  0.22500  Biso   1.000  C
  C25      1.0000 0.54120  0.73600  0.64400  Biso   1.000  C
  C26      1.0000 0.45880  0.23600  0.35600  Biso   1.000  C
  H1       1.0000 0.07100  0.18800  0.70700  Biso   1.000  H
  H2       1.0000 0.92900  0.68800  0.29300  Biso   1.000  H
  H3       1.0000 0.40100  0.19600  0.93800  Biso   1.000  H
  H4       1.0000 0.59900  0.69600  0.06200  Biso   1.000  H
  H5       1.0000 0.91500  0.10900  0.54000  Biso   1.000  H
  H6       1.0000 0.08500  0.60900  0.46000  Biso   1.000  H
  H7       1.0000 0.51900  0.11700  0.81300  Biso   1.000  H
  H8       1.0000 0.48100  0.61700  0.18700  Biso   1.000  H
  H9       1.0000 0.76200  0.85900  0.54700  Biso   1.000  H
  H10      1.0000 0.23800  0.35900  0.45300  Biso   1.000  H
  H11      1.0000 0.54600  0.85600  0.56700  Biso   1.000  H
  H12      1.0000 0.45400  0.35600  0.43300  Biso   1.000  H
  H13      1.0000 0.80700  0.73300  0.42800  Biso   1.000  H
  H14      1.0000 0.19300  0.23300  0.57200  Biso   1.000  H
  H15      1.0000 0.60000  0.72900  0.72600  Biso   1.000  H
  H16      1.0000 0.40000  0.22900  0.27400  Biso   1.000  H
  H17      1.0000 0.77100  0.59900  0.55000  Biso   1.000  H
  H18      1.0000 0.22900  0.09900  0.45000  Biso   1.000  H
  H19      1.0000 0.54000  0.59600  0.58000  Biso   1.000  H
  H20      1.0000 0.46000  0.09600  0.42000  Biso   1.000  H
  H21      1.0000 0.92100  0.51800  0.79100  Biso   1.000  H
  H22      1.0000 0.07900  0.01800  0.20900  Biso   1.000  H
  H23      1.0000 0.37900  0.52500  0.63900  Biso   1.000  H
  H24      1.0000 0.62100  0.02500  0.36100  Biso   1.000  H
  H25      1.0000 0.07500  0.61300  0.95100  Biso   1.000  H
  H26      1.0000 0.92500  0.11300  0.04900  Biso   1.000  H
  H27      1.0000 0.25800  0.62800  0.76300  Biso   1.000  H
  H28      1.0000 0.74200  0.12800  0.23700  Biso   1.000  H
