data_image0
_cell_length_a       11.5
_cell_length_b       10.62
_cell_length_c       4.159
_cell_angle_alpha    90
_cell_angle_beta     90
_cell_angle_gamma    90

_symmetry_space_group_name_H-M    "P 1"
_symmetry_int_tables_number       1

loop_
  _symmetry_equiv_pos_as_xyz
  'x, y, z'

loop_
  _atom_site_label
  _atom_site_occupancy
  _atom_site_fract_x
  _atom_site_fract_y
  _atom_site_fract_z
  _atom_site_thermal_displace_type
  _atom_site_B_iso_or_equiv
  _atom_site_type_symbol
  I1       1.0000 0.00000  0.50000  0.07480  Biso   1.000  I
  I2       1.0000 0.50000  0.00000  0.92520  Biso   1.000  I
  Cu1      1.0000 0.12720  0.50000  0.59480  Biso   1.000  Cu
  Cu2      1.0000 0.62720  0.00000  0.40520  Biso   1.000  Cu
  N1       1.0000 0.29600  0.50000  0.47200  Biso   1.000  N
  N2       1.0000 0.79600  0.00000  0.52800  Biso   1.000  N
  C1       1.0000 0.28400  0.26800  0.49100  Biso   1.000  C
  C2       1.0000 0.28400  0.73200  0.49100  Biso   1.000  C
  C3       1.0000 0.78400  0.76800  0.50900  Biso   1.000  C
  C4       1.0000 0.78400  0.23200  0.50900  Biso   1.000  C
  C5       1.0000 0.34800  0.39200  0.40500  Biso   1.000  C
  C6       1.0000 0.34800  0.60800  0.40500  Biso   1.000  C
  C7       1.0000 0.84800  0.89200  0.59500  Biso   1.000  C
  C8       1.0000 0.84800  0.10800  0.59500  Biso   1.000  C
  C9       1.0000 0.46100  0.38800  0.26700  Biso   1.000  C
  C10      1.0000 0.46100  0.61200  0.26700  Biso   1.000  C
  C11      1.0000 0.96100  0.88800  0.73300  Biso   1.000  C
  C12      1.0000 0.96100  0.11200  0.73300  Biso   1.000  C
  C13      1.0000 0.51600  0.50000  0.20300  Biso   1.000  C
  C14      1.0000 0.01600  0.00000  0.79700  Biso   1.000  C
  C15      1.0000 0.63600  0.50000  0.06400  Biso   1.000  C
  C16      1.0000 0.13600  0.00000  0.93600  Biso   1.000  C
