data_image0
_cell_length_a       11.496
_cell_length_b       10.603
_cell_length_c       4.164
_cell_angle_alpha    90
_cell_angle_beta     90
_cell_angle_gamma    90

_symmetry_space_group_name_H-M    "P 1"
_symmetry_int_tables_number       1

loop_
  _symmetry_equiv_pos_as_xyz
  'x, y, z'

loop_
  _atom_site_label
  _atom_site_occupancy
  _atom_site_fract_x
  _atom_site_fract_y
  _atom_site_fract_z
  _atom_site_thermal_displace_type
  _atom_site_B_iso_or_equiv
  _atom_site_type_symbol
  I1       1.0000 0.01487  0.50000  0.07510  Biso   1.000  I
  I2       1.0000 0.51487  0.00000  0.92490  Biso   1.000  I
  Cu1      1.0000 0.14220  0.50000  0.59660  Biso   1.000  Cu
  Cu2      1.0000 0.64220  0.00000  0.40340  Biso   1.000  Cu
  N1       1.0000 0.30800  0.50000  0.47200  Biso   1.000  N
  N2       1.0000 0.80800  0.00000  0.52800  Biso   1.000  N
  C1       1.0000 0.36300  0.39100  0.40400  Biso   1.000  C
  C2       1.0000 0.36300  0.60900  0.40400  Biso   1.000  C
  C3       1.0000 0.86300  0.89100  0.59600  Biso   1.000  C
  C4       1.0000 0.86300  0.10900  0.59600  Biso   1.000  C
  C5       1.0000 0.29800  0.27200  0.49100  Biso   1.000  C
  C6       1.0000 0.29800  0.72800  0.49100  Biso   1.000  C
  C7       1.0000 0.79800  0.77200  0.50900  Biso   1.000  C
  C8       1.0000 0.79800  0.22800  0.50900  Biso   1.000  C
  C9       1.0000 0.47200  0.38900  0.26200  Biso   1.000  C
  C10      1.0000 0.47200  0.61100  0.26200  Biso   1.000  C
  C11      1.0000 0.97200  0.88900  0.73800  Biso   1.000  C
  C12      1.0000 0.97200  0.11100  0.73800  Biso   1.000  C
  C13      1.0000 0.52600  0.50000  0.19400  Biso   1.000  C
  C14      1.0000 0.02600  0.00000  0.80600  Biso   1.000  C
  C15      1.0000 0.64900  0.50000  0.04200  Biso   1.000  C
  C16      1.0000 0.14900  0.00000  0.95800  Biso   1.000  C
  H1       1.0000 0.25000  0.25000  0.65000  Biso   1.000  H
  H2       1.0000 0.25000  0.75000  0.65000  Biso   1.000  H
  H3       1.0000 0.75000  0.75000  0.35000  Biso   1.000  H
  H4       1.0000 0.75000  0.25000  0.35000  Biso   1.000  H
  H5       1.0000 0.21000  0.26000  0.30000  Biso   1.000  H
  H6       1.0000 0.21000  0.74000  0.30000  Biso   1.000  H
  H7       1.0000 0.71000  0.76000  0.70000  Biso   1.000  H
  H8       1.0000 0.71000  0.24000  0.70000  Biso   1.000  H
  H9       1.0000 0.34000  0.18000  0.45000  Biso   1.000  H
  H10      1.0000 0.34000  0.82000  0.45000  Biso   1.000  H
  H11      1.0000 0.84000  0.68000  0.55000  Biso   1.000  H
  H12      1.0000 0.84000  0.32000  0.55000  Biso   1.000  H
  H13      1.0000 0.51000  0.31000  0.23000  Biso   1.000  H
  H14      1.0000 0.51000  0.69000  0.23000  Biso   1.000  H
  H15      1.0000 0.01000  0.81000  0.77000  Biso   1.000  H
  H16      1.0000 0.01000  0.19000  0.77000  Biso   1.000  H
  H17      1.0000 0.72000  0.50000  0.11000  Biso   1.000  H
  H18      1.0000 0.22000  0.00000  0.89000  Biso   1.000  H
  H19      1.0000 0.66000  0.43000  0.04000  Biso   1.000  H
  H20      1.0000 0.66000  0.57000  0.04000  Biso   1.000  H
  H21      1.0000 0.16000  0.93000  0.96000  Biso   1.000  H
  H22      1.0000 0.16000  0.07000  0.96000  Biso   1.000  H
