data_image0
_cell_length_a       9.182
_cell_length_b       4.204
_cell_length_c       19.049
_cell_angle_alpha    90
_cell_angle_beta     111.56
_cell_angle_gamma    90

_symmetry_space_group_name_H-M    "P 1"
_symmetry_int_tables_number       1

loop_
  _symmetry_equiv_pos_as_xyz
  'x, y, z'

loop_
  _atom_site_label
  _atom_site_occupancy
  _atom_site_fract_x
  _atom_site_fract_y
  _atom_site_fract_z
  _atom_site_thermal_displace_type
  _atom_site_B_iso_or_equiv
  _atom_site_type_symbol
  I1       1.0000 0.33030  0.06360  0.15010  Biso   1.000  I
  I2       1.0000 0.66970  0.56360  0.34990  Biso   1.000  I
  I3       1.0000 0.66970  0.93640  0.84990  Biso   1.000  I
  I4       1.0000 0.33030  0.43640  0.65010  Biso   1.000  I
  Cu1      1.0000 0.48230  0.05680  0.29770  Biso   1.000  Cu
  Cu2      1.0000 0.51770  0.55680  0.20230  Biso   1.000  Cu
  Cu3      1.0000 0.51770  0.94320  0.70230  Biso   1.000  Cu
  Cu4      1.0000 0.48230  0.44320  0.79770  Biso   1.000  Cu
  N1       1.0000 0.32000  0.06300  0.34800  Biso   1.000  N
  N2       1.0000 0.68000  0.56300  0.15200  Biso   1.000  N
  N3       1.0000 0.68000  0.93700  0.65200  Biso   1.000  N
  N4       1.0000 0.32000  0.43700  0.84800  Biso   1.000  N
  C1       1.0000 0.34400  0.92200  0.41300  Biso   1.000  C
  C2       1.0000 0.65600  0.42200  0.08700  Biso   1.000  C
  C3       1.0000 0.65600  0.07800  0.58700  Biso   1.000  C
  C4       1.0000 0.34400  0.57800  0.91300  Biso   1.000  C
  C5       1.0000 0.23500  0.92800  0.44800  Biso   1.000  C
  C6       1.0000 0.76500  0.42800  0.05200  Biso   1.000  C
  C7       1.0000 0.76500  0.07200  0.55200  Biso   1.000  C
  C8       1.0000 0.23500  0.57200  0.94800  Biso   1.000  C
  C9       1.0000 0.09900  0.08700  0.41400  Biso   1.000  C
  C10      1.0000 0.90100  0.58700  0.08600  Biso   1.000  C
  C11      1.0000 0.90100  0.91300  0.58600  Biso   1.000  C
  C12      1.0000 0.09900  0.41300  0.91400  Biso   1.000  C
  C13      1.0000 0.07300  0.23000  0.34700  Biso   1.000  C
  C14      1.0000 0.92700  0.73000  0.15300  Biso   1.000  C
  C15      1.0000 0.92700  0.77000  0.65300  Biso   1.000  C
  C16      1.0000 0.07300  0.27000  0.84700  Biso   1.000  C
  C17      1.0000 0.18600  0.21700  0.31500  Biso   1.000  C
  C18      1.0000 0.81400  0.71700  0.18500  Biso   1.000  C
  C19      1.0000 0.81400  0.78300  0.68500  Biso   1.000  C
  C20      1.0000 0.18600  0.28300  0.81500  Biso   1.000  C
