data_image0
_cell_length_a       4.5
_cell_length_b       20.217
_cell_length_c       18.797
_cell_angle_alpha    90
_cell_angle_beta     95
_cell_angle_gamma    90

_symmetry_space_group_name_H-M    "P 1"
_symmetry_int_tables_number       1

loop_
  _symmetry_equiv_pos_as_xyz
  'x, y, z'

loop_
  _atom_site_label
  _atom_site_occupancy
  _atom_site_fract_x
  _atom_site_fract_y
  _atom_site_fract_z
  _atom_site_thermal_displace_type
  _atom_site_B_iso_or_equiv
  _atom_site_type_symbol
  K1       1.0000 0.85800  0.44200  0.76100  Biso   1.000  K
  K2       1.0000 0.14200  0.94200  0.23900  Biso   1.000  K
  O1       1.0000 0.91590  0.31590  0.81740  Biso   1.000  O
  O2       1.0000 0.08410  0.81590  0.18260  Biso   1.000  O
  O3       1.0000 0.87920  0.40800  0.92310  Biso   1.000  O
  O4       1.0000 0.12080  0.90800  0.07690  Biso   1.000  O
  O5       1.0000 0.70320  0.54490  0.88580  Biso   1.000  O
  O6       1.0000 0.29680  0.04490  0.11420  Biso   1.000  O
  O7       1.0000 0.71550  0.67110  0.83650  Biso   1.000  O
  O8       1.0000 0.28450  0.17110  0.16350  Biso   1.000  O
  O9       1.0000 0.65300  0.69730  0.69650  Biso   1.000  O
  O10      1.0000 0.34700  0.19730  0.30350  Biso   1.000  O
  O11      1.0000 0.65370  0.60120  0.59670  Biso   1.000  O
  O12      1.0000 0.34630  0.10120  0.40330  Biso   1.000  O
  O13      1.0000 0.81240  0.46180  0.61180  Biso   1.000  O
  O14      1.0000 0.18760  0.96180  0.38820  Biso   1.000  O
  O15      1.0000 0.73820  0.33270  0.68020  Biso   1.000  O
  O16      1.0000 0.26180  0.83270  0.31980  Biso   1.000  O
  C1       1.0000 0.02900  0.30510  0.86660  Biso   1.000  C
  C2       1.0000 0.97100  0.80510  0.13340  Biso   1.000  C
  C3       1.0000 0.03320  0.35480  0.93710  Biso   1.000  C
  C4       1.0000 0.96680  0.85480  0.06290  Biso   1.000  C
  C5       1.0000 0.81400  0.44790  0.97250  Biso   1.000  C
  C6       1.0000 0.18600  0.94790  0.02750  Biso   1.000  C
  C7       1.0000 0.51200  0.49590  0.92350  Biso   1.000  C
  C8       1.0000 0.48800  0.99590  0.07650  Biso   1.000  C
  C9       1.0000 0.79200  0.60340  0.92430  Biso   1.000  C
  C10      1.0000 0.20800  0.10340  0.07570  Biso   1.000  C
  C11      1.0000 0.97100  0.63340  0.89060  Biso   1.000  C
  C12      1.0000 0.02900  0.13340  0.10940  Biso   1.000  C
  C13      1.0000 0.86280  0.73100  0.79040  Biso   1.000  C
  C14      1.0000 0.13720  0.23100  0.20960  Biso   1.000  C
  C15      1.0000 0.67770  0.74600  0.72820  Biso   1.000  C
  C16      1.0000 0.32230  0.24600  0.27180  Biso   1.000  C
  C17      1.0000 0.44020  0.69810  0.61100  Biso   1.000  C
  C18      1.0000 0.55980  0.19810  0.38900  Biso   1.000  C
  C19      1.0000 0.45430  0.65940  0.57710  Biso   1.000  C
  C20      1.0000 0.54570  0.15940  0.42290  Biso   1.000  C
  C21      1.0000 0.76110  0.55730  0.53340  Biso   1.000  C
  C22      1.0000 0.23890  0.05730  0.46660  Biso   1.000  C
  C23      1.0000 0.93890  0.50570  0.56280  Biso   1.000  C
  C24      1.0000 0.06110  0.00570  0.43720  Biso   1.000  C
  C25      1.0000 0.73400  0.41410  0.56460  Biso   1.000  C
  C26      1.0000 0.26600  0.91410  0.43540  Biso   1.000  C
  C27      1.0000 0.55260  0.34610  0.61290  Biso   1.000  C
  C28      1.0000 0.44740  0.84610  0.38710  Biso   1.000  C
  C29      1.0000 0.63700  0.28830  0.70170  Biso   1.000  C
  C30      1.0000 0.36300  0.78830  0.29830  Biso   1.000  C
  C31      1.0000 0.87660  0.25890  0.76580  Biso   1.000  C
  C32      1.0000 0.12340  0.75890  0.23420  Biso   1.000  C
  C33      1.0000 0.27930  0.24780  0.89950  Biso   1.000  C
  C34      1.0000 0.72070  0.74780  0.10050  Biso   1.000  C
  C35      1.0000 0.39460  0.24230  0.95480  Biso   1.000  C
  C36      1.0000 0.60540  0.74230  0.04520  Biso   1.000  C
  C37      1.0000 0.36300  0.30270  0.02050  Biso   1.000  C
  C38      1.0000 0.63700  0.80270  0.97950  Biso   1.000  C
  C39      1.0000 0.17800  0.34210  0.01610  Biso   1.000  C
  C40      1.0000 0.82200  0.84210  0.98390  Biso   1.000  C
  C41      1.0000 0.30400  0.75650  0.61270  Biso   1.000  C
  C42      1.0000 0.69600  0.25650  0.38730  Biso   1.000  C
  C43      1.0000 0.10200  0.75130  0.51590  Biso   1.000  C
  C44      1.0000 0.89800  0.25130  0.48410  Biso   1.000  C
  C45      1.0000 0.14900  0.71440  0.48550  Biso   1.000  C
  C46      1.0000 0.85100  0.21440  0.51450  Biso   1.000  C
  C47      1.0000 0.34400  0.65610  0.50940  Biso   1.000  C
  C48      1.0000 0.65600  0.15610  0.49060  Biso   1.000  C
  I1       1.0000 0.23600  0.09910  0.68480  Biso   1.000  I
  I2       1.0000 0.76400  0.59910  0.31520  Biso   1.000  I
  I3       1.0000 0.28390  0.90080  0.81320  Biso   1.000  I
  I4       1.0000 0.71610  0.40080  0.18680  Biso   1.000  I
  I5       1.0000 0.78420  0.07210  0.87580  Biso   1.000  I
  I6       1.0000 0.21580  0.57210  0.12420  Biso   1.000  I
  I7       1.0000 0.72280  0.92880  0.62120  Biso   1.000  I
  I8       1.0000 0.27720  0.42880  0.37880  Biso   1.000  I
  Cu1      1.0000 0.26190  0.03630  0.80960  Biso   1.000  Cu
  Cu2      1.0000 0.73810  0.53630  0.19040  Biso   1.000  Cu
  Cu3      1.0000 0.24680  0.96690  0.68730  Biso   1.000  Cu
  Cu4      1.0000 0.75320  0.46690  0.31270  Biso   1.000  Cu
  Cu5      1.0000 0.73540  0.04260  0.70290  Biso   1.000  Cu
  Cu6      1.0000 0.26460  0.54260  0.29710  Biso   1.000  Cu
