data_image0
_cell_length_a       23.818
_cell_length_b       10.956
_cell_length_c       17.071
_cell_angle_alpha    90
_cell_angle_beta     119.75
_cell_angle_gamma    90

_symmetry_space_group_name_H-M    "P 1"
_symmetry_int_tables_number       1

loop_
  _symmetry_equiv_pos_as_xyz
  'x, y, z'

loop_
  _atom_site_label
  _atom_site_occupancy
  _atom_site_fract_x
  _atom_site_fract_y
  _atom_site_fract_z
  _atom_site_thermal_displace_type
  _atom_site_B_iso_or_equiv
  _atom_site_type_symbol
  I1       1.0000 0.46100  0.73900  0.10090  Biso   1.000  I
  I2       1.0000 0.96100  0.23900  0.10090  Biso   1.000  I
  I3       1.0000 0.53900  0.73900  0.39910  Biso   1.000  I
  I4       1.0000 0.03900  0.23900  0.39910  Biso   1.000  I
  I5       1.0000 0.53900  0.26100  0.89910  Biso   1.000  I
  I6       1.0000 0.03900  0.76100  0.89910  Biso   1.000  I
  I7       1.0000 0.46100  0.26100  0.60090  Biso   1.000  I
  I8       1.0000 0.96100  0.76100  0.60090  Biso   1.000  I
  I9       1.0000 0.59840  0.99900  0.25700  Biso   1.000  I
  I10      1.0000 0.09840  0.49900  0.25700  Biso   1.000  I
  I11      1.0000 0.40160  0.99900  0.24300  Biso   1.000  I
  I12      1.0000 0.90160  0.49900  0.24300  Biso   1.000  I
  I13      1.0000 0.40160  0.00100  0.74300  Biso   1.000  I
  I14      1.0000 0.90160  0.50100  0.74300  Biso   1.000  I
  I15      1.0000 0.59840  0.00100  0.75700  Biso   1.000  I
  I16      1.0000 0.09840  0.50100  0.75700  Biso   1.000  I
  I17      1.0000 0.42670  0.10670  0.01540  Biso   1.000  I
  I18      1.0000 0.92670  0.60670  0.01540  Biso   1.000  I
  I19      1.0000 0.57330  0.10670  0.48460  Biso   1.000  I
  I20      1.0000 0.07330  0.60670  0.48460  Biso   1.000  I
  I21      1.0000 0.57330  0.89330  0.98460  Biso   1.000  I
  I22      1.0000 0.07330  0.39330  0.98460  Biso   1.000  I
  I23      1.0000 0.42670  0.89330  0.51540  Biso   1.000  I
  I24      1.0000 0.92670  0.39330  0.51540  Biso   1.000  I
  Cu1      1.0000 0.46290  0.96050  0.16120  Biso   1.000  Cu
  Cu2      1.0000 0.96290  0.46050  0.16120  Biso   1.000  Cu
  Cu3      1.0000 0.53710  0.96050  0.33880  Biso   1.000  Cu
  Cu4      1.0000 0.03710  0.46050  0.33880  Biso   1.000  Cu
  Cu5      1.0000 0.53710  0.03950  0.83880  Biso   1.000  Cu
  Cu6      1.0000 0.03710  0.53950  0.83880  Biso   1.000  Cu
  Cu7      1.0000 0.46290  0.03950  0.66120  Biso   1.000  Cu
  Cu8      1.0000 0.96290  0.53950  0.66120  Biso   1.000  Cu
  Cu9      1.0000 0.51600  0.92710  0.07150  Biso   1.000  Cu
  Cu10     1.0000 0.01600  0.42710  0.07150  Biso   1.000  Cu
  Cu11     1.0000 0.48400  0.92710  0.42850  Biso   1.000  Cu
  Cu12     1.0000 0.98400  0.42710  0.42850  Biso   1.000  Cu
  Cu13     1.0000 0.48400  0.07290  0.92850  Biso   1.000  Cu
  Cu14     1.0000 0.98400  0.57290  0.92850  Biso   1.000  Cu
  Cu15     1.0000 0.51600  0.07290  0.57150  Biso   1.000  Cu
  Cu16     1.0000 0.01600  0.57290  0.57150  Biso   1.000  Cu
  K1       1.0000 0.38150  0.65650  0.21920  Biso   1.000  K
  K2       1.0000 0.88150  0.15650  0.21920  Biso   1.000  K
  K3       1.0000 0.61850  0.65650  0.28080  Biso   1.000  K
  K4       1.0000 0.11850  0.15650  0.28080  Biso   1.000  K
  K5       1.0000 0.61850  0.34350  0.78080  Biso   1.000  K
  K6       1.0000 0.11850  0.84350  0.78080  Biso   1.000  K
  K7       1.0000 0.38150  0.34350  0.71920  Biso   1.000  K
  K8       1.0000 0.88150  0.84350  0.71920  Biso   1.000  K
  O1       1.0000 0.25190  0.67290  0.10260  Biso   1.000  O
  O2       1.0000 0.75190  0.17290  0.10260  Biso   1.000  O
  O3       1.0000 0.74810  0.67290  0.39740  Biso   1.000  O
  O4       1.0000 0.24810  0.17290  0.39740  Biso   1.000  O
  O5       1.0000 0.74810  0.32710  0.89740  Biso   1.000  O
  O6       1.0000 0.24810  0.82710  0.89740  Biso   1.000  O
  O7       1.0000 0.25190  0.32710  0.60260  Biso   1.000  O
  O8       1.0000 0.75190  0.82710  0.60260  Biso   1.000  O
  C1       1.0000 0.21370  0.68700  0.14200  Biso   1.000  C
  C2       1.0000 0.71370  0.18700  0.14200  Biso   1.000  C
  C3       1.0000 0.78630  0.68700  0.35800  Biso   1.000  C
  C4       1.0000 0.28630  0.18700  0.35800  Biso   1.000  C
  C5       1.0000 0.78630  0.31300  0.85800  Biso   1.000  C
  C6       1.0000 0.28630  0.81300  0.85800  Biso   1.000  C
  C7       1.0000 0.21370  0.31300  0.64200  Biso   1.000  C
  C8       1.0000 0.71370  0.81300  0.64200  Biso   1.000  C
  H1       1.0000 0.20620  0.60810  0.15940  Biso   1.000  H
  H2       1.0000 0.70620  0.10810  0.15940  Biso   1.000  H
  H3       1.0000 0.79380  0.60810  0.34060  Biso   1.000  H
  H4       1.0000 0.29380  0.10810  0.34060  Biso   1.000  H
  H5       1.0000 0.79380  0.39190  0.84060  Biso   1.000  H
  H6       1.0000 0.29380  0.89190  0.84060  Biso   1.000  H
  H7       1.0000 0.20620  0.39190  0.65940  Biso   1.000  H
  H8       1.0000 0.70620  0.89190  0.65940  Biso   1.000  H
  H9       1.0000 0.17280  0.72130  0.09880  Biso   1.000  H
  H10      1.0000 0.67280  0.22130  0.09880  Biso   1.000  H
  H11      1.0000 0.82720  0.72130  0.40120  Biso   1.000  H
  H12      1.0000 0.32720  0.22130  0.40120  Biso   1.000  H
  H13      1.0000 0.82720  0.27870  0.90120  Biso   1.000  H
  H14      1.0000 0.32720  0.77870  0.90120  Biso   1.000  H
  H15      1.0000 0.17280  0.27870  0.59880  Biso   1.000  H
  H16      1.0000 0.67280  0.77870  0.59880  Biso   1.000  H
  C9       1.0000 0.24240  0.75200  0.22100  Biso   1.000  C
  C10      1.0000 0.74240  0.25200  0.22100  Biso   1.000  C
  C11      1.0000 0.75760  0.75200  0.27900  Biso   1.000  C
  C12      1.0000 0.25760  0.25200  0.27900  Biso   1.000  C
  C13      1.0000 0.75760  0.24800  0.77900  Biso   1.000  C
  C14      1.0000 0.25760  0.74800  0.77900  Biso   1.000  C
  C15      1.0000 0.24240  0.24800  0.72100  Biso   1.000  C
  C16      1.0000 0.74240  0.74800  0.72100  Biso   1.000  C
  H17      1.0000 0.25100  0.82900  0.20310  Biso   1.000  H
  H18      1.0000 0.75100  0.32900  0.20310  Biso   1.000  H
  H19      1.0000 0.74900  0.82900  0.29690  Biso   1.000  H
  H20      1.0000 0.24900  0.32900  0.29690  Biso   1.000  H
  H21      1.0000 0.74900  0.17100  0.79690  Biso   1.000  H
  H22      1.0000 0.24900  0.67100  0.79690  Biso   1.000  H
  H23      1.0000 0.25100  0.17100  0.70310  Biso   1.000  H
  H24      1.0000 0.75100  0.67100  0.70310  Biso   1.000  H
  H25      1.0000 0.21430  0.76530  0.24570  Biso   1.000  H
  H26      1.0000 0.71430  0.26530  0.24570  Biso   1.000  H
  H27      1.0000 0.78570  0.76530  0.25430  Biso   1.000  H
  H28      1.0000 0.28570  0.26530  0.25430  Biso   1.000  H
  H29      1.0000 0.78570  0.23470  0.75430  Biso   1.000  H
  H30      1.0000 0.28570  0.73470  0.75430  Biso   1.000  H
  H31      1.0000 0.21430  0.23470  0.74570  Biso   1.000  H
  H32      1.0000 0.71430  0.73470  0.74570  Biso   1.000  H
  O9       1.0000 0.30300  0.70900  0.28800  Biso   1.000  O
  O10      1.0000 0.80300  0.20900  0.28800  Biso   1.000  O
  O11      1.0000 0.69700  0.70900  0.21200  Biso   1.000  O
  O12      1.0000 0.19700  0.20900  0.21200  Biso   1.000  O
  O13      1.0000 0.69700  0.29100  0.71200  Biso   1.000  O
  O14      1.0000 0.19700  0.79100  0.71200  Biso   1.000  O
  O15      1.0000 0.30300  0.29100  0.78800  Biso   1.000  O
  O16      1.0000 0.80300  0.79100  0.78800  Biso   1.000  O
  C17      1.0000 0.30030  0.63000  0.34900  Biso   1.000  C
  C18      1.0000 0.80030  0.13000  0.34900  Biso   1.000  C
  C19      1.0000 0.69970  0.63000  0.15100  Biso   1.000  C
  C20      1.0000 0.19970  0.13000  0.15100  Biso   1.000  C
  C21      1.0000 0.69970  0.37000  0.65100  Biso   1.000  C
  C22      1.0000 0.19970  0.87000  0.65100  Biso   1.000  C
  C23      1.0000 0.30030  0.37000  0.84900  Biso   1.000  C
  C24      1.0000 0.80030  0.87000  0.84900  Biso   1.000  C
  H33      1.0000 0.26770  0.57130  0.31360  Biso   1.000  H
  H34      1.0000 0.76770  0.07130  0.31360  Biso   1.000  H
  H35      1.0000 0.73230  0.57130  0.18640  Biso   1.000  H
  H36      1.0000 0.23230  0.07130  0.18640  Biso   1.000  H
  H37      1.0000 0.73230  0.42870  0.68640  Biso   1.000  H
  H38      1.0000 0.23230  0.92870  0.68640  Biso   1.000  H
  H39      1.0000 0.26770  0.42870  0.81360  Biso   1.000  H
  H40      1.0000 0.76770  0.92870  0.81360  Biso   1.000  H
  H41      1.0000 0.28750  0.67210  0.38710  Biso   1.000  H
  H42      1.0000 0.78750  0.17210  0.38710  Biso   1.000  H
  H43      1.0000 0.71250  0.67210  0.11290  Biso   1.000  H
  H44      1.0000 0.21250  0.17210  0.11290  Biso   1.000  H
  H45      1.0000 0.71250  0.32790  0.61290  Biso   1.000  H
  H46      1.0000 0.21250  0.82790  0.61290  Biso   1.000  H
  H47      1.0000 0.28750  0.32790  0.88710  Biso   1.000  H
  H48      1.0000 0.78750  0.82790  0.88710  Biso   1.000  H
  C25      1.0000 0.36110  0.56600  0.39850  Biso   1.000  C
  C26      1.0000 0.86110  0.06600  0.39850  Biso   1.000  C
  C27      1.0000 0.63890  0.56600  0.10150  Biso   1.000  C
  C28      1.0000 0.13890  0.06600  0.10150  Biso   1.000  C
  C29      1.0000 0.63890  0.43400  0.60150  Biso   1.000  C
  C30      1.0000 0.13890  0.93400  0.60150  Biso   1.000  C
  C31      1.0000 0.36110  0.43400  0.89850  Biso   1.000  C
  C32      1.0000 0.86110  0.93400  0.89850  Biso   1.000  C
  H49      1.0000 0.39500  0.62490  0.42750  Biso   1.000  H
  H50      1.0000 0.89500  0.12490  0.42750  Biso   1.000  H
  H51      1.0000 0.60500  0.62490  0.07250  Biso   1.000  H
  H52      1.0000 0.10500  0.12490  0.07250  Biso   1.000  H
  H53      1.0000 0.60500  0.37510  0.57250  Biso   1.000  H
  H54      1.0000 0.10500  0.87510  0.57250  Biso   1.000  H
  H55      1.0000 0.39500  0.37510  0.92750  Biso   1.000  H
  H56      1.0000 0.89500  0.87510  0.92750  Biso   1.000  H
  H57      1.0000 0.36040  0.51480  0.44370  Biso   1.000  H
  H58      1.0000 0.86040  0.01480  0.44370  Biso   1.000  H
  H59      1.0000 0.63960  0.51480  0.05630  Biso   1.000  H
  H60      1.0000 0.13960  0.01480  0.05630  Biso   1.000  H
  H61      1.0000 0.63960  0.48520  0.55630  Biso   1.000  H
  H62      1.0000 0.13960  0.98520  0.55630  Biso   1.000  H
  H63      1.0000 0.36040  0.48520  0.94370  Biso   1.000  H
  H64      1.0000 0.86040  0.98520  0.94370  Biso   1.000  H
  O17      1.0000 0.36970  0.49430  0.34050  Biso   1.000  O
  O18      1.0000 0.86970  0.99430  0.34050  Biso   1.000  O
  O19      1.0000 0.63030  0.49430  0.15950  Biso   1.000  O
  O20      1.0000 0.13030  0.99430  0.15950  Biso   1.000  O
  O21      1.0000 0.63030  0.50570  0.65950  Biso   1.000  O
  O22      1.0000 0.13030  0.00570  0.65950  Biso   1.000  O
  O23      1.0000 0.36970  0.50570  0.84050  Biso   1.000  O
  O24      1.0000 0.86970  0.00570  0.84050  Biso   1.000  O
  C33      1.0000 0.42880  0.43300  0.37920  Biso   1.000  C
  C34      1.0000 0.92880  0.93300  0.37920  Biso   1.000  C
  C35      1.0000 0.57120  0.43300  0.12080  Biso   1.000  C
  C36      1.0000 0.07120  0.93300  0.12080  Biso   1.000  C
  C37      1.0000 0.57120  0.56700  0.62080  Biso   1.000  C
  C38      1.0000 0.07120  0.06700  0.62080  Biso   1.000  C
  C39      1.0000 0.42880  0.56700  0.87920  Biso   1.000  C
  C40      1.0000 0.92880  0.06700  0.87920  Biso   1.000  C
  H65      1.0000 0.43570  0.38740  0.43120  Biso   1.000  H
  H66      1.0000 0.93570  0.88740  0.43120  Biso   1.000  H
  H67      1.0000 0.56430  0.38740  0.06880  Biso   1.000  H
  H68      1.0000 0.06430  0.88740  0.06880  Biso   1.000  H
  H69      1.0000 0.56430  0.61260  0.56880  Biso   1.000  H
  H70      1.0000 0.06430  0.11260  0.56880  Biso   1.000  H
  H71      1.0000 0.43570  0.61260  0.93120  Biso   1.000  H
  H72      1.0000 0.93570  0.11260  0.93120  Biso   1.000  H
  H73      1.0000 0.46330  0.49110  0.39700  Biso   1.000  H
  H74      1.0000 0.96330  0.99110  0.39700  Biso   1.000  H
  H75      1.0000 0.53670  0.49110  0.10300  Biso   1.000  H
  H76      1.0000 0.03670  0.99110  0.10300  Biso   1.000  H
  H77      1.0000 0.53670  0.50890  0.60300  Biso   1.000  H
  H78      1.0000 0.03670  0.00890  0.60300  Biso   1.000  H
  H79      1.0000 0.46330  0.50890  0.89700  Biso   1.000  H
  H80      1.0000 0.96330  0.00890  0.89700  Biso   1.000  H
  C41      1.0000 0.42800  0.35100  0.31000  Biso   1.000  C
  C42      1.0000 0.92800  0.85100  0.31000  Biso   1.000  C
  C43      1.0000 0.57200  0.35100  0.19000  Biso   1.000  C
  C44      1.0000 0.07200  0.85100  0.19000  Biso   1.000  C
  C45      1.0000 0.57200  0.64900  0.69000  Biso   1.000  C
  C46      1.0000 0.07200  0.14900  0.69000  Biso   1.000  C
  C47      1.0000 0.42800  0.64900  0.81000  Biso   1.000  C
  C48      1.0000 0.92800  0.14900  0.81000  Biso   1.000  C
  H81      1.0000 0.46290  0.29340  0.33400  Biso   1.000  H
  H82      1.0000 0.96290  0.79340  0.33400  Biso   1.000  H
  H83      1.0000 0.53710  0.29340  0.16600  Biso   1.000  H
  H84      1.0000 0.03710  0.79340  0.16600  Biso   1.000  H
  H85      1.0000 0.53710  0.70660  0.66600  Biso   1.000  H
  H86      1.0000 0.03710  0.20660  0.66600  Biso   1.000  H
  H87      1.0000 0.46290  0.70660  0.83400  Biso   1.000  H
  H88      1.0000 0.96290  0.20660  0.83400  Biso   1.000  H
  H89      1.0000 0.38780  0.30730  0.28310  Biso   1.000  H
  H90      1.0000 0.88780  0.80730  0.28310  Biso   1.000  H
  H91      1.0000 0.61220  0.30730  0.21690  Biso   1.000  H
  H92      1.0000 0.11220  0.80730  0.21690  Biso   1.000  H
  H93      1.0000 0.61220  0.69270  0.71690  Biso   1.000  H
  H94      1.0000 0.11220  0.19270  0.71690  Biso   1.000  H
  H95      1.0000 0.38780  0.69270  0.78310  Biso   1.000  H
  H96      1.0000 0.88780  0.19270  0.78310  Biso   1.000  H
  O25      1.0000 0.43030  0.42640  0.24770  Biso   1.000  O
  O26      1.0000 0.93030  0.92640  0.24770  Biso   1.000  O
  O27      1.0000 0.56970  0.42640  0.25230  Biso   1.000  O
  O28      1.0000 0.06970  0.92640  0.25230  Biso   1.000  O
  O29      1.0000 0.56970  0.57360  0.75230  Biso   1.000  O
  O30      1.0000 0.06970  0.07360  0.75230  Biso   1.000  O
  O31      1.0000 0.43030  0.57360  0.74770  Biso   1.000  O
  O32      1.0000 0.93030  0.07360  0.74770  Biso   1.000  O
  C49      1.0000 0.41160  0.36600  0.16560  Biso   1.000  C
  C50      1.0000 0.91160  0.86600  0.16560  Biso   1.000  C
  C51      1.0000 0.58840  0.36600  0.33440  Biso   1.000  C
  C52      1.0000 0.08840  0.86600  0.33440  Biso   1.000  C
  C53      1.0000 0.58840  0.63400  0.83440  Biso   1.000  C
  C54      1.0000 0.08840  0.13400  0.83440  Biso   1.000  C
  C55      1.0000 0.41160  0.63400  0.66560  Biso   1.000  C
  C56      1.0000 0.91160  0.13400  0.66560  Biso   1.000  C
  H97      1.0000 0.43080  0.28680  0.17730  Biso   1.000  H
  H98      1.0000 0.93080  0.78680  0.17730  Biso   1.000  H
  H99      1.0000 0.56920  0.28680  0.32270  Biso   1.000  H
  H100     1.0000 0.06920  0.78680  0.32270  Biso   1.000  H
  H101     1.0000 0.56920  0.71320  0.82270  Biso   1.000  H
  H102     1.0000 0.06920  0.21320  0.82270  Biso   1.000  H
  H103     1.0000 0.43080  0.71320  0.67730  Biso   1.000  H
  H104     1.0000 0.93080  0.21320  0.67730  Biso   1.000  H
  H105     1.0000 0.42770  0.41240  0.13310  Biso   1.000  H
  H106     1.0000 0.92770  0.91240  0.13310  Biso   1.000  H
  H107     1.0000 0.57230  0.41240  0.36690  Biso   1.000  H
  H108     1.0000 0.07230  0.91240  0.36690  Biso   1.000  H
  H109     1.0000 0.57230  0.58760  0.86690  Biso   1.000  H
  H110     1.0000 0.07230  0.08760  0.86690  Biso   1.000  H
  H111     1.0000 0.42770  0.58760  0.63310  Biso   1.000  H
  H112     1.0000 0.92770  0.08760  0.63310  Biso   1.000  H
  C57      1.0000 0.34100  0.35500  0.10850  Biso   1.000  C
  C58      1.0000 0.84100  0.85500  0.10850  Biso   1.000  C
  C59      1.0000 0.65900  0.35500  0.39150  Biso   1.000  C
  C60      1.0000 0.15900  0.85500  0.39150  Biso   1.000  C
  C61      1.0000 0.65900  0.64500  0.89150  Biso   1.000  C
  C62      1.0000 0.15900  0.14500  0.89150  Biso   1.000  C
  C63      1.0000 0.34100  0.64500  0.60850  Biso   1.000  C
  C64      1.0000 0.84100  0.14500  0.60850  Biso   1.000  C
  H113     1.0000 0.32910  0.30770  0.05520  Biso   1.000  H
  H114     1.0000 0.82910  0.80770  0.05520  Biso   1.000  H
  H115     1.0000 0.67090  0.30770  0.44480  Biso   1.000  H
  H116     1.0000 0.17090  0.80770  0.44480  Biso   1.000  H
  H117     1.0000 0.67090  0.69230  0.94480  Biso   1.000  H
  H118     1.0000 0.17090  0.19230  0.94480  Biso   1.000  H
  H119     1.0000 0.32910  0.69230  0.55520  Biso   1.000  H
  H120     1.0000 0.82910  0.19230  0.55520  Biso   1.000  H
  H121     1.0000 0.32330  0.31740  0.14220  Biso   1.000  H
  H122     1.0000 0.82330  0.81740  0.14220  Biso   1.000  H
  H123     1.0000 0.67670  0.31740  0.35780  Biso   1.000  H
  H124     1.0000 0.17670  0.81740  0.35780  Biso   1.000  H
  H125     1.0000 0.67670  0.68260  0.85780  Biso   1.000  H
  H126     1.0000 0.17670  0.18260  0.85780  Biso   1.000  H
  H127     1.0000 0.32330  0.68260  0.64220  Biso   1.000  H
  H128     1.0000 0.82330  0.18260  0.64220  Biso   1.000  H
  O33      1.0000 0.31950  0.47620  0.08620  Biso   1.000  O
  O34      1.0000 0.81950  0.97620  0.08620  Biso   1.000  O
  O35      1.0000 0.68050  0.47620  0.41380  Biso   1.000  O
  O36      1.0000 0.18050  0.97620  0.41380  Biso   1.000  O
  O37      1.0000 0.68050  0.52380  0.91380  Biso   1.000  O
  O38      1.0000 0.18050  0.02380  0.91380  Biso   1.000  O
  O39      1.0000 0.31950  0.52380  0.58620  Biso   1.000  O
  O40      1.0000 0.81950  0.02380  0.58620  Biso   1.000  O
  C65      1.0000 0.25140  0.47100  0.04500  Biso   1.000  C
  C66      1.0000 0.75140  0.97100  0.04500  Biso   1.000  C
  C67      1.0000 0.74860  0.47100  0.45500  Biso   1.000  C
  C68      1.0000 0.24860  0.97100  0.45500  Biso   1.000  C
  C69      1.0000 0.74860  0.52900  0.95500  Biso   1.000  C
  C70      1.0000 0.24860  0.02900  0.95500  Biso   1.000  C
  C71      1.0000 0.25140  0.52900  0.54500  Biso   1.000  C
  C72      1.0000 0.75140  0.02900  0.54500  Biso   1.000  C
  H129     1.0000 0.24020  0.43920  0.08810  Biso   1.000  H
  H130     1.0000 0.74020  0.93920  0.08810  Biso   1.000  H
  H131     1.0000 0.75980  0.43920  0.41190  Biso   1.000  H
  H132     1.0000 0.25980  0.93920  0.41190  Biso   1.000  H
  H133     1.0000 0.75980  0.56080  0.91190  Biso   1.000  H
  H134     1.0000 0.25980  0.06080  0.91190  Biso   1.000  H
  H135     1.0000 0.24020  0.56080  0.58810  Biso   1.000  H
  H136     1.0000 0.74020  0.06080  0.58810  Biso   1.000  H
  H137     1.0000 0.23230  0.42240  0.99170  Biso   1.000  H
  H138     1.0000 0.73230  0.92240  0.99170  Biso   1.000  H
  H139     1.0000 0.76770  0.42240  0.50830  Biso   1.000  H
  H140     1.0000 0.26770  0.92240  0.50830  Biso   1.000  H
  H141     1.0000 0.76770  0.57760  0.00830  Biso   1.000  H
  H142     1.0000 0.26770  0.07760  0.00830  Biso   1.000  H
  H143     1.0000 0.23230  0.57760  0.49170  Biso   1.000  H
  H144     1.0000 0.73230  0.07760  0.49170  Biso   1.000  H
  C73      1.0000 0.22950  0.59800  0.02770  Biso   1.000  C
  C74      1.0000 0.72950  0.09800  0.02770  Biso   1.000  C
  C75      1.0000 0.77050  0.59800  0.47230  Biso   1.000  C
  C76      1.0000 0.27050  0.09800  0.47230  Biso   1.000  C
  C77      1.0000 0.77050  0.40200  0.97230  Biso   1.000  C
  C78      1.0000 0.27050  0.90200  0.97230  Biso   1.000  C
  C79      1.0000 0.22950  0.40200  0.52770  Biso   1.000  C
  C80      1.0000 0.72950  0.90200  0.52770  Biso   1.000  C
  H145     1.0000 0.24690  0.62690  0.99090  Biso   1.000  H
  H146     1.0000 0.74690  0.12690  0.99090  Biso   1.000  H
  H147     1.0000 0.75310  0.62690  0.50910  Biso   1.000  H
  H148     1.0000 0.25310  0.12690  0.50910  Biso   1.000  H
  H149     1.0000 0.75310  0.37310  0.00910  Biso   1.000  H
  H150     1.0000 0.25310  0.87310  0.00910  Biso   1.000  H
  H151     1.0000 0.24690  0.37310  0.49090  Biso   1.000  H
  H152     1.0000 0.74690  0.87310  0.49090  Biso   1.000  H
  H153     1.0000 0.18330  0.60490  0.99230  Biso   1.000  H
  H154     1.0000 0.68330  0.10490  0.99230  Biso   1.000  H
  H155     1.0000 0.81670  0.60490  0.50770  Biso   1.000  H
  H156     1.0000 0.31670  0.10490  0.50770  Biso   1.000  H
  H157     1.0000 0.81670  0.39510  0.00770  Biso   1.000  H
  H158     1.0000 0.31670  0.89510  0.00770  Biso   1.000  H
  H159     1.0000 0.18330  0.39510  0.49230  Biso   1.000  H
  H160     1.0000 0.68330  0.89510  0.49230  Biso   1.000  H
