data_image0
_cell_length_a       11.131
_cell_length_b       13.313
_cell_length_c       16.396
_cell_angle_alpha    92.89
_cell_angle_beta     70.2
_cell_angle_gamma    65.34

_symmetry_space_group_name_H-M    "P 1"
_symmetry_int_tables_number       1

loop_
  _symmetry_equiv_pos_as_xyz
  'x, y, z'

loop_
  _atom_site_label
  _atom_site_occupancy
  _atom_site_fract_x
  _atom_site_fract_y
  _atom_site_fract_z
  _atom_site_thermal_displace_type
  _atom_site_B_iso_or_equiv
  _atom_site_type_symbol
  I1       1.0000 0.30450  0.16180  0.01560  Biso   1.000  I
  I2       1.0000 0.69550  0.83820  0.98440  Biso   1.000  I
  I3       1.0000 0.98180  0.33820  0.48430  Biso   1.000  I
  I4       1.0000 0.01820  0.66180  0.51570  Biso   1.000  I
  I5       1.0000 0.62120  0.17910  0.10080  Biso   1.000  I
  I6       1.0000 0.37880  0.82090  0.89920  Biso   1.000  I
  I7       1.0000 0.15970  0.43970  0.24290  Biso   1.000  I
  I8       1.0000 0.84030  0.56030  0.75710  Biso   1.000  I
  I9       1.0000 0.40100  0.32100  0.39910  Biso   1.000  I
  I10      1.0000 0.59900  0.67900  0.60090  Biso   1.000  I
  I11      1.0000 0.34210  0.06050  0.25700  Biso   1.000  I
  I12      1.0000 0.65790  0.93950  0.74300  Biso   1.000  I
  Cu1      1.0000 0.23800  0.26440  0.33960  Biso   1.000  Cu
  Cu2      1.0000 0.76200  0.73560  0.66040  Biso   1.000  Cu
  Cu3      1.0000 0.34150  0.23490  0.16040  Biso   1.000  Cu
  Cu4      1.0000 0.65850  0.76510  0.83960  Biso   1.000  Cu
  Cu5      1.0000 0.51730  0.04080  0.07160  Biso   1.000  Cu
  Cu6      1.0000 0.48270  0.95920  0.92840  Biso   1.000  Cu
  Cu7      1.0000 0.12950  0.45830  0.42900  Biso   1.000  Cu
  Cu8      1.0000 0.87050  0.54170  0.57100  Biso   1.000  Cu
  K1       1.0000 0.68180  0.04470  0.28080  Biso   1.000  K
  K2       1.0000 0.31820  0.95530  0.71920  Biso   1.000  K
  O1       1.0000 0.88810  0.11700  0.25360  Biso   1.000  O
  O2       1.0000 0.11190  0.88300  0.74640  Biso   1.000  O
  O3       1.0000 0.97290  0.89890  0.16190  Biso   1.000  O
  O4       1.0000 0.02710  0.10110  0.83810  Biso   1.000  O
  O5       1.0000 0.77250  0.81850  0.21360  Biso   1.000  O
  O6       1.0000 0.22750  0.18150  0.78640  Biso   1.000  O
  O7       1.0000 0.67480  0.90200  0.39750  Biso   1.000  O
  O8       1.0000 0.32520  0.09800  0.60250  Biso   1.000  O
  O9       1.0000 0.78960  0.05260  0.41650  Biso   1.000  O
  O10      1.0000 0.21040  0.94740  0.58350  Biso   1.000  O
  C1       1.0000 0.88520  0.16070  0.33380  Biso   1.000  C
  C2       1.0000 0.11480  0.83930  0.66620  Biso   1.000  C
  C3       1.0000 0.02930  0.04300  0.18860  Biso   1.000  C
  C4       1.0000 0.97070  0.95700  0.81140  Biso   1.000  C
  C5       1.0000 0.01890  0.98010  0.11840  Biso   1.000  C
  C6       1.0000 0.98110  0.01990  0.88160  Biso   1.000  C
  C7       1.0000 0.97230  0.82760  0.09910  Biso   1.000  C
  C8       1.0000 0.02770  0.17240  0.90090  Biso   1.000  C
  C9       1.0000 0.92000  0.74900  0.15380  Biso   1.000  C
  C10      1.0000 0.08000  0.25100  0.84620  Biso   1.000  C
  C11      1.0000 0.71040  0.77540  0.28470  Biso   1.000  C
  C12      1.0000 0.28960  0.22460  0.71530  Biso   1.000  C
  C13      1.0000 0.74750  0.78690  0.36260  Biso   1.000  C
  C14      1.0000 0.25250  0.21310  0.63740  Biso   1.000  C
  C15      1.0000 0.69910  0.93440  0.47600  Biso   1.000  C
  C16      1.0000 0.30090  0.06560  0.52400  Biso   1.000  C
  C17      1.0000 0.82050  0.95300  0.45530  Biso   1.000  C
  C18      1.0000 0.17950  0.04700  0.54470  Biso   1.000  C
  C19      1.0000 0.90750  0.07780  0.39350  Biso   1.000  C
  C20      1.0000 0.09250  0.92220  0.60650  Biso   1.000  C
  H1       1.0000 0.79730  0.22830  0.36380  Biso   1.000  H
  H2       1.0000 0.20270  0.77170  0.63620  Biso   1.000  H
  H3       1.0000 0.96840  0.17870  0.31750  Biso   1.000  H
  H4       1.0000 0.03160  0.82130  0.68250  Biso   1.000  H
  H5       1.0000 0.07370  0.09440  0.16230  Biso   1.000  H
  H6       1.0000 0.92630  0.90560  0.83770  Biso   1.000  H
  H7       1.0000 0.09200  0.99460  0.21500  Biso   1.000  H
  H8       1.0000 0.90800  0.00540  0.78500  Biso   1.000  H
  H9       1.0000 0.94230  0.02810  0.09760  Biso   1.000  H
  H10      1.0000 0.05770  0.97190  0.90240  Biso   1.000  H
  H11      1.0000 0.10820  0.93730  0.06510  Biso   1.000  H
  H12      1.0000 0.89180  0.06270  0.93490  Biso   1.000  H
  H13      1.0000 0.90820  0.86630  0.07170  Biso   1.000  H
  H14      1.0000 0.09180  0.13370  0.92830  Biso   1.000  H
  H15      1.0000 0.07020  0.77820  0.05410  Biso   1.000  H
  H16      1.0000 0.92980  0.22180  0.94590  Biso   1.000  H
  H17      1.0000 0.92400  0.69150  0.11070  Biso   1.000  H
  H18      1.0000 0.07600  0.30850  0.88930  Biso   1.000  H
  H19      1.0000 0.97970  0.71480  0.18420  Biso   1.000  H
  H20      1.0000 0.02030  0.28520  0.81580  Biso   1.000  H
  H21      1.0000 0.60460  0.81580  0.29940  Biso   1.000  H
  H22      1.0000 0.39540  0.18420  0.70060  Biso   1.000  H
  H23      1.0000 0.74410  0.69460  0.25780  Biso   1.000  H
  H24      1.0000 0.25590  0.30540  0.74220  Biso   1.000  H
  H25      1.0000 0.70770  0.74770  0.40680  Biso   1.000  H
  H26      1.0000 0.29230  0.25230  0.59320  Biso   1.000  H
  H27      1.0000 0.84810  0.75700  0.34650  Biso   1.000  H
  H28      1.0000 0.15190  0.24300  0.65350  Biso   1.000  H
  H29      1.0000 0.61290  0.00350  0.51420  Biso   1.000  H
  H30      1.0000 0.38710  0.99650  0.48580  Biso   1.000  H
  H31      1.0000 0.71320  0.87280  0.50750  Biso   1.000  H
  H32      1.0000 0.28680  0.12720  0.49250  Biso   1.000  H
  H33      1.0000 0.83570  0.96980  0.50800  Biso   1.000  H
  H34      1.0000 0.16430  0.03020  0.49200  Biso   1.000  H
  H35      1.0000 0.90690  0.88920  0.41130  Biso   1.000  H
  H36      1.0000 0.09310  0.11080  0.58870  Biso   1.000  H
  H37      1.0000 0.90690  0.11360  0.44590  Biso   1.000  H
  H38      1.0000 0.09310  0.88640  0.55410  Biso   1.000  H
  H39      1.0000 0.99670  0.00930  0.36130  Biso   1.000  H
  H40      1.0000 0.00330  0.99070  0.63870  Biso   1.000  H
  K3       1.0000 0.50590  0.45600  0.21930  Biso   1.000  K
  K4       1.0000 0.49410  0.54400  0.78070  Biso   1.000  K
  O11      1.0000 0.75770  0.38490  0.24730  Biso   1.000  O
  O12      1.0000 0.24230  0.61510  0.75270  Biso   1.000  O
  O13      1.0000 0.76090  0.44910  0.08310  Biso   1.000  O
  O14      1.0000 0.23910  0.55090  0.91690  Biso   1.000  O
  O15      1.0000 0.47450  0.59890  0.10420  Biso   1.000  O
  O16      1.0000 0.52550  0.40110  0.89580  Biso   1.000  O
  O17      1.0000 0.30740  0.68110  0.28630  Biso   1.000  O
  O18      1.0000 0.69260  0.31890  0.71370  Biso   1.000  O
  O19      1.0000 0.53420  0.60020  0.34090  Biso   1.000  O
  O20      1.0000 0.46580  0.39980  0.65910  Biso   1.000  O
  C21      1.0000 0.88340  0.34100  0.16420  Biso   1.000  C
  C22      1.0000 0.11660  0.65900  0.83580  Biso   1.000  C
  C23      1.0000 0.87520  0.42540  0.10960  Biso   1.000  C
  C24      1.0000 0.12480  0.57460  0.89040  Biso   1.000  C
  C25      1.0000 0.73060  0.54480  0.04490  Biso   1.000  C
  C26      1.0000 0.26940  0.45520  0.95510  Biso   1.000  C
  C27      1.0000 0.61020  0.57010  0.02590  Biso   1.000  C
  C28      1.0000 0.38980  0.42990  0.97410  Biso   1.000  C
  C29      1.0000 0.38330  0.71790  0.14730  Biso   1.000  C
  C30      1.0000 0.61670  0.28210  0.85270  Biso   1.000  C
  C31      1.0000 0.26760  0.73490  0.22120  Biso   1.000  C
  C32      1.0000 0.73240  0.26510  0.77880  Biso   1.000  C
  C33      1.0000 0.32290  0.74950  0.34890  Biso   1.000  C
  C34      1.0000 0.67710  0.25050  0.65110  Biso   1.000  C
  C35      1.0000 0.39640  0.67890  0.39920  Biso   1.000  C
  C36      1.0000 0.60360  0.32110  0.60080  Biso   1.000  C
  C37      1.0000 0.61630  0.52510  0.38100  Biso   1.000  C
  C38      1.0000 0.38370  0.47490  0.61900  Biso   1.000  C
  C39      1.0000 0.76800  0.45180  0.31210  Biso   1.000  C
  C40      1.0000 0.23200  0.54820  0.68790  Biso   1.000  C
  H41      1.0000 0.96750  0.32210  0.17810  Biso   1.000  H
  H42      1.0000 0.03250  0.67790  0.82190  Biso   1.000  H
  H43      1.0000 0.89130  0.27360  0.13160  Biso   1.000  H
  H44      1.0000 0.10870  0.72640  0.86840  Biso   1.000  H
  H45      1.0000 0.85970  0.49370  0.14340  Biso   1.000  H
  H46      1.0000 0.14030  0.50630  0.85660  Biso   1.000  H
  H47      1.0000 0.96310  0.39320  0.05630  Biso   1.000  H
  H48      1.0000 0.03690  0.60680  0.94370  Biso   1.000  H
  H49      1.0000 0.71080  0.61030  0.08780  Biso   1.000  H
  H50      1.0000 0.28920  0.38970  0.91220  Biso   1.000  H
  H51      1.0000 0.81380  0.52890  0.99120  Biso   1.000  H
  H52      1.0000 0.18620  0.47110  0.00880  Biso   1.000  H
  H53      1.0000 0.59220  0.63290  0.99550  Biso   1.000  H
  H54      1.0000 0.40780  0.36710  0.00450  Biso   1.000  H
  H55      1.0000 0.62840  0.50210  0.98470  Biso   1.000  H
  H56      1.0000 0.37160  0.49790  0.01530  Biso   1.000  H
  H57      1.0000 0.44500  0.74760  0.16330  Biso   1.000  H
  H58      1.0000 0.55500  0.25240  0.83670  Biso   1.000  H
  H59      1.0000 0.35510  0.76090  0.10280  Biso   1.000  H
  H60      1.0000 0.64490  0.23910  0.89720  Biso   1.000  H
  H61      1.0000 0.20440  0.81500  0.24750  Biso   1.000  H
  H62      1.0000 0.79560  0.18500  0.75250  Biso   1.000  H
  H63      1.0000 0.21200  0.70190  0.20230  Biso   1.000  H
  H64      1.0000 0.78800  0.29810  0.79770  Biso   1.000  H
  H65      1.0000 0.38650  0.78340  0.31470  Biso   1.000  H
  H66      1.0000 0.61350  0.21660  0.68530  Biso   1.000  H
  H67      1.0000 0.23190  0.81280  0.38860  Biso   1.000  H
  H68      1.0000 0.76810  0.18720  0.61140  Biso   1.000  H
  H69      1.0000 0.40250  0.72540  0.44670  Biso   1.000  H
  H70      1.0000 0.59750  0.27460  0.55330  Biso   1.000  H
  H71      1.0000 0.34150  0.63990  0.43050  Biso   1.000  H
  H72      1.0000 0.65850  0.36010  0.56950  Biso   1.000  H
  H73      1.0000 0.62050  0.56620  0.42970  Biso   1.000  H
  H74      1.0000 0.37950  0.43380  0.57030  Biso   1.000  H
  H75      1.0000 0.57230  0.47550  0.40420  Biso   1.000  H
  H76      1.0000 0.42770  0.52450  0.59580  Biso   1.000  H
  H77      1.0000 0.80990  0.49810  0.28510  Biso   1.000  H
  H78      1.0000 0.19010  0.50190  0.71490  Biso   1.000  H
  H79      1.0000 0.82750  0.40020  0.33970  Biso   1.000  H
  H80      1.0000 0.17250  0.59980  0.66030  Biso   1.000  H
