data_image0
_cell_length_a       4.1656
_cell_length_b       26.587
_cell_length_c       24.0963
_cell_angle_alpha    90
_cell_angle_beta     96.658
_cell_angle_gamma    90

_symmetry_space_group_name_H-M    "P 1"
_symmetry_int_tables_number       1

loop_
  _symmetry_equiv_pos_as_xyz
  'x, y, z'

loop_
  _atom_site_label
  _atom_site_occupancy
  _atom_site_fract_x
  _atom_site_fract_y
  _atom_site_fract_z
  _atom_site_thermal_displace_type
  _atom_site_B_iso_or_equiv
  _atom_site_type_symbol
  I1       1.0000 0.06051  0.12154  0.96696  Biso   1.000  I
  I2       1.0000 0.93949  0.62154  0.53304  Biso   1.000  I
  I3       1.0000 0.93949  0.87846  0.03304  Biso   1.000  I
  I4       1.0000 0.06051  0.37846  0.46696  Biso   1.000  I
  I5       1.0000 0.60927  0.21238  0.09743  Biso   1.000  I
  I6       1.0000 0.39073  0.71238  0.40257  Biso   1.000  I
  I7       1.0000 0.39073  0.78762  0.90257  Biso   1.000  I
  I8       1.0000 0.60927  0.28762  0.59743  Biso   1.000  I
  I9       1.0000 0.98919  0.27733  0.95092  Biso   1.000  I
  I10      1.0000 0.01081  0.77733  0.54908  Biso   1.000  I
  I11      1.0000 0.01081  0.72267  0.04908  Biso   1.000  I
  I12      1.0000 0.98919  0.22267  0.45092  Biso   1.000  I
  Cu1      1.0000 0.60440  0.13135  0.03425  Biso   1.000  Cu
  Cu2      1.0000 0.39560  0.63135  0.46575  Biso   1.000  Cu
  Cu3      1.0000 0.39560  0.86865  0.96575  Biso   1.000  Cu
  Cu4      1.0000 0.60440  0.36865  0.53425  Biso   1.000  Cu
  Cu5      1.0000 0.06140  0.20765  0.02611  Biso   1.000  Cu
  Cu6      1.0000 0.93860  0.70765  0.47389  Biso   1.000  Cu
  Cu7      1.0000 0.93860  0.79235  0.97389  Biso   1.000  Cu
  Cu8      1.0000 0.06140  0.29235  0.52611  Biso   1.000  Cu
  Cu9      1.0000 0.52830  0.28501  0.01875  Biso   1.000  Cu
  Cu10     1.0000 0.47170  0.78501  0.48125  Biso   1.000  Cu
  Cu11     1.0000 0.47170  0.71499  0.98125  Biso   1.000  Cu
  Cu12     1.0000 0.52830  0.21499  0.51875  Biso   1.000  Cu
  O1       1.0000 0.76600  0.95260  0.24870  Biso   1.000  O
  O2       1.0000 0.23400  0.45260  0.25130  Biso   1.000  O
  O3       1.0000 0.23400  0.04740  0.75130  Biso   1.000  O
  O4       1.0000 0.76600  0.54740  0.74870  Biso   1.000  O
  O5       1.0000 0.74300  0.70660  0.26720  Biso   1.000  O
  O6       1.0000 0.25700  0.20660  0.23280  Biso   1.000  O
  O7       1.0000 0.25700  0.29340  0.73280  Biso   1.000  O
  O8       1.0000 0.74300  0.79340  0.76720  Biso   1.000  O
  O9       1.0000 0.90300  0.53370  0.07910  Biso   1.000  O
  O10      1.0000 0.09700  0.03370  0.42090  Biso   1.000  O
  O11      1.0000 0.09700  0.46630  0.92090  Biso   1.000  O
  O12      1.0000 0.90300  0.96630  0.57910  Biso   1.000  O
  N1       1.0000 0.65200  0.07030  0.08530  Biso   1.000  N
  N2       1.0000 0.34800  0.57030  0.41470  Biso   1.000  N
  N3       1.0000 0.34800  0.92970  0.91470  Biso   1.000  N
  N4       1.0000 0.65200  0.42970  0.58530  Biso   1.000  N
  N5       1.0000 0.68000  0.89830  0.17530  Biso   1.000  N
  N6       1.0000 0.32000  0.39830  0.32470  Biso   1.000  N
  N7       1.0000 0.32000  0.10170  0.82470  Biso   1.000  N
  N8       1.0000 0.68000  0.60170  0.67530  Biso   1.000  N
  H1       1.0000 0.64340  0.89800  0.13950  Biso   1.000  H
  H2       1.0000 0.35660  0.39800  0.36050  Biso   1.000  H
  H3       1.0000 0.35660  0.10200  0.86050  Biso   1.000  H
  H4       1.0000 0.64340  0.60200  0.63950  Biso   1.000  H
  N9       1.0000 0.63600  0.52330  0.15380  Biso   1.000  N
  N10      1.0000 0.36400  0.02330  0.34620  Biso   1.000  N
  N11      1.0000 0.36400  0.47670  0.84620  Biso   1.000  N
  N12      1.0000 0.63600  0.97670  0.65380  Biso   1.000  N
  H5       1.0000 0.53610  0.50110  0.17130  Biso   1.000  H
  H6       1.0000 0.46390  0.00110  0.32870  Biso   1.000  H
  H7       1.0000 0.46390  0.49890  0.82870  Biso   1.000  H
  H8       1.0000 0.53610  0.99890  0.67130  Biso   1.000  H
  N13      1.0000 0.57800  0.35530  0.05230  Biso   1.000  N
  N14      1.0000 0.42200  0.85530  0.44770  Biso   1.000  N
  N15      1.0000 0.42200  0.64470  0.94770  Biso   1.000  N
  N16      1.0000 0.57800  0.14470  0.55230  Biso   1.000  N
  C1       1.0000 0.48400  0.02790  0.07280  Biso   1.000  C
  C2       1.0000 0.51600  0.52790  0.42720  Biso   1.000  C
  C3       1.0000 0.51600  0.97210  0.92720  Biso   1.000  C
  C4       1.0000 0.48400  0.47210  0.57280  Biso   1.000  C
  H9       1.0000 0.34360  0.02700  0.03990  Biso   1.000  H
  H10      1.0000 0.65640  0.52700  0.46010  Biso   1.000  H
  H11      1.0000 0.65640  0.97300  0.96010  Biso   1.000  H
  H12      1.0000 0.34360  0.47300  0.53990  Biso   1.000  H
  C5       1.0000 0.51000  0.98540  0.10670  Biso   1.000  C
  C6       1.0000 0.49000  0.48540  0.39330  Biso   1.000  C
  C7       1.0000 0.49000  0.01460  0.89330  Biso   1.000  C
  C8       1.0000 0.51000  0.51460  0.60670  Biso   1.000  C
  H13      1.0000 0.39920  0.95610  0.09530  Biso   1.000  H
  H14      1.0000 0.60080  0.45610  0.40470  Biso   1.000  H
  H15      1.0000 0.60080  0.04390  0.90470  Biso   1.000  H
  H16      1.0000 0.39920  0.54390  0.59530  Biso   1.000  H
  C9       1.0000 0.70200  0.98700  0.15690  Biso   1.000  C
  C10      1.0000 0.29800  0.48700  0.34310  Biso   1.000  C
  C11      1.0000 0.29800  0.01300  0.84310  Biso   1.000  C
  C12      1.0000 0.70200  0.51300  0.65690  Biso   1.000  C
  C13      1.0000 0.87600  0.03050  0.17050  Biso   1.000  C
  C14      1.0000 0.12400  0.53050  0.32950  Biso   1.000  C
  C15      1.0000 0.12400  0.96950  0.82950  Biso   1.000  C
  C16      1.0000 0.87600  0.46950  0.67050  Biso   1.000  C
  H17      1.0000 0.01040  0.03280  0.20390  Biso   1.000  H
  H18      1.0000 0.98960  0.53280  0.29610  Biso   1.000  H
  H19      1.0000 0.98960  0.96720  0.79610  Biso   1.000  H
  H20      1.0000 0.01040  0.46720  0.70390  Biso   1.000  H
  C17      1.0000 0.84700  0.06940  0.13430  Biso   1.000  C
  C18      1.0000 0.15300  0.56940  0.36570  Biso   1.000  C
  C19      1.0000 0.15300  0.93060  0.86570  Biso   1.000  C
  C20      1.0000 0.84700  0.43060  0.63430  Biso   1.000  C
  H21      1.0000 0.97060  0.09780  0.14380  Biso   1.000  H
  H22      1.0000 0.02940  0.59780  0.35620  Biso   1.000  H
  H23      1.0000 0.02940  0.90220  0.85620  Biso   1.000  H
  H24      1.0000 0.97060  0.40220  0.64380  Biso   1.000  H
  C21      1.0000 0.72100  0.94410  0.19940  Biso   1.000  C
  C22      1.0000 0.27900  0.44410  0.30060  Biso   1.000  C
  C23      1.0000 0.27900  0.05590  0.80060  Biso   1.000  C
  C24      1.0000 0.72100  0.55590  0.69940  Biso   1.000  C
  C25      1.0000 0.68800  0.85060  0.20160  Biso   1.000  C
  C26      1.0000 0.31200  0.35060  0.29840  Biso   1.000  C
  C27      1.0000 0.31200  0.14940  0.79840  Biso   1.000  C
  C28      1.0000 0.68800  0.64940  0.70160  Biso   1.000  C
  C29      1.0000 0.53900  0.81140  0.17030  Biso   1.000  C
  C30      1.0000 0.46100  0.31140  0.32970  Biso   1.000  C
  C31      1.0000 0.46100  0.18860  0.82970  Biso   1.000  C
  C32      1.0000 0.53900  0.68860  0.67030  Biso   1.000  C
  H25      1.0000 0.43240  0.81790  0.13500  Biso   1.000  H
  H26      1.0000 0.56760  0.31790  0.36500  Biso   1.000  H
  H27      1.0000 0.56760  0.18210  0.86500  Biso   1.000  H
  H28      1.0000 0.43240  0.68210  0.63500  Biso   1.000  H
  C33      1.0000 0.54900  0.76250  0.19100  Biso   1.000  C
  C34      1.0000 0.45100  0.26250  0.30900  Biso   1.000  C
  C35      1.0000 0.45100  0.23750  0.80900  Biso   1.000  C
  C36      1.0000 0.54900  0.73750  0.69100  Biso   1.000  C
  H29      1.0000 0.44580  0.73640  0.17030  Biso   1.000  H
  H30      1.0000 0.55420  0.23640  0.32970  Biso   1.000  H
  H31      1.0000 0.55420  0.26360  0.82970  Biso   1.000  H
  H32      1.0000 0.44580  0.76360  0.67030  Biso   1.000  H
  C37      1.0000 0.71400  0.75350  0.24310  Biso   1.000  C
  C38      1.0000 0.28600  0.25350  0.25690  Biso   1.000  C
  C39      1.0000 0.28600  0.24650  0.75690  Biso   1.000  C
  C40      1.0000 0.71400  0.74650  0.74310  Biso   1.000  C
  C41      1.0000 0.86400  0.79200  0.27490  Biso   1.000  C
  C42      1.0000 0.13600  0.29200  0.22510  Biso   1.000  C
  C43      1.0000 0.13600  0.20800  0.72510  Biso   1.000  C
  C44      1.0000 0.86400  0.70800  0.77490  Biso   1.000  C
  H33      1.0000 0.97460  0.78540  0.31000  Biso   1.000  H
  H34      1.0000 0.02540  0.28540  0.19000  Biso   1.000  H
  H35      1.0000 0.02540  0.21460  0.69000  Biso   1.000  H
  H36      1.0000 0.97460  0.71460  0.81000  Biso   1.000  H
  C45      1.0000 0.84600  0.84100  0.25360  Biso   1.000  C
  C46      1.0000 0.15400  0.34100  0.24640  Biso   1.000  C
  C47      1.0000 0.15400  0.15900  0.74640  Biso   1.000  C
  C48      1.0000 0.84600  0.65900  0.75360  Biso   1.000  C
  H37      1.0000 0.94140  0.86730  0.27500  Biso   1.000  H
  H38      1.0000 0.05860  0.36730  0.22500  Biso   1.000  H
  H39      1.0000 0.05860  0.13270  0.72500  Biso   1.000  H
  H40      1.0000 0.94140  0.63270  0.77500  Biso   1.000  H
  C49      1.0000 0.70800  0.66340  0.23420  Biso   1.000  C
  C50      1.0000 0.29200  0.16340  0.26580  Biso   1.000  C
  C51      1.0000 0.29200  0.33660  0.76580  Biso   1.000  C
  C52      1.0000 0.70800  0.83660  0.73420  Biso   1.000  C
  C53      1.0000 0.83600  0.65790  0.18520  Biso   1.000  C
  C54      1.0000 0.16400  0.15790  0.31480  Biso   1.000  C
  C55      1.0000 0.16400  0.34210  0.81480  Biso   1.000  C
  C56      1.0000 0.83600  0.84210  0.68520  Biso   1.000  C
  H41      1.0000 0.94030  0.68490  0.17060  Biso   1.000  H
  H42      1.0000 0.05970  0.18490  0.32940  Biso   1.000  H
  H43      1.0000 0.05970  0.31510  0.82940  Biso   1.000  H
  H44      1.0000 0.94030  0.81510  0.67060  Biso   1.000  H
  C57      1.0000 0.81200  0.61190  0.15630  Biso   1.000  C
  C58      1.0000 0.18800  0.11190  0.34370  Biso   1.000  C
  C59      1.0000 0.18800  0.38810  0.84370  Biso   1.000  C
  C60      1.0000 0.81200  0.88810  0.65630  Biso   1.000  C
  H45      1.0000 0.89510  0.60850  0.12230  Biso   1.000  H
  H46      1.0000 0.10490  0.10850  0.37770  Biso   1.000  H
  H47      1.0000 0.10490  0.39150  0.87770  Biso   1.000  H
  H48      1.0000 0.89510  0.89150  0.62230  Biso   1.000  H
  C61      1.0000 0.66300  0.57150  0.17910  Biso   1.000  C
  C62      1.0000 0.33700  0.07150  0.32090  Biso   1.000  C
  C63      1.0000 0.33700  0.42850  0.82090  Biso   1.000  C
  C64      1.0000 0.66300  0.92850  0.67910  Biso   1.000  C
  C65      1.0000 0.53500  0.57770  0.22780  Biso   1.000  C
  C66      1.0000 0.46500  0.07770  0.27220  Biso   1.000  C
  C67      1.0000 0.46500  0.42230  0.77220  Biso   1.000  C
  C68      1.0000 0.53500  0.92230  0.72780  Biso   1.000  C
  H49      1.0000 0.43330  0.55070  0.24300  Biso   1.000  H
  H50      1.0000 0.56670  0.05070  0.25700  Biso   1.000  H
  H51      1.0000 0.56670  0.44930  0.75700  Biso   1.000  H
  H52      1.0000 0.43330  0.94930  0.74300  Biso   1.000  H
  C69      1.0000 0.55400  0.62360  0.25530  Biso   1.000  C
  C70      1.0000 0.44600  0.12360  0.24470  Biso   1.000  C
  C71      1.0000 0.44600  0.37640  0.74470  Biso   1.000  C
  C72      1.0000 0.55400  0.87640  0.75530  Biso   1.000  C
  H53      1.0000 0.46180  0.62730  0.28840  Biso   1.000  H
  H54      1.0000 0.53820  0.12730  0.21160  Biso   1.000  H
  H55      1.0000 0.53820  0.37270  0.71160  Biso   1.000  H
  H56      1.0000 0.46180  0.87270  0.78840  Biso   1.000  H
  C73      1.0000 0.74200  0.50770  0.10700  Biso   1.000  C
  C74      1.0000 0.25800  0.00770  0.39300  Biso   1.000  C
  C75      1.0000 0.25800  0.49230  0.89300  Biso   1.000  C
  C76      1.0000 0.74200  0.99230  0.60700  Biso   1.000  C
  C77      1.0000 0.67900  0.45390  0.09100  Biso   1.000  C
  C78      1.0000 0.32100  0.95390  0.40900  Biso   1.000  C
  C79      1.0000 0.32100  0.54610  0.90900  Biso   1.000  C
  C80      1.0000 0.67900  0.04610  0.59100  Biso   1.000  C
  C81      1.0000 0.72300  0.44060  0.03640  Biso   1.000  C
  C82      1.0000 0.27700  0.94060  0.46360  Biso   1.000  C
  C83      1.0000 0.27700  0.55940  0.96360  Biso   1.000  C
  C84      1.0000 0.72300  0.05940  0.53640  Biso   1.000  C
  H57      1.0000 0.78740  0.46460  0.01190  Biso   1.000  H
  H58      1.0000 0.21260  0.96460  0.48810  Biso   1.000  H
  H59      1.0000 0.21260  0.53540  0.98810  Biso   1.000  H
  H60      1.0000 0.78740  0.03540  0.51190  Biso   1.000  H
  C85      1.0000 0.67100  0.39240  0.01900  Biso   1.000  C
  C86      1.0000 0.32900  0.89240  0.48100  Biso   1.000  C
  C87      1.0000 0.32900  0.60760  0.98100  Biso   1.000  C
  C88      1.0000 0.67100  0.10760  0.51900  Biso   1.000  C
  H61      1.0000 0.69980  0.38450  0.98230  Biso   1.000  H
  H62      1.0000 0.30020  0.88450  0.51770  Biso   1.000  H
  H63      1.0000 0.30020  0.61550  0.01770  Biso   1.000  H
  H64      1.0000 0.69980  0.11550  0.48230  Biso   1.000  H
  C89      1.0000 0.53200  0.36680  0.10410  Biso   1.000  C
  C90      1.0000 0.46800  0.86680  0.39590  Biso   1.000  C
  C91      1.0000 0.46800  0.63320  0.89590  Biso   1.000  C
  C92      1.0000 0.53200  0.13320  0.60410  Biso   1.000  C
  H65      1.0000 0.46770  0.34200  0.12770  Biso   1.000  H
  H66      1.0000 0.53230  0.84200  0.37230  Biso   1.000  H
  H67      1.0000 0.53230  0.65800  0.87230  Biso   1.000  H
  H68      1.0000 0.46770  0.15800  0.62770  Biso   1.000  H
  C93      1.0000 0.58200  0.41730  0.12390  Biso   1.000  C
  C94      1.0000 0.41800  0.91730  0.37610  Biso   1.000  C
  C95      1.0000 0.41800  0.58270  0.87610  Biso   1.000  C
  C96      1.0000 0.58200  0.08270  0.62390  Biso   1.000  C
  H69      1.0000 0.54570  0.42500  0.16040  Biso   1.000  H
  H70      1.0000 0.45430  0.92500  0.33960  Biso   1.000  H
  H71      1.0000 0.45430  0.57500  0.83960  Biso   1.000  H
  H72      1.0000 0.54570  0.07500  0.66040  Biso   1.000  H
