data_image0
_cell_length_a       17.4157
_cell_length_b       17.4157
_cell_length_c       18.5575
_cell_angle_alpha    90
_cell_angle_beta     90
_cell_angle_gamma    90

_symmetry_space_group_name_H-M    "P 1"
_symmetry_int_tables_number       1

loop_
  _symmetry_equiv_pos_as_xyz
  'x, y, z'

loop_
  _atom_site_label
  _atom_site_occupancy
  _atom_site_fract_x
  _atom_site_fract_y
  _atom_site_fract_z
  _atom_site_thermal_displace_type
  _atom_site_B_iso_or_equiv
  _atom_site_type_symbol
  I1       1.0000 0.45695  0.87785  0.70259  Biso   1.000  I
  I2       1.0000 0.04305  0.12215  0.20259  Biso   1.000  I
  I3       1.0000 0.87215  0.70695  0.95259  Biso   1.000  I
  I4       1.0000 0.62785  0.29305  0.45259  Biso   1.000  I
  I5       1.0000 0.95695  0.37785  0.20259  Biso   1.000  I
  I6       1.0000 0.54305  0.62215  0.70259  Biso   1.000  I
  I7       1.0000 0.37215  0.20695  0.45259  Biso   1.000  I
  I8       1.0000 0.12785  0.79305  0.95259  Biso   1.000  I
  I9       1.0000 0.54305  0.12215  0.29741  Biso   1.000  I
  I10      1.0000 0.95695  0.87785  0.79741  Biso   1.000  I
  I11      1.0000 0.62785  0.79305  0.54741  Biso   1.000  I
  I12      1.0000 0.87215  0.20695  0.04741  Biso   1.000  I
  I13      1.0000 0.04305  0.62215  0.79741  Biso   1.000  I
  I14      1.0000 0.45695  0.37785  0.29741  Biso   1.000  I
  I15      1.0000 0.12785  0.29305  0.04741  Biso   1.000  I
  I16      1.0000 0.37215  0.70695  0.54741  Biso   1.000  I
  Cu1      1.0000 0.57293  0.76598  0.68147  Biso   1.000  Cu
  Cu2      1.0000 0.92707  0.23402  0.18147  Biso   1.000  Cu
  Cu3      1.0000 0.98402  0.82293  0.93147  Biso   1.000  Cu
  Cu4      1.0000 0.51598  0.17707  0.43147  Biso   1.000  Cu
  Cu5      1.0000 0.07293  0.26598  0.18147  Biso   1.000  Cu
  Cu6      1.0000 0.42707  0.73402  0.68147  Biso   1.000  Cu
  Cu7      1.0000 0.48402  0.32293  0.43147  Biso   1.000  Cu
  Cu8      1.0000 0.01598  0.67707  0.93147  Biso   1.000  Cu
  Cu9      1.0000 0.42707  0.23402  0.31853  Biso   1.000  Cu
  Cu10     1.0000 0.07293  0.76598  0.81853  Biso   1.000  Cu
  Cu11     1.0000 0.51598  0.67707  0.56853  Biso   1.000  Cu
  Cu12     1.0000 0.98402  0.32293  0.06853  Biso   1.000  Cu
  Cu13     1.0000 0.92707  0.73402  0.81853  Biso   1.000  Cu
  Cu14     1.0000 0.57293  0.26598  0.31853  Biso   1.000  Cu
  Cu15     1.0000 0.01598  0.17707  0.06853  Biso   1.000  Cu
  Cu16     1.0000 0.48402  0.82293  0.56853  Biso   1.000  Cu
  Cu17     1.0000 0.80403  0.87247  0.90155  Biso   1.000  Cu
  Cu18     1.0000 0.69597  0.12753  0.40155  Biso   1.000  Cu
  Cu19     1.0000 0.87753  0.05403  0.15155  Biso   1.000  Cu
  Cu20     1.0000 0.62247  0.94597  0.65155  Biso   1.000  Cu
  Cu21     1.0000 0.30403  0.37247  0.40155  Biso   1.000  Cu
  Cu22     1.0000 0.19597  0.62753  0.90155  Biso   1.000  Cu
  Cu23     1.0000 0.37753  0.55403  0.65155  Biso   1.000  Cu
  Cu24     1.0000 0.12247  0.44597  0.15155  Biso   1.000  Cu
  Cu25     1.0000 0.19597  0.12753  0.09845  Biso   1.000  Cu
  Cu26     1.0000 0.30403  0.87247  0.59845  Biso   1.000  Cu
  Cu27     1.0000 0.62247  0.44597  0.34845  Biso   1.000  Cu
  Cu28     1.0000 0.87753  0.55403  0.84845  Biso   1.000  Cu
  Cu29     1.0000 0.69597  0.62753  0.59845  Biso   1.000  Cu
  Cu30     1.0000 0.80403  0.37247  0.09845  Biso   1.000  Cu
  Cu31     1.0000 0.12247  0.94597  0.84845  Biso   1.000  Cu
  Cu32     1.0000 0.37753  0.05403  0.34845  Biso   1.000  Cu
  N1       1.0000 0.64620  0.81860  0.74710  Biso   1.000  N
  N2       1.0000 0.85380  0.18140  0.24710  Biso   1.000  N
  N3       1.0000 0.93140  0.89620  0.99710  Biso   1.000  N
  N4       1.0000 0.56860  0.10380  0.49710  Biso   1.000  N
  N5       1.0000 0.14620  0.31860  0.24710  Biso   1.000  N
  N6       1.0000 0.35380  0.68140  0.74710  Biso   1.000  N
  N7       1.0000 0.43140  0.39620  0.49710  Biso   1.000  N
  N8       1.0000 0.06860  0.60380  0.99710  Biso   1.000  N
  N9       1.0000 0.35380  0.18140  0.25290  Biso   1.000  N
  N10      1.0000 0.14620  0.81860  0.75290  Biso   1.000  N
  N11      1.0000 0.56860  0.60380  0.50290  Biso   1.000  N
  N12      1.0000 0.93140  0.39620  0.00290  Biso   1.000  N
  N13      1.0000 0.85380  0.68140  0.75290  Biso   1.000  N
  N14      1.0000 0.64620  0.31860  0.25290  Biso   1.000  N
  N15      1.0000 0.06860  0.10380  0.00290  Biso   1.000  N
  N16      1.0000 0.43140  0.89620  0.50290  Biso   1.000  N
  N17      1.0000 0.73270  0.85960  0.82620  Biso   1.000  N
  N18      1.0000 0.76730  0.14040  0.32620  Biso   1.000  N
  N19      1.0000 0.89040  0.98270  0.07620  Biso   1.000  N
  N20      1.0000 0.60960  0.01730  0.57620  Biso   1.000  N
  N21      1.0000 0.23270  0.35960  0.32620  Biso   1.000  N
  N22      1.0000 0.26730  0.64040  0.82620  Biso   1.000  N
  N23      1.0000 0.39040  0.48270  0.57620  Biso   1.000  N
  N24      1.0000 0.10960  0.51730  0.07620  Biso   1.000  N
  N25      1.0000 0.26730  0.14040  0.17380  Biso   1.000  N
  N26      1.0000 0.23270  0.85960  0.67380  Biso   1.000  N
  N27      1.0000 0.60960  0.51730  0.42380  Biso   1.000  N
  N28      1.0000 0.89040  0.48270  0.92380  Biso   1.000  N
  N29      1.0000 0.76730  0.64040  0.67380  Biso   1.000  N
  N30      1.0000 0.73270  0.35960  0.17380  Biso   1.000  N
  N31      1.0000 0.10960  0.01730  0.92380  Biso   1.000  N
  N32      1.0000 0.39040  0.98270  0.42380  Biso   1.000  N
  N33      1.0000 0.66600  0.89250  0.72930  Biso   1.000  N
  N34      1.0000 0.83400  0.10750  0.22930  Biso   1.000  N
  N35      1.0000 0.85750  0.91600  0.97930  Biso   1.000  N
  N36      1.0000 0.64250  0.08400  0.47930  Biso   1.000  N
  N37      1.0000 0.16600  0.39250  0.22930  Biso   1.000  N
  N38      1.0000 0.33400  0.60750  0.72930  Biso   1.000  N
  N39      1.0000 0.35750  0.41600  0.47930  Biso   1.000  N
  N40      1.0000 0.14250  0.58400  0.97930  Biso   1.000  N
  N41      1.0000 0.33400  0.10750  0.27070  Biso   1.000  N
  N42      1.0000 0.16600  0.89250  0.77070  Biso   1.000  N
  N43      1.0000 0.64250  0.58400  0.52070  Biso   1.000  N
  N44      1.0000 0.85750  0.41600  0.02070  Biso   1.000  N
  N45      1.0000 0.83400  0.60750  0.77070  Biso   1.000  N
  N46      1.0000 0.66600  0.39250  0.27070  Biso   1.000  N
  N47      1.0000 0.14250  0.08400  0.02070  Biso   1.000  N
  N48      1.0000 0.35750  0.91600  0.52070  Biso   1.000  N
  C1       1.0000 0.68750  0.80070  0.80550  Biso   1.000  C
  C2       1.0000 0.81250  0.19930  0.30550  Biso   1.000  C
  C3       1.0000 0.94930  0.93750  0.05550  Biso   1.000  C
  C4       1.0000 0.55070  0.06250  0.55550  Biso   1.000  C
  C5       1.0000 0.18750  0.30070  0.30550  Biso   1.000  C
  C6       1.0000 0.31250  0.69930  0.80550  Biso   1.000  C
  C7       1.0000 0.44930  0.43750  0.55550  Biso   1.000  C
  C8       1.0000 0.05070  0.56250  0.05550  Biso   1.000  C
  C9       1.0000 0.31250  0.19930  0.19450  Biso   1.000  C
  C10      1.0000 0.18750  0.80070  0.69450  Biso   1.000  C
  C11      1.0000 0.55070  0.56250  0.44450  Biso   1.000  C
  C12      1.0000 0.94930  0.43750  0.94450  Biso   1.000  C
  C13      1.0000 0.81250  0.69930  0.69450  Biso   1.000  C
  C14      1.0000 0.68750  0.30070  0.19450  Biso   1.000  C
  C15      1.0000 0.05070  0.06250  0.94450  Biso   1.000  C
  C16      1.0000 0.44930  0.93750  0.44450  Biso   1.000  C
  C17      1.0000 0.71700  0.91530  0.77830  Biso   1.000  C
  C18      1.0000 0.78300  0.08470  0.27830  Biso   1.000  C
  C19      1.0000 0.83470  0.96700  0.02830  Biso   1.000  C
  C20      1.0000 0.66530  0.03300  0.52830  Biso   1.000  C
  C21      1.0000 0.21700  0.41530  0.27830  Biso   1.000  C
  C22      1.0000 0.28300  0.58470  0.77830  Biso   1.000  C
  C23      1.0000 0.33470  0.46700  0.52830  Biso   1.000  C
  C24      1.0000 0.16530  0.53300  0.02830  Biso   1.000  C
  C25      1.0000 0.28300  0.08470  0.22170  Biso   1.000  C
  C26      1.0000 0.21700  0.91530  0.72170  Biso   1.000  C
  C27      1.0000 0.66530  0.53300  0.47170  Biso   1.000  C
  C28      1.0000 0.83470  0.46700  0.97170  Biso   1.000  C
  C29      1.0000 0.78300  0.58470  0.72170  Biso   1.000  C
  C30      1.0000 0.71700  0.41530  0.22170  Biso   1.000  C
  C31      1.0000 0.16530  0.03300  0.97170  Biso   1.000  C
  C32      1.0000 0.33470  0.96700  0.47170  Biso   1.000  C
  C33      1.0000 0.75400  0.99340  0.77850  Biso   1.000  C
  C34      1.0000 0.74600  0.00660  0.27850  Biso   1.000  C
  C35      1.0000 0.75660  0.00400  0.02850  Biso   1.000  C
  C36      1.0000 0.74340  0.99600  0.52850  Biso   1.000  C
  C37      1.0000 0.25400  0.49340  0.27850  Biso   1.000  C
  C38      1.0000 0.24600  0.50660  0.77850  Biso   1.000  C
  C39      1.0000 0.25660  0.50400  0.52850  Biso   1.000  C
  C40      1.0000 0.24340  0.49600  0.02850  Biso   1.000  C
  C41      1.0000 0.24600  0.00660  0.22150  Biso   1.000  C
  C42      1.0000 0.25400  0.99340  0.72150  Biso   1.000  C
  C43      1.0000 0.74340  0.49600  0.47150  Biso   1.000  C
  C44      1.0000 0.75660  0.50400  0.97150  Biso   1.000  C
  C45      1.0000 0.74600  0.50660  0.72150  Biso   1.000  C
  C46      1.0000 0.75400  0.49340  0.22150  Biso   1.000  C
  C47      1.0000 0.24340  0.99600  0.97150  Biso   1.000  C
  C48      1.0000 0.25660  0.00400  0.47150  Biso   1.000  C
  H1       1.0000 0.72990  0.02580  0.74170  Biso   1.000  H
  H2       1.0000 0.77010  0.97420  0.24170  Biso   1.000  H
  H3       1.0000 0.72420  0.97990  0.99170  Biso   1.000  H
  H4       1.0000 0.77580  0.02010  0.49170  Biso   1.000  H
  H5       1.0000 0.22990  0.52580  0.24170  Biso   1.000  H
  H6       1.0000 0.27010  0.47420  0.74170  Biso   1.000  H
  H7       1.0000 0.22420  0.47990  0.49170  Biso   1.000  H
  H8       1.0000 0.27580  0.52010  0.99170  Biso   1.000  H
  H9       1.0000 0.27010  0.97420  0.25830  Biso   1.000  H
  H10      1.0000 0.22990  0.02580  0.75830  Biso   1.000  H
  H11      1.0000 0.77580  0.52010  0.50830  Biso   1.000  H
  H12      1.0000 0.72420  0.47990  0.00830  Biso   1.000  H
  H13      1.0000 0.77010  0.47420  0.75830  Biso   1.000  H
  H14      1.0000 0.72990  0.52580  0.25830  Biso   1.000  H
  H15      1.0000 0.27580  0.02010  0.00830  Biso   1.000  H
  H16      1.0000 0.22420  0.97990  0.50830  Biso   1.000  H
  H17      1.0000 0.80890  0.98820  0.76800  Biso   1.000  H
  H18      1.0000 0.69110  0.01180  0.26800  Biso   1.000  H
  H19      1.0000 0.76180  0.05890  0.01800  Biso   1.000  H
  H20      1.0000 0.73820  0.94110  0.51800  Biso   1.000  H
  H21      1.0000 0.30890  0.48820  0.26800  Biso   1.000  H
  H22      1.0000 0.19110  0.51180  0.76800  Biso   1.000  H
  H23      1.0000 0.26180  0.55890  0.51800  Biso   1.000  H
  H24      1.0000 0.23820  0.44110  0.01800  Biso   1.000  H
  H25      1.0000 0.19110  0.01180  0.23200  Biso   1.000  H
  H26      1.0000 0.30890  0.98820  0.73200  Biso   1.000  H
  H27      1.0000 0.73820  0.44110  0.48200  Biso   1.000  H
  H28      1.0000 0.76180  0.55890  0.98200  Biso   1.000  H
  H29      1.0000 0.69110  0.51180  0.73200  Biso   1.000  H
  H30      1.0000 0.80890  0.48820  0.23200  Biso   1.000  H
  H31      1.0000 0.23820  0.94110  0.98200  Biso   1.000  H
  H32      1.0000 0.26180  0.05890  0.48200  Biso   1.000  H
  H33      1.0000 0.74740  0.01720  0.82600  Biso   1.000  H
  H34      1.0000 0.75260  0.98280  0.32600  Biso   1.000  H
  H35      1.0000 0.73280  0.99740  0.07600  Biso   1.000  H
  H36      1.0000 0.76720  0.00260  0.57600  Biso   1.000  H
  H37      1.0000 0.24740  0.51720  0.32600  Biso   1.000  H
  H38      1.0000 0.25260  0.48280  0.82600  Biso   1.000  H
  H39      1.0000 0.23280  0.49740  0.57600  Biso   1.000  H
  H40      1.0000 0.26720  0.50260  0.07600  Biso   1.000  H
  H41      1.0000 0.25260  0.98280  0.17400  Biso   1.000  H
  H42      1.0000 0.24740  0.01720  0.67400  Biso   1.000  H
  H43      1.0000 0.76720  0.50260  0.42400  Biso   1.000  H
  H44      1.0000 0.73280  0.49740  0.92400  Biso   1.000  H
  H45      1.0000 0.75260  0.48280  0.67400  Biso   1.000  H
  H46      1.0000 0.74740  0.51720  0.17400  Biso   1.000  H
  H47      1.0000 0.26720  0.00260  0.92400  Biso   1.000  H
  H48      1.0000 0.23280  0.99740  0.42400  Biso   1.000  H
  C49      1.0000 0.68220  0.72510  0.84290  Biso   1.000  C
  C50      1.0000 0.81780  0.27490  0.34290  Biso   1.000  C
  C51      1.0000 0.02490  0.93220  0.09290  Biso   1.000  C
  C52      1.0000 0.47510  0.06780  0.59290  Biso   1.000  C
  C53      1.0000 0.18220  0.22510  0.34290  Biso   1.000  C
  C54      1.0000 0.31780  0.77490  0.84290  Biso   1.000  C
  C55      1.0000 0.52490  0.43220  0.59290  Biso   1.000  C
  C56      1.0000 0.97510  0.56780  0.09290  Biso   1.000  C
  C57      1.0000 0.31780  0.27490  0.15710  Biso   1.000  C
  C58      1.0000 0.18220  0.72510  0.65710  Biso   1.000  C
  C59      1.0000 0.47510  0.56780  0.40710  Biso   1.000  C
  C60      1.0000 0.02490  0.43220  0.90710  Biso   1.000  C
  C61      1.0000 0.81780  0.77490  0.65710  Biso   1.000  C
  C62      1.0000 0.68220  0.22510  0.15710  Biso   1.000  C
  C63      1.0000 0.97510  0.06780  0.90710  Biso   1.000  C
  C64      1.0000 0.52490  0.93220  0.40710  Biso   1.000  C
  H49      1.0000 0.63130  0.70280  0.83460  Biso   1.000  H
  H50      1.0000 0.86870  0.29720  0.33460  Biso   1.000  H
  H51      1.0000 0.04720  0.88130  0.08460  Biso   1.000  H
  H52      1.0000 0.45280  0.11870  0.58460  Biso   1.000  H
  H53      1.0000 0.13130  0.20280  0.33460  Biso   1.000  H
  H54      1.0000 0.36870  0.79720  0.83460  Biso   1.000  H
  H55      1.0000 0.54720  0.38130  0.58460  Biso   1.000  H
  H56      1.0000 0.95280  0.61870  0.08460  Biso   1.000  H
  H57      1.0000 0.36870  0.29720  0.16540  Biso   1.000  H
  H58      1.0000 0.13130  0.70280  0.66540  Biso   1.000  H
  H59      1.0000 0.45280  0.61870  0.41540  Biso   1.000  H
  H60      1.0000 0.04720  0.38130  0.91540  Biso   1.000  H
  H61      1.0000 0.86870  0.79720  0.66540  Biso   1.000  H
  H62      1.0000 0.63130  0.20280  0.16540  Biso   1.000  H
  H63      1.0000 0.95280  0.11870  0.91540  Biso   1.000  H
  H64      1.0000 0.54720  0.88130  0.41540  Biso   1.000  H
  H65      1.0000 0.69010  0.73250  0.89470  Biso   1.000  H
  H66      1.0000 0.80990  0.26750  0.39470  Biso   1.000  H
  H67      1.0000 0.01750  0.94010  0.14470  Biso   1.000  H
  H68      1.0000 0.48250  0.05990  0.64470  Biso   1.000  H
  H69      1.0000 0.19010  0.23250  0.39470  Biso   1.000  H
  H70      1.0000 0.30990  0.76750  0.89470  Biso   1.000  H
  H71      1.0000 0.51750  0.44010  0.64470  Biso   1.000  H
  H72      1.0000 0.98250  0.55990  0.14470  Biso   1.000  H
  H73      1.0000 0.30990  0.26750  0.10530  Biso   1.000  H
  H74      1.0000 0.19010  0.73250  0.60530  Biso   1.000  H
  H75      1.0000 0.48250  0.55990  0.35530  Biso   1.000  H
  H76      1.0000 0.01750  0.44010  0.85530  Biso   1.000  H
  H77      1.0000 0.80990  0.76750  0.60530  Biso   1.000  H
  H78      1.0000 0.69010  0.23250  0.10530  Biso   1.000  H
  H79      1.0000 0.98250  0.05990  0.85530  Biso   1.000  H
  H80      1.0000 0.51750  0.94010  0.35530  Biso   1.000  H
  H81      1.0000 0.72170  0.69050  0.82400  Biso   1.000  H
  H82      1.0000 0.77830  0.30950  0.32400  Biso   1.000  H
  H83      1.0000 0.05950  0.97170  0.07400  Biso   1.000  H
  H84      1.0000 0.44050  0.02830  0.57400  Biso   1.000  H
  H85      1.0000 0.22170  0.19050  0.32400  Biso   1.000  H
  H86      1.0000 0.27830  0.80950  0.82400  Biso   1.000  H
  H87      1.0000 0.55950  0.47170  0.57400  Biso   1.000  H
  H88      1.0000 0.94050  0.52830  0.07400  Biso   1.000  H
  H89      1.0000 0.27830  0.30950  0.17600  Biso   1.000  H
  H90      1.0000 0.22170  0.69050  0.67600  Biso   1.000  H
  H91      1.0000 0.44050  0.52830  0.42600  Biso   1.000  H
  H92      1.0000 0.05950  0.47170  0.92600  Biso   1.000  H
  H93      1.0000 0.77830  0.80950  0.67600  Biso   1.000  H
  H94      1.0000 0.72170  0.19050  0.17600  Biso   1.000  H
  H95      1.0000 0.94050  0.02830  0.92600  Biso   1.000  H
  H96      1.0000 0.55950  0.97170  0.42600  Biso   1.000  H
  O1       1.0000 0.62690  0.73110  0.93740  Biso   1.000  O
  O2       1.0000 0.87310  0.26890  0.43740  Biso   1.000  O
  O3       1.0000 0.01890  0.87690  0.18740  Biso   1.000  O
  O4       1.0000 0.48110  0.12310  0.68740  Biso   1.000  O
  O5       1.0000 0.12690  0.23110  0.43740  Biso   1.000  O
  O6       1.0000 0.37310  0.76890  0.93740  Biso   1.000  O
  O7       1.0000 0.51890  0.37690  0.68740  Biso   1.000  O
  O8       1.0000 0.98110  0.62310  0.18740  Biso   1.000  O
  O9       1.0000 0.37310  0.26890  0.06260  Biso   1.000  O
  O10      1.0000 0.12690  0.73110  0.56260  Biso   1.000  O
  O11      1.0000 0.48110  0.62310  0.31260  Biso   1.000  O
  O12      1.0000 0.01890  0.37690  0.81260  Biso   1.000  O
  O13      1.0000 0.87310  0.76890  0.56260  Biso   1.000  O
  O14      1.0000 0.62690  0.23110  0.06260  Biso   1.000  O
  O15      1.0000 0.98110  0.12310  0.81260  Biso   1.000  O
  O16      1.0000 0.51890  0.87690  0.31260  Biso   1.000  O
  H97      1.0000 0.62490  0.76760  0.96680  Biso   1.000  H
  H98      1.0000 0.87510  0.23240  0.46680  Biso   1.000  H
  H99      1.0000 0.98240  0.87490  0.21680  Biso   1.000  H
  H100     1.0000 0.51760  0.12510  0.71680  Biso   1.000  H
  H101     1.0000 0.12490  0.26760  0.46680  Biso   1.000  H
  H102     1.0000 0.37510  0.73240  0.96680  Biso   1.000  H
  H103     1.0000 0.48240  0.37490  0.71680  Biso   1.000  H
  H104     1.0000 0.01760  0.62510  0.21680  Biso   1.000  H
  H105     1.0000 0.37510  0.23240  0.03320  Biso   1.000  H
  H106     1.0000 0.12490  0.76760  0.53320  Biso   1.000  H
  H107     1.0000 0.51760  0.62510  0.28320  Biso   1.000  H
  H108     1.0000 0.98240  0.37490  0.78320  Biso   1.000  H
  H109     1.0000 0.87510  0.73240  0.53320  Biso   1.000  H
  H110     1.0000 0.62490  0.26760  0.03320  Biso   1.000  H
  H111     1.0000 0.01760  0.12510  0.78320  Biso   1.000  H
  H112     1.0000 0.48240  0.87490  0.28320  Biso   1.000  H
  H113     1.0000 0.58320  0.71800  0.92800  Biso   1.000  H
  H114     1.0000 0.91680  0.28200  0.42800  Biso   1.000  H
  H115     1.0000 0.03200  0.83320  0.17800  Biso   1.000  H
  H116     1.0000 0.46800  0.16680  0.67800  Biso   1.000  H
  H117     1.0000 0.08320  0.21800  0.42800  Biso   1.000  H
  H118     1.0000 0.41680  0.78200  0.92800  Biso   1.000  H
  H119     1.0000 0.53200  0.33320  0.67800  Biso   1.000  H
  H120     1.0000 0.96800  0.66680  0.17800  Biso   1.000  H
  H121     1.0000 0.41680  0.28200  0.07200  Biso   1.000  H
  H122     1.0000 0.08320  0.71800  0.57200  Biso   1.000  H
  H123     1.0000 0.46800  0.66680  0.32200  Biso   1.000  H
  H124     1.0000 0.03200  0.33320  0.82200  Biso   1.000  H
  H125     1.0000 0.91680  0.78200  0.57200  Biso   1.000  H
  H126     1.0000 0.58320  0.21800  0.07200  Biso   1.000  H
  H127     1.0000 0.96800  0.16680  0.82200  Biso   1.000  H
  H128     1.0000 0.53200  0.83320  0.32200  Biso   1.000  H
