data_image0
_cell_length_a       17.2695
_cell_length_b       17.2695
_cell_length_c       19.002
_cell_angle_alpha    90
_cell_angle_beta     90
_cell_angle_gamma    90

_symmetry_space_group_name_H-M    "P 1"
_symmetry_int_tables_number       1

loop_
  _symmetry_equiv_pos_as_xyz
  'x, y, z'

loop_
  _atom_site_label
  _atom_site_occupancy
  _atom_site_fract_x
  _atom_site_fract_y
  _atom_site_fract_z
  _atom_site_thermal_displace_type
  _atom_site_B_iso_or_equiv
  _atom_site_type_symbol
  Cu1      1.0000 0.01669  0.82451  0.43067  Biso   1.000  Cu
  Cu2      1.0000 0.48331  0.17549  0.93067  Biso   1.000  Cu
  Cu3      1.0000 0.92549  0.26669  0.68067  Biso   1.000  Cu
  Cu4      1.0000 0.57451  0.73331  0.18067  Biso   1.000  Cu
  Cu5      1.0000 0.51669  0.32451  0.93067  Biso   1.000  Cu
  Cu6      1.0000 0.98331  0.67549  0.43067  Biso   1.000  Cu
  Cu7      1.0000 0.42549  0.76669  0.18067  Biso   1.000  Cu
  Cu8      1.0000 0.07451  0.23331  0.68067  Biso   1.000  Cu
  Cu9      1.0000 0.98331  0.17549  0.56933  Biso   1.000  Cu
  Cu10     1.0000 0.51669  0.82451  0.06933  Biso   1.000  Cu
  Cu11     1.0000 0.57451  0.23331  0.81933  Biso   1.000  Cu
  Cu12     1.0000 0.92549  0.76669  0.31933  Biso   1.000  Cu
  Cu13     1.0000 0.48331  0.67549  0.06933  Biso   1.000  Cu
  Cu14     1.0000 0.01669  0.32451  0.56933  Biso   1.000  Cu
  Cu15     1.0000 0.07451  0.73331  0.31933  Biso   1.000  Cu
  Cu16     1.0000 0.42549  0.26669  0.81933  Biso   1.000  Cu
  Cu17     1.0000 0.19679  0.87822  0.39652  Biso   1.000  Cu
  Cu18     1.0000 0.30321  0.12178  0.89652  Biso   1.000  Cu
  Cu19     1.0000 0.87178  0.44679  0.64652  Biso   1.000  Cu
  Cu20     1.0000 0.62822  0.55321  0.14652  Biso   1.000  Cu
  Cu21     1.0000 0.69679  0.37822  0.89652  Biso   1.000  Cu
  Cu22     1.0000 0.80321  0.62178  0.39652  Biso   1.000  Cu
  Cu23     1.0000 0.37178  0.94679  0.14652  Biso   1.000  Cu
  Cu24     1.0000 0.12822  0.05321  0.64652  Biso   1.000  Cu
  Cu25     1.0000 0.80321  0.12178  0.60348  Biso   1.000  Cu
  Cu26     1.0000 0.69679  0.87822  0.10348  Biso   1.000  Cu
  Cu27     1.0000 0.62822  0.05321  0.85348  Biso   1.000  Cu
  Cu28     1.0000 0.87178  0.94679  0.35348  Biso   1.000  Cu
  Cu29     1.0000 0.30321  0.62178  0.10348  Biso   1.000  Cu
  Cu30     1.0000 0.19679  0.37822  0.60348  Biso   1.000  Cu
  Cu31     1.0000 0.12822  0.55321  0.35348  Biso   1.000  Cu
  Cu32     1.0000 0.37178  0.44679  0.85348  Biso   1.000  Cu
  I1       1.0000 0.87186  0.79386  0.45160  Biso   1.000  I
  I2       1.0000 0.62814  0.20614  0.95160  Biso   1.000  I
  I3       1.0000 0.95614  0.12186  0.70160  Biso   1.000  I
  I4       1.0000 0.54386  0.87814  0.20160  Biso   1.000  I
  I5       1.0000 0.37186  0.29386  0.95160  Biso   1.000  I
  I6       1.0000 0.12814  0.70614  0.45160  Biso   1.000  I
  I7       1.0000 0.45614  0.62186  0.20160  Biso   1.000  I
  I8       1.0000 0.04386  0.37814  0.70160  Biso   1.000  I
  I9       1.0000 0.12814  0.20614  0.54840  Biso   1.000  I
  I10      1.0000 0.37186  0.79386  0.04840  Biso   1.000  I
  I11      1.0000 0.54386  0.37814  0.79840  Biso   1.000  I
  I12      1.0000 0.95614  0.62186  0.29840  Biso   1.000  I
  I13      1.0000 0.62814  0.70614  0.04840  Biso   1.000  I
  I14      1.0000 0.87186  0.29386  0.54840  Biso   1.000  I
  I15      1.0000 0.04386  0.87814  0.29840  Biso   1.000  I
  I16      1.0000 0.45614  0.12186  0.79840  Biso   1.000  I
  O1       1.0000 0.98960  0.86570  0.67920  Biso   1.000  O
  O2       1.0000 0.51040  0.13430  0.17920  Biso   1.000  O
  O3       1.0000 0.88430  0.23960  0.92920  Biso   1.000  O
  O4       1.0000 0.61570  0.76040  0.42920  Biso   1.000  O
  O5       1.0000 0.48960  0.36570  0.17920  Biso   1.000  O
  O6       1.0000 0.01040  0.63430  0.67920  Biso   1.000  O
  O7       1.0000 0.38430  0.73960  0.42920  Biso   1.000  O
  O8       1.0000 0.11570  0.26040  0.92920  Biso   1.000  O
  O9       1.0000 0.01040  0.13430  0.32080  Biso   1.000  O
  O10      1.0000 0.48960  0.86570  0.82080  Biso   1.000  O
  O11      1.0000 0.61570  0.26040  0.57080  Biso   1.000  O
  O12      1.0000 0.88430  0.73960  0.07080  Biso   1.000  O
  O13      1.0000 0.51040  0.63430  0.82080  Biso   1.000  O
  O14      1.0000 0.98960  0.36570  0.32080  Biso   1.000  O
  O15      1.0000 0.11570  0.76040  0.07080  Biso   1.000  O
  O16      1.0000 0.38430  0.23960  0.57080  Biso   1.000  O
  N1       1.0000 0.07170  0.89810  0.49390  Biso   1.000  N
  N2       1.0000 0.42830  0.10190  0.99390  Biso   1.000  N
  N3       1.0000 0.85190  0.32170  0.74390  Biso   1.000  N
  N4       1.0000 0.64810  0.67830  0.24390  Biso   1.000  N
  N5       1.0000 0.57170  0.39810  0.99390  Biso   1.000  N
  N6       1.0000 0.92830  0.60190  0.49390  Biso   1.000  N
  N7       1.0000 0.35190  0.82170  0.24390  Biso   1.000  N
  N8       1.0000 0.14810  0.17830  0.74390  Biso   1.000  N
  N9       1.0000 0.92830  0.10190  0.50610  Biso   1.000  N
  N10      1.0000 0.57170  0.89810  0.00610  Biso   1.000  N
  N11      1.0000 0.64810  0.17830  0.75610  Biso   1.000  N
  N12      1.0000 0.85190  0.82170  0.25610  Biso   1.000  N
  N13      1.0000 0.42830  0.60190  0.00610  Biso   1.000  N
  N14      1.0000 0.07170  0.39810  0.50610  Biso   1.000  N
  N15      1.0000 0.14810  0.67830  0.25610  Biso   1.000  N
  N16      1.0000 0.35190  0.32170  0.75610  Biso   1.000  N
  N17      1.0000 0.14530  0.91910  0.47550  Biso   1.000  N
  N18      1.0000 0.35470  0.08090  0.97550  Biso   1.000  N
  N19      1.0000 0.83090  0.39530  0.72550  Biso   1.000  N
  N20      1.0000 0.66910  0.60470  0.22550  Biso   1.000  N
  N21      1.0000 0.64530  0.41910  0.97550  Biso   1.000  N
  N22      1.0000 0.85470  0.58090  0.47550  Biso   1.000  N
  N23      1.0000 0.33090  0.89530  0.22550  Biso   1.000  N
  N24      1.0000 0.16910  0.10470  0.72550  Biso   1.000  N
  N25      1.0000 0.85470  0.08090  0.52450  Biso   1.000  N
  N26      1.0000 0.64530  0.91910  0.02450  Biso   1.000  N
  N27      1.0000 0.66910  0.10470  0.77450  Biso   1.000  N
  N28      1.0000 0.83090  0.89530  0.27450  Biso   1.000  N
  N29      1.0000 0.35470  0.58090  0.02450  Biso   1.000  N
  N30      1.0000 0.14530  0.41910  0.52450  Biso   1.000  N
  N31      1.0000 0.16910  0.60470  0.27450  Biso   1.000  N
  N32      1.0000 0.33090  0.39530  0.77450  Biso   1.000  N
  N33      1.0000 0.11570  0.98160  0.57240  Biso   1.000  N
  N34      1.0000 0.38430  0.01840  0.07240  Biso   1.000  N
  N35      1.0000 0.76840  0.36570  0.82240  Biso   1.000  N
  N36      1.0000 0.73160  0.63430  0.32240  Biso   1.000  N
  N37      1.0000 0.61570  0.48160  0.07240  Biso   1.000  N
  N38      1.0000 0.88430  0.51840  0.57240  Biso   1.000  N
  N39      1.0000 0.26840  0.86570  0.32240  Biso   1.000  N
  N40      1.0000 0.23160  0.13430  0.82240  Biso   1.000  N
  N41      1.0000 0.88430  0.01840  0.42760  Biso   1.000  N
  N42      1.0000 0.61570  0.98160  0.92760  Biso   1.000  N
  N43      1.0000 0.73160  0.13430  0.67760  Biso   1.000  N
  N44      1.0000 0.76840  0.86570  0.17760  Biso   1.000  N
  N45      1.0000 0.38430  0.51840  0.92760  Biso   1.000  N
  N46      1.0000 0.11570  0.48160  0.42760  Biso   1.000  N
  N47      1.0000 0.23160  0.63430  0.17760  Biso   1.000  N
  N48      1.0000 0.26840  0.36570  0.67760  Biso   1.000  N
  C1       1.0000 0.16950  0.96860  0.52390  Biso   1.000  C
  C2       1.0000 0.33050  0.03140  0.02390  Biso   1.000  C
  C3       1.0000 0.78140  0.41950  0.77390  Biso   1.000  C
  C4       1.0000 0.71860  0.58050  0.27390  Biso   1.000  C
  C5       1.0000 0.66950  0.46860  0.02390  Biso   1.000  C
  C6       1.0000 0.83050  0.53140  0.52390  Biso   1.000  C
  C7       1.0000 0.28140  0.91950  0.27390  Biso   1.000  C
  C8       1.0000 0.21860  0.08050  0.77390  Biso   1.000  C
  C9       1.0000 0.83050  0.03140  0.47610  Biso   1.000  C
  C10      1.0000 0.66950  0.96860  0.97610  Biso   1.000  C
  C11      1.0000 0.71860  0.08050  0.72610  Biso   1.000  C
  C12      1.0000 0.78140  0.91950  0.22610  Biso   1.000  C
  C13      1.0000 0.33050  0.53140  0.97610  Biso   1.000  C
  C14      1.0000 0.16950  0.46860  0.47610  Biso   1.000  C
  C15      1.0000 0.21860  0.58050  0.22610  Biso   1.000  C
  C16      1.0000 0.28140  0.41950  0.72610  Biso   1.000  C
  C17      1.0000 0.24890  0.00560  0.52230  Biso   1.000  C
  C18      1.0000 0.25110  0.99440  0.02230  Biso   1.000  C
  C19      1.0000 0.74440  0.49890  0.77230  Biso   1.000  C
  C20      1.0000 0.75560  0.50110  0.27230  Biso   1.000  C
  C21      1.0000 0.74890  0.50560  0.02230  Biso   1.000  C
  C22      1.0000 0.75110  0.49440  0.52230  Biso   1.000  C
  C23      1.0000 0.24440  0.99890  0.27230  Biso   1.000  C
  C24      1.0000 0.25560  0.00110  0.77230  Biso   1.000  C
  C25      1.0000 0.75110  0.99440  0.47770  Biso   1.000  C
  C26      1.0000 0.74890  0.00560  0.97770  Biso   1.000  C
  C27      1.0000 0.75560  0.00110  0.72770  Biso   1.000  C
  C28      1.0000 0.74440  0.99890  0.22770  Biso   1.000  C
  C29      1.0000 0.25110  0.49440  0.97770  Biso   1.000  C
  C30      1.0000 0.24890  0.50560  0.47770  Biso   1.000  C
  C31      1.0000 0.25560  0.50110  0.22770  Biso   1.000  C
  C32      1.0000 0.24440  0.49890  0.72770  Biso   1.000  C
  H1       1.0000 0.27800  0.98520  0.48340  Biso   1.000  H
  H2       1.0000 0.22200  0.01480  0.98340  Biso   1.000  H
  H3       1.0000 0.76480  0.52800  0.73340  Biso   1.000  H
  H4       1.0000 0.73520  0.47200  0.23340  Biso   1.000  H
  H5       1.0000 0.77800  0.48520  0.98340  Biso   1.000  H
  H6       1.0000 0.72200  0.51480  0.48340  Biso   1.000  H
  H7       1.0000 0.26480  0.02800  0.23340  Biso   1.000  H
  H8       1.0000 0.23520  0.97200  0.73340  Biso   1.000  H
  H9       1.0000 0.72200  0.01480  0.51660  Biso   1.000  H
  H10      1.0000 0.77800  0.98520  0.01660  Biso   1.000  H
  H11      1.0000 0.73520  0.97200  0.76660  Biso   1.000  H
  H12      1.0000 0.76480  0.02800  0.26660  Biso   1.000  H
  H13      1.0000 0.22200  0.51480  0.01660  Biso   1.000  H
  H14      1.0000 0.27800  0.48520  0.51660  Biso   1.000  H
  H15      1.0000 0.23520  0.47200  0.26660  Biso   1.000  H
  H16      1.0000 0.26480  0.52800  0.76660  Biso   1.000  H
  H17      1.0000 0.27560  0.99460  0.56540  Biso   1.000  H
  H18      1.0000 0.22440  0.00540  0.06540  Biso   1.000  H
  H19      1.0000 0.75540  0.52560  0.81540  Biso   1.000  H
  H20      1.0000 0.74460  0.47440  0.31540  Biso   1.000  H
  H21      1.0000 0.77560  0.49460  0.06540  Biso   1.000  H
  H22      1.0000 0.72440  0.50540  0.56540  Biso   1.000  H
  H23      1.0000 0.25540  0.02560  0.31540  Biso   1.000  H
  H24      1.0000 0.24460  0.97440  0.81540  Biso   1.000  H
  H25      1.0000 0.72440  0.00540  0.43460  Biso   1.000  H
  H26      1.0000 0.77560  0.99460  0.93460  Biso   1.000  H
  H27      1.0000 0.74460  0.97440  0.68460  Biso   1.000  H
  H28      1.0000 0.75540  0.02560  0.18460  Biso   1.000  H
  H29      1.0000 0.22440  0.50540  0.93460  Biso   1.000  H
  H30      1.0000 0.27560  0.49460  0.43460  Biso   1.000  H
  H31      1.0000 0.24460  0.47440  0.18460  Biso   1.000  H
  H32      1.0000 0.25540  0.52560  0.68460  Biso   1.000  H
  H33      1.0000 0.24360  0.06070  0.51690  Biso   1.000  H
  H34      1.0000 0.25640  0.93930  0.01690  Biso   1.000  H
  H35      1.0000 0.68930  0.49360  0.76690  Biso   1.000  H
  H36      1.0000 0.81070  0.50640  0.26690  Biso   1.000  H
  H37      1.0000 0.74360  0.56070  0.01690  Biso   1.000  H
  H38      1.0000 0.75640  0.43930  0.51690  Biso   1.000  H
  H39      1.0000 0.18930  0.99360  0.26690  Biso   1.000  H
  H40      1.0000 0.31070  0.00640  0.76690  Biso   1.000  H
  H41      1.0000 0.75640  0.93930  0.48310  Biso   1.000  H
  H42      1.0000 0.74360  0.06070  0.98310  Biso   1.000  H
  H43      1.0000 0.81070  0.00640  0.73310  Biso   1.000  H
  H44      1.0000 0.68930  0.99360  0.23310  Biso   1.000  H
  H45      1.0000 0.25640  0.43930  0.98310  Biso   1.000  H
  H46      1.0000 0.24360  0.56070  0.48310  Biso   1.000  H
  H47      1.0000 0.31070  0.50640  0.23310  Biso   1.000  H
  H48      1.0000 0.18930  0.49360  0.73310  Biso   1.000  H
  C33      1.0000 0.05610  0.93650  0.55290  Biso   1.000  C
  C34      1.0000 0.44390  0.06350  0.05290  Biso   1.000  C
  C35      1.0000 0.81350  0.30610  0.80290  Biso   1.000  C
  C36      1.0000 0.68650  0.69390  0.30290  Biso   1.000  C
  C37      1.0000 0.55610  0.43650  0.05290  Biso   1.000  C
  C38      1.0000 0.94390  0.56350  0.55290  Biso   1.000  C
  C39      1.0000 0.31350  0.80610  0.30290  Biso   1.000  C
  C40      1.0000 0.18650  0.19390  0.80290  Biso   1.000  C
  C41      1.0000 0.94390  0.06350  0.44710  Biso   1.000  C
  C42      1.0000 0.55610  0.93650  0.94710  Biso   1.000  C
  C43      1.0000 0.68650  0.19390  0.69710  Biso   1.000  C
  C44      1.0000 0.81350  0.80610  0.19710  Biso   1.000  C
  C45      1.0000 0.44390  0.56350  0.94710  Biso   1.000  C
  C46      1.0000 0.05610  0.43650  0.44710  Biso   1.000  C
  C47      1.0000 0.18650  0.69390  0.19710  Biso   1.000  C
  C48      1.0000 0.31350  0.30610  0.69710  Biso   1.000  C
  C49      1.0000 0.98190  0.92890  0.59180  Biso   1.000  C
  C50      1.0000 0.51810  0.07110  0.09180  Biso   1.000  C
  C51      1.0000 0.82110  0.23190  0.84180  Biso   1.000  C
  C52      1.0000 0.67890  0.76810  0.34180  Biso   1.000  C
  C53      1.0000 0.48190  0.42890  0.09180  Biso   1.000  C
  C54      1.0000 0.01810  0.57110  0.59180  Biso   1.000  C
  C55      1.0000 0.32110  0.73190  0.34180  Biso   1.000  C
  C56      1.0000 0.17890  0.26810  0.84180  Biso   1.000  C
  C57      1.0000 0.01810  0.07110  0.40820  Biso   1.000  C
  C58      1.0000 0.48190  0.92890  0.90820  Biso   1.000  C
  C59      1.0000 0.67890  0.26810  0.65820  Biso   1.000  C
  C60      1.0000 0.82110  0.73190  0.15820  Biso   1.000  C
  C61      1.0000 0.51810  0.57110  0.90820  Biso   1.000  C
  C62      1.0000 0.98190  0.42890  0.40820  Biso   1.000  C
  C63      1.0000 0.17890  0.76810  0.15820  Biso   1.000  C
  C64      1.0000 0.32110  0.23190  0.65820  Biso   1.000  C
  H49      1.0000 0.94750  0.89580  0.56590  Biso   1.000  H
  H50      1.0000 0.55250  0.10420  0.06590  Biso   1.000  H
  H51      1.0000 0.85420  0.19750  0.81590  Biso   1.000  H
  H52      1.0000 0.64580  0.80250  0.31590  Biso   1.000  H
  H53      1.0000 0.44750  0.39580  0.06590  Biso   1.000  H
  H54      1.0000 0.05250  0.60420  0.56590  Biso   1.000  H
  H55      1.0000 0.35420  0.69750  0.31590  Biso   1.000  H
  H56      1.0000 0.14580  0.30250  0.81590  Biso   1.000  H
  H57      1.0000 0.05250  0.10420  0.43410  Biso   1.000  H
  H58      1.0000 0.44750  0.89580  0.93410  Biso   1.000  H
  H59      1.0000 0.64580  0.30250  0.68410  Biso   1.000  H
  H60      1.0000 0.85420  0.69750  0.18410  Biso   1.000  H
  H61      1.0000 0.55250  0.60420  0.93410  Biso   1.000  H
  H62      1.0000 0.94750  0.39580  0.43410  Biso   1.000  H
  H63      1.0000 0.14580  0.80250  0.18410  Biso   1.000  H
  H64      1.0000 0.35420  0.19750  0.68410  Biso   1.000  H
  H65      1.0000 0.95870  0.97910  0.59720  Biso   1.000  H
  H66      1.0000 0.54130  0.02090  0.09720  Biso   1.000  H
  H67      1.0000 0.77090  0.20870  0.84720  Biso   1.000  H
  H68      1.0000 0.72910  0.79130  0.34720  Biso   1.000  H
  H69      1.0000 0.45870  0.47910  0.09720  Biso   1.000  H
  H70      1.0000 0.04130  0.52090  0.59720  Biso   1.000  H
  H71      1.0000 0.27090  0.70870  0.34720  Biso   1.000  H
  H72      1.0000 0.22910  0.29130  0.84720  Biso   1.000  H
  H73      1.0000 0.04130  0.02090  0.40280  Biso   1.000  H
  H74      1.0000 0.45870  0.97910  0.90280  Biso   1.000  H
  H75      1.0000 0.72910  0.29130  0.65280  Biso   1.000  H
  H76      1.0000 0.77090  0.70870  0.15280  Biso   1.000  H
  H77      1.0000 0.54130  0.52090  0.90280  Biso   1.000  H
  H78      1.0000 0.95870  0.47910  0.40280  Biso   1.000  H
  H79      1.0000 0.22910  0.79130  0.15280  Biso   1.000  H
  H80      1.0000 0.27090  0.20870  0.65280  Biso   1.000  H
  H81      1.0000 0.99150  0.90690  0.63740  Biso   1.000  H
  H82      1.0000 0.50850  0.09310  0.13740  Biso   1.000  H
  H83      1.0000 0.84310  0.24150  0.88740  Biso   1.000  H
  H84      1.0000 0.65690  0.75850  0.38740  Biso   1.000  H
  H85      1.0000 0.49150  0.40690  0.13740  Biso   1.000  H
  H86      1.0000 0.00850  0.59310  0.63740  Biso   1.000  H
  H87      1.0000 0.34310  0.74150  0.38740  Biso   1.000  H
  H88      1.0000 0.15690  0.25850  0.88740  Biso   1.000  H
  H89      1.0000 0.00850  0.09310  0.36260  Biso   1.000  H
  H90      1.0000 0.49150  0.90690  0.86260  Biso   1.000  H
  H91      1.0000 0.65690  0.25850  0.61260  Biso   1.000  H
  H92      1.0000 0.84310  0.74150  0.11260  Biso   1.000  H
  H93      1.0000 0.50850  0.59310  0.86260  Biso   1.000  H
  H94      1.0000 0.99150  0.40690  0.36260  Biso   1.000  H
  H95      1.0000 0.15690  0.75850  0.11260  Biso   1.000  H
  H96      1.0000 0.34310  0.24150  0.61260  Biso   1.000  H
