data_image0
_cell_length_a       31.33
_cell_length_b       4.2108
_cell_length_c       8.937
_cell_angle_alpha    90
_cell_angle_beta     98.556
_cell_angle_gamma    90

_symmetry_space_group_name_H-M    "P 1"
_symmetry_int_tables_number       1

loop_
  _symmetry_equiv_pos_as_xyz
  'x, y, z'

loop_
  _atom_site_label
  _atom_site_occupancy
  _atom_site_fract_x
  _atom_site_fract_y
  _atom_site_fract_z
  _atom_site_thermal_displace_type
  _atom_site_B_iso_or_equiv
  _atom_site_type_symbol
  Cu1      1.0000 0.74430  0.24220  0.11624  Biso   1.000  Cu
  Cu2      1.0000 0.25570  0.24220  0.88376  Biso   1.000  Cu
  Cu3      1.0000 0.24430  0.74220  0.11624  Biso   1.000  Cu
  Cu4      1.0000 0.75570  0.74220  0.88376  Biso   1.000  Cu
  I1       1.0000 0.70256  0.26585  0.83454  Biso   1.000  I
  I2       1.0000 0.29744  0.26585  0.16546  Biso   1.000  I
  I3       1.0000 0.20256  0.76585  0.83454  Biso   1.000  I
  I4       1.0000 0.79744  0.76585  0.16546  Biso   1.000  I
  O1       1.0000 0.56350  0.77800  0.39590  Biso   1.000  O
  O2       1.0000 0.43650  0.77800  0.60410  Biso   1.000  O
  O3       1.0000 0.06350  0.27800  0.39590  Biso   1.000  O
  O4       1.0000 0.93650  0.27800  0.60410  Biso   1.000  O
  O5       1.0000 0.50000  0.31500  0.00000  Biso   1.000  O
  O6       1.0000 0.00000  0.81500  0.00000  Biso   1.000  O
  N1       1.0000 0.69840  0.34980  0.24670  Biso   1.000  N
  N2       1.0000 0.30160  0.34980  0.75330  Biso   1.000  N
  N3       1.0000 0.19840  0.84980  0.24670  Biso   1.000  N
  N4       1.0000 0.80160  0.84980  0.75330  Biso   1.000  N
  N5       1.0000 0.60568  0.75900  0.62540  Biso   1.000  N
  N6       1.0000 0.39432  0.75900  0.37460  Biso   1.000  N
  N7       1.0000 0.10568  0.25900  0.62540  Biso   1.000  N
  N8       1.0000 0.89432  0.25900  0.37460  Biso   1.000  N
  H1       1.0000 0.63090  0.70610  0.66980  Biso   1.000  H
  H2       1.0000 0.36910  0.70610  0.33020  Biso   1.000  H
  H3       1.0000 0.13090  0.20610  0.66980  Biso   1.000  H
  H4       1.0000 0.86910  0.20610  0.33020  Biso   1.000  H
  C1       1.0000 0.65660  0.28700  0.20020  Biso   1.000  C
  C2       1.0000 0.34340  0.28700  0.79980  Biso   1.000  C
  C3       1.0000 0.15660  0.78700  0.20020  Biso   1.000  C
  C4       1.0000 0.84340  0.78700  0.79980  Biso   1.000  C
  H5       1.0000 0.64950  0.16690  0.11280  Biso   1.000  H
  H6       1.0000 0.35050  0.16690  0.88720  Biso   1.000  H
  H7       1.0000 0.14950  0.66690  0.11280  Biso   1.000  H
  H8       1.0000 0.85050  0.66690  0.88720  Biso   1.000  H
  C5       1.0000 0.62360  0.39020  0.27410  Biso   1.000  C
  C6       1.0000 0.37640  0.39020  0.72590  Biso   1.000  C
  C7       1.0000 0.12360  0.89020  0.27410  Biso   1.000  C
  C8       1.0000 0.87640  0.89020  0.72590  Biso   1.000  C
  H9       1.0000 0.59510  0.33690  0.23860  Biso   1.000  H
  H10      1.0000 0.40490  0.33690  0.76140  Biso   1.000  H
  H11      1.0000 0.09510  0.83690  0.23860  Biso   1.000  H
  H12      1.0000 0.90490  0.83690  0.76140  Biso   1.000  H
  C9       1.0000 0.63390  0.57500  0.40260  Biso   1.000  C
  C10      1.0000 0.36610  0.57500  0.59740  Biso   1.000  C
  C11      1.0000 0.13390  0.07500  0.40260  Biso   1.000  C
  C12      1.0000 0.86610  0.07500  0.59740  Biso   1.000  C
  C13      1.0000 0.67700  0.63700  0.45470  Biso   1.000  C
  C14      1.0000 0.32300  0.63700  0.54530  Biso   1.000  C
  C15      1.0000 0.17700  0.13700  0.45470  Biso   1.000  C
  C16      1.0000 0.82300  0.13700  0.54530  Biso   1.000  C
  H13      1.0000 0.68500  0.75230  0.54310  Biso   1.000  H
  H14      1.0000 0.31500  0.75230  0.45690  Biso   1.000  H
  H15      1.0000 0.18500  0.25230  0.54310  Biso   1.000  H
  H16      1.0000 0.81500  0.25230  0.45690  Biso   1.000  H
  C17      1.0000 0.70780  0.52300  0.37240  Biso   1.000  C
  C18      1.0000 0.29220  0.52300  0.62760  Biso   1.000  C
  C19      1.0000 0.20780  0.02300  0.37240  Biso   1.000  C
  C20      1.0000 0.79220  0.02300  0.62760  Biso   1.000  C
  H17      1.0000 0.73660  0.56880  0.40670  Biso   1.000  H
  H18      1.0000 0.26340  0.56880  0.59330  Biso   1.000  H
  H19      1.0000 0.23660  0.06880  0.40670  Biso   1.000  H
  H20      1.0000 0.76340  0.06880  0.59330  Biso   1.000  H
  C21      1.0000 0.59660  0.70800  0.47290  Biso   1.000  C
  C22      1.0000 0.40340  0.70800  0.52710  Biso   1.000  C
  C23      1.0000 0.09660  0.20800  0.47290  Biso   1.000  C
  C24      1.0000 0.90340  0.20800  0.52710  Biso   1.000  C
  C25      1.0000 0.57670  0.89280  0.71660  Biso   1.000  C
  C26      1.0000 0.42330  0.89280  0.28340  Biso   1.000  C
  C27      1.0000 0.07670  0.39280  0.71660  Biso   1.000  C
  C28      1.0000 0.92330  0.39280  0.28340  Biso   1.000  C
  C29      1.0000 0.54460  0.10400  0.66210  Biso   1.000  C
  C30      1.0000 0.45540  0.10400  0.33790  Biso   1.000  C
  C31      1.0000 0.04460  0.60400  0.66210  Biso   1.000  C
  C32      1.0000 0.95540  0.60400  0.33790  Biso   1.000  C
  H21      1.0000 0.54100  0.16280  0.56070  Biso   1.000  H
  H22      1.0000 0.45900  0.16280  0.43930  Biso   1.000  H
  H23      1.0000 0.04100  0.66280  0.56070  Biso   1.000  H
  H24      1.0000 0.95900  0.66280  0.43930  Biso   1.000  H
  C33      1.0000 0.51780  0.22800  0.75570  Biso   1.000  C
  C34      1.0000 0.48220  0.22800  0.24430  Biso   1.000  C
  C35      1.0000 0.01780  0.72800  0.75570  Biso   1.000  C
  C36      1.0000 0.98220  0.72800  0.24430  Biso   1.000  C
  H25      1.0000 0.49580  0.36720  0.71730  Biso   1.000  H
  H26      1.0000 0.50420  0.36720  0.28270  Biso   1.000  H
  H27      1.0000 0.99580  0.86720  0.71730  Biso   1.000  H
  H28      1.0000 0.00420  0.86720  0.28270  Biso   1.000  H
  C37      1.0000 0.52370  0.14700  0.90470  Biso   1.000  C
  C38      1.0000 0.47630  0.14700  0.09530  Biso   1.000  C
  C39      1.0000 0.02370  0.64700  0.90470  Biso   1.000  C
  C40      1.0000 0.97630  0.64700  0.09530  Biso   1.000  C
  C41      1.0000 0.55580  0.93700  0.96440  Biso   1.000  C
  C42      1.0000 0.44420  0.93700  0.03560  Biso   1.000  C
  C43      1.0000 0.05580  0.43700  0.96440  Biso   1.000  C
  C44      1.0000 0.94420  0.43700  0.03560  Biso   1.000  C
  H29      1.0000 0.55920  0.88150  0.06620  Biso   1.000  H
  H30      1.0000 0.44080  0.88150  0.93380  Biso   1.000  H
  H31      1.0000 0.05920  0.38150  0.06620  Biso   1.000  H
  H32      1.0000 0.94080  0.38150  0.93380  Biso   1.000  H
  C45      1.0000 0.58270  0.80900  0.86980  Biso   1.000  C
  C46      1.0000 0.41730  0.80900  0.13020  Biso   1.000  C
  C47      1.0000 0.08270  0.30900  0.86980  Biso   1.000  C
  C48      1.0000 0.91730  0.30900  0.13020  Biso   1.000  C
  H33      1.0000 0.60460  0.66960  0.90810  Biso   1.000  H
  H34      1.0000 0.39540  0.66960  0.09190  Biso   1.000  H
  H35      1.0000 0.10460  0.16960  0.90810  Biso   1.000  H
  H36      1.0000 0.89540  0.16960  0.09190  Biso   1.000  H
