data_image0
_cell_length_a       12.583
_cell_length_b       13.81
_cell_length_c       14.308
_cell_angle_alpha    63.154
_cell_angle_beta     65.722
_cell_angle_gamma    77.929

_symmetry_space_group_name_H-M    "P 1"
_symmetry_int_tables_number       1

loop_
  _symmetry_equiv_pos_as_xyz
  'x, y, z'

loop_
  _atom_site_label
  _atom_site_occupancy
  _atom_site_fract_x
  _atom_site_fract_y
  _atom_site_fract_z
  _atom_site_thermal_displace_type
  _atom_site_B_iso_or_equiv
  _atom_site_type_symbol
  Si1      1.0000 0.00000  0.50000  0.50000  Biso   1.000  Si
  W1       1.0000 0.22122  0.64039  0.24393  Biso   1.000  W
  W2       1.0000 0.77878  0.35961  0.75607  Biso   1.000  W
  W3       1.0000 0.24178  0.59295  0.49960  Biso   1.000  W
  W4       1.0000 0.75822  0.40705  0.50040  Biso   1.000  W
  W5       1.0000 0.98132  0.54520  0.24443  Biso   1.000  W
  W6       1.0000 0.01868  0.45480  0.75557  Biso   1.000  W
  W7       1.0000 0.72209  0.62530  0.57686  Biso   1.000  W
  W8       1.0000 0.27791  0.37470  0.42314  Biso   1.000  W
  W9       1.0000 0.94266  0.76471  0.32013  Biso   1.000  W
  W10      1.0000 0.05734  0.23529  0.67987  Biso   1.000  W
  W11      1.0000 0.96426  0.71972  0.57388  Biso   1.000  W
  W12      1.0000 0.03574  0.28028  0.42612  Biso   1.000  W
  Cu1      1.0000 0.85118  0.03998  0.08126  Biso   1.000  Cu
  Cu2      1.0000 0.14882  0.96002  0.91874  Biso   1.000  Cu
  Cu3      1.0000 0.63020  0.92470  0.31367  Biso   1.000  Cu
  Cu4      1.0000 0.36980  0.07530  0.68633  Biso   1.000  Cu
  O1       1.0000 0.10500  0.74900  0.25570  Biso   1.000  O
  O2       1.0000 0.89500  0.25100  0.74430  Biso   1.000  O
  O3       1.0000 0.78470  0.72580  0.42480  Biso   1.000  O
  O4       1.0000 0.21530  0.27420  0.57520  Biso   1.000  O
  O5       1.0000 0.97460  0.57010  0.12070  Biso   1.000  O
  O6       1.0000 0.02540  0.42990  0.87930  Biso   1.000  O
  O7       1.0000 0.26260  0.66210  0.34680  Biso   1.000  O
  O8       1.0000 0.73740  0.33790  0.65320  Biso   1.000  O
  O9       1.0000 0.92420  0.62450  0.49000  Biso   1.000  O
  O10      1.0000 0.07580  0.37550  0.51000  Biso   1.000  O
  O11      1.0000 0.16850  0.50280  0.65280  Biso   1.000  O
  O12      1.0000 0.83150  0.49720  0.34720  Biso   1.000  O
  O13      1.0000 0.80550  0.69000  0.61680  Biso   1.000  O
  O14      1.0000 0.19450  0.31000  0.38320  Biso   1.000  O
  O15      1.0000 0.97270  0.79650  0.42300  Biso   1.000  O
  O16      1.0000 0.02730  0.20350  0.57700  Biso   1.000  O
  O17      1.0000 0.95040  0.46210  0.43260  Biso   1.000  O
  O18      1.0000 0.04960  0.53790  0.56740  Biso   1.000  O
  O19      1.0000 0.30400  0.46450  0.47840  Biso   1.000  O
  O20      1.0000 0.69600  0.53550  0.52160  Biso   1.000  O
  O21      1.0000 0.12970  0.53310  0.43910  Biso   1.000  O
  O22      1.0000 0.87030  0.46690  0.56090  Biso   1.000  O
  O23      1.0000 0.12950  0.70170  0.51800  Biso   1.000  O
  O24      1.0000 0.87050  0.29830  0.48200  Biso   1.000  O
  O25      1.0000 0.92650  0.68010  0.25510  Biso   1.000  O
  O26      1.0000 0.07350  0.31990  0.74490  Biso   1.000  O
  O27      1.0000 0.03740  0.39850  0.29000  Biso   1.000  O
  O28      1.0000 0.96260  0.60150  0.71000  Biso   1.000  O
  O29      1.0000 0.35600  0.63670  0.50020  Biso   1.000  O
  O30      1.0000 0.64400  0.36330  0.49980  Biso   1.000  O
  O31      1.0000 0.28860  0.49770  0.29160  Biso   1.000  O
  O32      1.0000 0.71140  0.50230  0.70840  Biso   1.000  O
  O33      1.0000 0.91730  0.89440  0.22920  Biso   1.000  O
  O34      1.0000 0.08270  0.10560  0.77080  Biso   1.000  O
  O35      1.0000 0.58900  0.68210  0.61400  Biso   1.000  O
  O36      1.0000 0.41100  0.31790  0.38600  Biso   1.000  O
  O37      1.0000 0.94840  0.82120  0.60980  Biso   1.000  O
  O38      1.0000 0.05160  0.17880  0.39020  Biso   1.000  O
  O39      1.0000 0.32380  0.71390  0.12070  Biso   1.000  O
  O40      1.0000 0.67620  0.28610  0.87930  Biso   1.000  O
  O41      1.0000 0.13470  0.58920  0.19560  Biso   1.000  O
  O42      1.0000 0.86530  0.41080  0.80440  Biso   1.000  O
  O43      1.0000 0.96780  0.42400  0.62920  Biso   1.000  O
  O44      1.0000 0.03220  0.57600  0.37080  Biso   1.000  O
  N1       1.0000 0.69040  0.05900  0.47740  Biso   1.000  N
  N2       1.0000 0.30960  0.94100  0.52260  Biso   1.000  N
  N3       1.0000 0.79960  0.91910  0.89670  Biso   1.000  N
  N4       1.0000 0.20040  0.08090  0.10330  Biso   1.000  N
  N5       1.0000 0.85450  0.14140  0.13220  Biso   1.000  N
  N6       1.0000 0.14550  0.85860  0.86780  Biso   1.000  N
  N7       1.0000 0.83510  0.30640  0.13080  Biso   1.000  N
  N8       1.0000 0.16490  0.69360  0.86920  Biso   1.000  N
  N9       1.0000 0.64280  0.01010  0.37710  Biso   1.000  N
  N10      1.0000 0.35720  0.98990  0.62290  Biso   1.000  N
  N11      1.0000 0.60220  0.83690  0.25980  Biso   1.000  N
  N12      1.0000 0.39780  0.16310  0.74020  Biso   1.000  N
  N13      1.0000 0.83870  0.95890  0.01150  Biso   1.000  N
  N14      1.0000 0.16130  0.04110  0.98850  Biso   1.000  N
  N15      1.0000 0.57310  0.69310  0.24560  Biso   1.000  N
  N16      1.0000 0.42690  0.30690  0.75440  Biso   1.000  N
  C1       1.0000 0.80750  0.99780  0.92150  Biso   1.000  C
  C2       1.0000 0.19250  0.00220  0.07850  Biso   1.000  C
  H1       1.0000 0.79320  0.07090  0.88170  Biso   1.000  H
  H2       1.0000 0.20680  0.92910  0.11830  Biso   1.000  H
  C3       1.0000 0.83280  0.82730  0.96990  Biso   1.000  C
  C4       1.0000 0.16720  0.17270  0.03010  Biso   1.000  C
  H3       1.0000 0.83930  0.75830  0.97150  Biso   1.000  H
  H4       1.0000 0.16070  0.24170  0.02850  Biso   1.000  H
  C5       1.0000 0.70040  0.97980  0.44430  Biso   1.000  C
  C6       1.0000 0.29960  0.02020  0.55570  Biso   1.000  C
  H5       1.0000 0.74150  0.91430  0.46570  Biso   1.000  H
  H6       1.0000 0.25850  0.08570  0.53430  Biso   1.000  H
  C7       1.0000 0.89890  0.13900  0.20580  Biso   1.000  C
  C8       1.0000 0.10110  0.86100  0.79420  Biso   1.000  C
  H7       1.0000 0.93300  0.07790  0.24830  Biso   1.000  H
  H8       1.0000 0.06700  0.92210  0.75170  Biso   1.000  H
  C9       1.0000 0.85470  0.85270  0.03900  Biso   1.000  C
  C10      1.0000 0.14530  0.14730  0.96100  Biso   1.000  C
  H9       1.0000 0.87780  0.80340  0.09820  Biso   1.000  H
  H10      1.0000 0.12220  0.19660  0.90180  Biso   1.000  H
  C11      1.0000 0.59650  0.11230  0.36910  Biso   1.000  C
  C12      1.0000 0.40350  0.88770  0.63090  Biso   1.000  C
  H11      1.0000 0.55200  0.15370  0.32520  Biso   1.000  H
  H12      1.0000 0.44800  0.84630  0.67480  Biso   1.000  H
  C13      1.0000 0.62260  0.14440  0.43110  Biso   1.000  C
  C14      1.0000 0.37740  0.85560  0.56890  Biso   1.000  C
  H13      1.0000 0.60060  0.20880  0.44100  Biso   1.000  H
  H14      1.0000 0.39940  0.79120  0.55900  Biso   1.000  H
  C15      1.0000 0.76300  0.06500  0.53840  Biso   1.000  C
  C16      1.0000 0.23700  0.93500  0.46160  Biso   1.000  C
  H15      1.0000 0.78210  0.13970  0.51140  Biso   1.000  H
  H16      1.0000 0.21790  0.86030  0.48860  Biso   1.000  H
  H17      1.0000 0.83480  0.02270  0.52360  Biso   1.000  H
  H18      1.0000 0.16520  0.97730  0.47640  Biso   1.000  H
  C17      1.0000 0.70100  0.02600  0.64870  Biso   1.000  C
  C18      1.0000 0.29900  0.97400  0.35130  Biso   1.000  C
  H19      1.0000 0.63120  0.07140  0.66250  Biso   1.000  H
  H20      1.0000 0.36880  0.92860  0.33750  Biso   1.000  H
  H21      1.0000 0.67610  0.95350  0.67310  Biso   1.000  H
  H22      1.0000 0.32390  0.04650  0.32690  Biso   1.000  H
  C19      1.0000 0.75000  0.93700  0.81100  Biso   1.000  C
  C20      1.0000 0.25000  0.06300  0.18900  Biso   1.000  C
  H23      1.0000 0.66550  0.93460  0.84880  Biso   1.000  H
  H24      1.0000 0.33450  0.06540  0.15120  Biso   1.000  H
  H25      1.0000 0.77410  0.87530  0.79160  Biso   1.000  H
  H26      1.0000 0.22590  0.12470  0.20840  Biso   1.000  H
  C21      1.0000 0.77100  0.02000  0.72160  Biso   1.000  C
  C22      1.0000 0.22900  0.98000  0.27840  Biso   1.000  C
  H27      1.0000 0.75070  0.08380  0.73820  Biso   1.000  H
  H28      1.0000 0.24930  0.91620  0.26180  Biso   1.000  H
  H29      1.0000 0.85370  0.02110  0.67800  Biso   1.000  H
  H30      1.0000 0.14630  0.97890  0.32200  Biso   1.000  H
  C23      1.0000 0.53830  0.78640  0.16660  Biso   1.000  C
  C24      1.0000 0.46170  0.21360  0.83340  Biso   1.000  C
  H31      1.0000 0.50890  0.78730  0.11620  Biso   1.000  H
  H32      1.0000 0.49110  0.21270  0.88380  Biso   1.000  H
  C25      1.0000 0.67570  0.55870  0.16750  Biso   1.000  C
  C26      1.0000 0.32430  0.44130  0.83250  Biso   1.000  C
  H33      1.0000 0.74720  0.58970  0.15050  Biso   1.000  H
  H34      1.0000 0.25280  0.41030  0.84950  Biso   1.000  H
  H35      1.0000 0.65500  0.59390  0.10110  Biso   1.000  H
  H36      1.0000 0.34500  0.40610  0.89890  Biso   1.000  H
  C27      1.0000 0.55490  0.87450  0.17650  Biso   1.000  C
  C28      1.0000 0.44510  0.12550  0.82350  Biso   1.000  C
  H37      1.0000 0.53800  0.94640  0.13540  Biso   1.000  H
  H38      1.0000 0.46200  0.05360  0.86460  Biso   1.000  H
  C29      1.0000 0.80090  0.42020  0.10250  Biso   1.000  C
  C30      1.0000 0.19910  0.57980  0.89750  Biso   1.000  C
  H39      1.0000 0.86640  0.45940  0.08620  Biso   1.000  H
  H40      1.0000 0.13360  0.54060  0.91380  Biso   1.000  H
  H41      1.0000 0.78300  0.44910  0.03480  Biso   1.000  H
  H42      1.0000 0.21700  0.55090  0.96520  Biso   1.000  H
  C31      1.0000 0.69590  0.44060  0.19510  Biso   1.000  C
  C32      1.0000 0.30410  0.55940  0.80490  Biso   1.000  C
  H43      1.0000 0.70890  0.40400  0.26560  Biso   1.000  H
  H44      1.0000 0.29110  0.59600  0.73440  Biso   1.000  H
  H45      1.0000 0.62710  0.41080  0.20430  Biso   1.000  H
  H46      1.0000 0.37290  0.58920  0.79570  Biso   1.000  H
  C33      1.0000 0.81870  0.24180  0.08910  Biso   1.000  C
  C34      1.0000 0.18130  0.75820  0.91090  Biso   1.000  C
  H47      1.0000 0.78510  0.26700  0.03500  Biso   1.000  H
  H48      1.0000 0.21490  0.73300  0.96500  Biso   1.000  H
  C35      1.0000 0.57570  0.58180  0.26700  Biso   1.000  C
  C36      1.0000 0.42430  0.41820  0.73300  Biso   1.000  C
  H49      1.0000 0.58900  0.53690  0.33670  Biso   1.000  H
  H50      1.0000 0.41100  0.46310  0.66330  Biso   1.000  H
  H51      1.0000 0.50120  0.56330  0.27520  Biso   1.000  H
  H52      1.0000 0.49880  0.43670  0.72480  Biso   1.000  H
  C37      1.0000 0.88690  0.23490  0.20870  Biso   1.000  C
  C38      1.0000 0.11310  0.76510  0.79130  Biso   1.000  C
  H53      1.0000 0.90870  0.25210  0.25400  Biso   1.000  H
  H54      1.0000 0.09130  0.74790  0.74600  Biso   1.000  H
  C39      1.0000 0.61170  0.73110  0.29790  Biso   1.000  C
  C40      1.0000 0.38830  0.26890  0.70210  Biso   1.000  C
  H55      1.0000 0.64140  0.68720  0.35410  Biso   1.000  H
  H56      1.0000 0.35860  0.31280  0.64590  Biso   1.000  H
