data_image0
_cell_length_a       10.092
_cell_length_b       18.555
_cell_length_c       7.153
_cell_angle_alpha    90
_cell_angle_beta     90
_cell_angle_gamma    90

_symmetry_space_group_name_H-M    "P 1"
_symmetry_int_tables_number       1

loop_
  _symmetry_equiv_pos_as_xyz
  'x, y, z'

loop_
  _atom_site_label
  _atom_site_occupancy
  _atom_site_fract_x
  _atom_site_fract_y
  _atom_site_fract_z
  _atom_site_thermal_displace_type
  _atom_site_B_iso_or_equiv
  _atom_site_type_symbol
  Cu1      1.0000 0.08416  0.11587  0.29516  Biso   1.000  Cu
  Cu2      1.0000 0.91584  0.88413  0.79516  Biso   1.000  Cu
  Cu3      1.0000 0.58416  0.38413  0.29516  Biso   1.000  Cu
  Cu4      1.0000 0.41584  0.61587  0.79516  Biso   1.000  Cu
  S1       1.0000 0.82007  0.92701  0.52000  Biso   1.000  S
  S2       1.0000 0.17993  0.07299  0.02000  Biso   1.000  S
  S3       1.0000 0.32007  0.57299  0.52000  Biso   1.000  S
  S4       1.0000 0.67993  0.42701  0.02000  Biso   1.000  S
  C1       1.0000 0.90910  0.99800  0.46080  Biso   1.000  C
  C2       1.0000 0.09090  0.00200  0.96080  Biso   1.000  C
  C3       1.0000 0.40910  0.50200  0.46080  Biso   1.000  C
  C4       1.0000 0.59090  0.49800  0.96080  Biso   1.000  C
  N1       1.0000 0.96970  0.04730  0.41390  Biso   1.000  N
  N2       1.0000 0.03030  0.95270  0.91390  Biso   1.000  N
  N3       1.0000 0.46970  0.45270  0.41390  Biso   1.000  N
  N4       1.0000 0.53030  0.54730  0.91390  Biso   1.000  N
  N5       1.0000 0.21840  0.17830  0.44300  Biso   1.000  N
  N6       1.0000 0.78160  0.82170  0.94300  Biso   1.000  N
  N7       1.0000 0.71840  0.32170  0.44300  Biso   1.000  N
  N8       1.0000 0.28160  0.67830  0.94300  Biso   1.000  N
  C5       1.0000 0.29860  0.15750  0.58190  Biso   1.000  C
  C6       1.0000 0.70140  0.84250  0.08190  Biso   1.000  C
  C7       1.0000 0.79860  0.34250  0.58190  Biso   1.000  C
  C8       1.0000 0.20140  0.65750  0.08190  Biso   1.000  C
  H1       1.0000 0.29790  0.10920  0.61600  Biso   1.000  H
  H2       1.0000 0.70210  0.89080  0.11600  Biso   1.000  H
  H3       1.0000 0.79790  0.39080  0.61600  Biso   1.000  H
  H4       1.0000 0.20210  0.60920  0.11600  Biso   1.000  H
  C9       1.0000 0.38080  0.20260  0.67600  Biso   1.000  C
  C10      1.0000 0.61920  0.79740  0.17600  Biso   1.000  C
  C11      1.0000 0.88080  0.29740  0.67600  Biso   1.000  C
  C12      1.0000 0.11920  0.70260  0.17600  Biso   1.000  C
  H5       1.0000 0.43640  0.18500  0.76910  Biso   1.000  H
  H6       1.0000 0.56360  0.81500  0.26910  Biso   1.000  H
  H7       1.0000 0.93640  0.31500  0.76910  Biso   1.000  H
  H8       1.0000 0.06360  0.68500  0.26910  Biso   1.000  H
  C13      1.0000 0.38050  0.27500  0.63140  Biso   1.000  C
  C14      1.0000 0.61950  0.72500  0.13140  Biso   1.000  C
  C15      1.0000 0.88050  0.22500  0.63140  Biso   1.000  C
  C16      1.0000 0.11950  0.77500  0.13140  Biso   1.000  C
  H9       1.0000 0.43650  0.30690  0.69330  Biso   1.000  H
  H10      1.0000 0.56350  0.69310  0.19330  Biso   1.000  H
  H11      1.0000 0.93650  0.19310  0.69330  Biso   1.000  H
  H12      1.0000 0.06350  0.80690  0.19330  Biso   1.000  H
  C17      1.0000 0.29600  0.29930  0.49350  Biso   1.000  C
  C18      1.0000 0.70400  0.70070  0.99350  Biso   1.000  C
  C19      1.0000 0.79600  0.20070  0.49350  Biso   1.000  C
  C20      1.0000 0.20400  0.79930  0.99350  Biso   1.000  C
  H13      1.0000 0.29140  0.34800  0.46390  Biso   1.000  H
  H14      1.0000 0.70860  0.65200  0.96390  Biso   1.000  H
  H15      1.0000 0.79140  0.15200  0.46390  Biso   1.000  H
  H16      1.0000 0.20860  0.84800  0.96390  Biso   1.000  H
  C21      1.0000 0.21740  0.24910  0.39950  Biso   1.000  C
  C22      1.0000 0.78260  0.75090  0.89950  Biso   1.000  C
  C23      1.0000 0.71740  0.25090  0.39950  Biso   1.000  C
  C24      1.0000 0.28260  0.74910  0.89950  Biso   1.000  C
  C25      1.0000 0.12390  0.27020  0.25000  Biso   1.000  C
  C26      1.0000 0.87610  0.72980  0.75000  Biso   1.000  C
  C27      1.0000 0.62390  0.22980  0.25000  Biso   1.000  C
  C28      1.0000 0.37610  0.77020  0.75000  Biso   1.000  C
  N9       1.0000 0.03610  0.22270  0.20990  Biso   1.000  N
  N10      1.0000 0.96390  0.77730  0.70990  Biso   1.000  N
  N11      1.0000 0.53610  0.27730  0.20990  Biso   1.000  N
  N12      1.0000 0.46390  0.72270  0.70990  Biso   1.000  N
  O1       1.0000 0.95200  0.24260  0.06730  Biso   1.000  O
  O2       1.0000 0.04800  0.75740  0.56730  Biso   1.000  O
  O3       1.0000 0.45200  0.25740  0.06730  Biso   1.000  O
  O4       1.0000 0.54800  0.74260  0.56730  Biso   1.000  O
  C29      1.0000 0.13720  0.34120  0.14990  Biso   1.000  C
  C30      1.0000 0.86280  0.65880  0.64990  Biso   1.000  C
  C31      1.0000 0.63720  0.15880  0.14990  Biso   1.000  C
  C32      1.0000 0.36280  0.84120  0.64990  Biso   1.000  C
  C33      1.0000 0.03220  0.38970  0.13750  Biso   1.000  C
  C34      1.0000 0.96780  0.61030  0.63750  Biso   1.000  C
  C35      1.0000 0.53220  0.11030  0.13750  Biso   1.000  C
  C36      1.0000 0.46780  0.88970  0.63750  Biso   1.000  C
  H17      1.0000 0.95200  0.38000  0.19630  Biso   1.000  H
  H18      1.0000 0.04800  0.62000  0.69630  Biso   1.000  H
  H19      1.0000 0.45200  0.12000  0.19630  Biso   1.000  H
  H20      1.0000 0.54800  0.88000  0.69630  Biso   1.000  H
  C37      1.0000 0.04900  0.45210  0.03720  Biso   1.000  C
  C38      1.0000 0.95100  0.54790  0.53720  Biso   1.000  C
  C39      1.0000 0.54900  0.04790  0.03720  Biso   1.000  C
  C40      1.0000 0.45100  0.95210  0.53720  Biso   1.000  C
  H21      1.0000 0.98020  0.48520  0.02720  Biso   1.000  H
  H22      1.0000 0.01980  0.51480  0.52720  Biso   1.000  H
  H23      1.0000 0.48020  0.01480  0.02720  Biso   1.000  H
  H24      1.0000 0.51980  0.98520  0.52720  Biso   1.000  H
  C41      1.0000 0.16780  0.46510  0.95210  Biso   1.000  C
  C42      1.0000 0.83220  0.53490  0.45210  Biso   1.000  C
  C43      1.0000 0.66780  0.03490  0.95210  Biso   1.000  C
  C44      1.0000 0.33220  0.96510  0.45210  Biso   1.000  C
  H25      1.0000 0.18090  0.50670  0.88210  Biso   1.000  H
  H26      1.0000 0.81910  0.49330  0.38210  Biso   1.000  H
  H27      1.0000 0.68090  0.99330  0.88210  Biso   1.000  H
  H28      1.0000 0.31910  0.00670  0.38210  Biso   1.000  H
  C45      1.0000 0.26860  0.41480  0.97250  Biso   1.000  C
  C46      1.0000 0.73140  0.58520  0.47250  Biso   1.000  C
  C47      1.0000 0.76860  0.08520  0.97250  Biso   1.000  C
  C48      1.0000 0.23140  0.91480  0.47250  Biso   1.000  C
  H29      1.0000 0.35000  0.42390  0.91610  Biso   1.000  H
  H30      1.0000 0.65000  0.57610  0.41610  Biso   1.000  H
  H31      1.0000 0.85000  0.07610  0.91610  Biso   1.000  H
  H32      1.0000 0.15000  0.92390  0.41610  Biso   1.000  H
  N13      1.0000 0.25390  0.35380  0.06950  Biso   1.000  N
  N14      1.0000 0.74610  0.64620  0.56950  Biso   1.000  N
  N15      1.0000 0.75390  0.14620  0.06950  Biso   1.000  N
  N16      1.0000 0.24610  0.85380  0.56950  Biso   1.000  N
  H33      1.0000 0.88540  0.21450  0.06730  Biso   1.000  H
  H34      1.0000 0.11460  0.78550  0.56730  Biso   1.000  H
  H35      1.0000 0.38540  0.28550  0.06730  Biso   1.000  H
  H36      1.0000 0.61460  0.71450  0.56730  Biso   1.000  H
