data_image0
_cell_length_a       9.7119
_cell_length_b       12.2714
_cell_length_c       6.2836
_cell_angle_alpha    90
_cell_angle_beta     90
_cell_angle_gamma    90

_symmetry_space_group_name_H-M    "P 1"
_symmetry_int_tables_number       1

loop_
  _symmetry_equiv_pos_as_xyz
  'x, y, z'

loop_
  _atom_site_label
  _atom_site_occupancy
  _atom_site_fract_x
  _atom_site_fract_y
  _atom_site_fract_z
  _atom_site_thermal_displace_type
  _atom_site_B_iso_or_equiv
  _atom_site_type_symbol
  Cu1      1.0000 0.75000  0.96028  0.35030  Biso   1.000  Cu
  Cu2      1.0000 0.25000  0.03972  0.35030  Biso   1.000  Cu
  Cu3      1.0000 0.75000  0.46028  0.85030  Biso   1.000  Cu
  Cu4      1.0000 0.25000  0.53972  0.85030  Biso   1.000  Cu
  O1       1.0000 0.75000  0.87749  0.72040  Biso   1.000  O
  O2       1.0000 0.25000  0.12251  0.72040  Biso   1.000  O
  O3       1.0000 0.75000  0.37749  0.22040  Biso   1.000  O
  O4       1.0000 0.25000  0.62251  0.22040  Biso   1.000  O
  N1       1.0000 0.94091  0.99411  0.36460  Biso   1.000  N
  N2       1.0000 0.05909  0.00589  0.36460  Biso   1.000  N
  N3       1.0000 0.44091  0.00589  0.36460  Biso   1.000  N
  N4       1.0000 0.55909  0.99411  0.36460  Biso   1.000  N
  N5       1.0000 0.94091  0.49411  0.86460  Biso   1.000  N
  N6       1.0000 0.05909  0.50589  0.86460  Biso   1.000  N
  N7       1.0000 0.44091  0.50589  0.86460  Biso   1.000  N
  N8       1.0000 0.55909  0.49411  0.86460  Biso   1.000  N
  N9       1.0000 0.75000  0.80580  0.15620  Biso   1.000  N
  N10      1.0000 0.25000  0.19420  0.15620  Biso   1.000  N
  N11      1.0000 0.75000  0.30580  0.65620  Biso   1.000  N
  N12      1.0000 0.25000  0.69420  0.65620  Biso   1.000  N
  C1       1.0000 0.87354  0.79835  0.01940  Biso   1.000  C
  C2       1.0000 0.12646  0.20165  0.01940  Biso   1.000  C
  C3       1.0000 0.37354  0.20165  0.01940  Biso   1.000  C
  C4       1.0000 0.62646  0.79835  0.01940  Biso   1.000  C
  C5       1.0000 0.87354  0.29835  0.51940  Biso   1.000  C
  C6       1.0000 0.12646  0.70165  0.51940  Biso   1.000  C
  C7       1.0000 0.37354  0.70165  0.51940  Biso   1.000  C
  C8       1.0000 0.62646  0.29835  0.51940  Biso   1.000  C
  H1       1.0000 0.87670  0.72590  0.95040  Biso   1.000  H
  H2       1.0000 0.12330  0.27410  0.95040  Biso   1.000  H
  H3       1.0000 0.37670  0.27410  0.95040  Biso   1.000  H
  H4       1.0000 0.62330  0.72590  0.95040  Biso   1.000  H
  H5       1.0000 0.87670  0.22590  0.45040  Biso   1.000  H
  H6       1.0000 0.12330  0.77410  0.45040  Biso   1.000  H
  H7       1.0000 0.37670  0.77410  0.45040  Biso   1.000  H
  H8       1.0000 0.62330  0.22590  0.45040  Biso   1.000  H
  H9       1.0000 0.95740  0.80660  0.10750  Biso   1.000  H
  H10      1.0000 0.04260  0.19340  0.10750  Biso   1.000  H
  H11      1.0000 0.45740  0.19340  0.10750  Biso   1.000  H
  H12      1.0000 0.54260  0.80660  0.10750  Biso   1.000  H
  H13      1.0000 0.95740  0.30660  0.60750  Biso   1.000  H
  H14      1.0000 0.04260  0.69340  0.60750  Biso   1.000  H
  H15      1.0000 0.45740  0.69340  0.60750  Biso   1.000  H
  H16      1.0000 0.54260  0.30660  0.60750  Biso   1.000  H
  C9       1.0000 0.87019  0.88712  0.84940  Biso   1.000  C
  C10      1.0000 0.12981  0.11288  0.84940  Biso   1.000  C
  C11      1.0000 0.37019  0.11288  0.84940  Biso   1.000  C
  C12      1.0000 0.62981  0.88712  0.84940  Biso   1.000  C
  C13      1.0000 0.87019  0.38712  0.34940  Biso   1.000  C
  C14      1.0000 0.12981  0.61288  0.34940  Biso   1.000  C
  C15      1.0000 0.37019  0.61288  0.34940  Biso   1.000  C
  C16      1.0000 0.62981  0.38712  0.34940  Biso   1.000  C
  H17      1.0000 0.87130  0.95960  0.91860  Biso   1.000  H
  H18      1.0000 0.12870  0.04040  0.91860  Biso   1.000  H
  H19      1.0000 0.37130  0.04040  0.91860  Biso   1.000  H
  H20      1.0000 0.62870  0.95960  0.91860  Biso   1.000  H
  H21      1.0000 0.87130  0.45960  0.41860  Biso   1.000  H
  H22      1.0000 0.12870  0.54040  0.41860  Biso   1.000  H
  H23      1.0000 0.37130  0.54040  0.41860  Biso   1.000  H
  H24      1.0000 0.62870  0.45960  0.41860  Biso   1.000  H
  H25      1.0000 0.95320  0.88120  0.75870  Biso   1.000  H
  H26      1.0000 0.04680  0.11880  0.75870  Biso   1.000  H
  H27      1.0000 0.45320  0.11880  0.75870  Biso   1.000  H
  H28      1.0000 0.54680  0.88120  0.75870  Biso   1.000  H
  H29      1.0000 0.95320  0.38120  0.25870  Biso   1.000  H
  H30      1.0000 0.04680  0.61880  0.25870  Biso   1.000  H
  H31      1.0000 0.45320  0.61880  0.25870  Biso   1.000  H
  H32      1.0000 0.54680  0.38120  0.25870  Biso   1.000  H
  C17      1.0000 0.75000  0.71490  0.30860  Biso   1.000  C
  C18      1.0000 0.25000  0.28510  0.30860  Biso   1.000  C
  C19      1.0000 0.75000  0.21490  0.80860  Biso   1.000  C
  C20      1.0000 0.25000  0.78510  0.80860  Biso   1.000  C
  H33      1.0000 0.75000  0.64570  0.23080  Biso   1.000  H
  H34      1.0000 0.25000  0.35430  0.23080  Biso   1.000  H
  H35      1.0000 0.75000  0.14570  0.73080  Biso   1.000  H
  H36      1.0000 0.25000  0.85430  0.73080  Biso   1.000  H
  H37      1.0000 0.66760  0.71920  0.39820  Biso   1.000  H
  H38      1.0000 0.33240  0.28080  0.39820  Biso   1.000  H
  H39      1.0000 0.16760  0.28080  0.39820  Biso   1.000  H
  H40      1.0000 0.83240  0.71920  0.39820  Biso   1.000  H
  H41      1.0000 0.66760  0.21920  0.89820  Biso   1.000  H
  H42      1.0000 0.33240  0.78080  0.89820  Biso   1.000  H
  H43      1.0000 0.16760  0.78080  0.89820  Biso   1.000  H
  H44      1.0000 0.83240  0.21920  0.89820  Biso   1.000  H
