data_image0
_cell_length_a       6.3145
_cell_length_b       9.345
_cell_length_c       17.4458
_cell_angle_alpha    90
_cell_angle_beta     90
_cell_angle_gamma    90

_symmetry_space_group_name_H-M    "P 1"
_symmetry_int_tables_number       1

loop_
  _symmetry_equiv_pos_as_xyz
  'x, y, z'

loop_
  _atom_site_label
  _atom_site_occupancy
  _atom_site_fract_x
  _atom_site_fract_y
  _atom_site_fract_z
  _atom_site_thermal_displace_type
  _atom_site_B_iso_or_equiv
  _atom_site_type_symbol
  Cu1      1.0000 0.08021  0.01952  0.78343  Biso   1.000  Cu
  Cu2      1.0000 0.41979  0.98048  0.28343  Biso   1.000  Cu
  Cu3      1.0000 0.91979  0.51952  0.71657  Biso   1.000  Cu
  Cu4      1.0000 0.58021  0.48048  0.21657  Biso   1.000  Cu
  N1       1.0000 0.01150  0.21190  0.76300  Biso   1.000  N
  N2       1.0000 0.48850  0.78810  0.26300  Biso   1.000  N
  N3       1.0000 0.98850  0.71190  0.73700  Biso   1.000  N
  N4       1.0000 0.51150  0.28810  0.23700  Biso   1.000  N
  C1       1.0000 0.98000  0.32897  0.74503  Biso   1.000  C
  C2       1.0000 0.52000  0.67103  0.24503  Biso   1.000  C
  C3       1.0000 0.02000  0.82897  0.75497  Biso   1.000  C
  C4       1.0000 0.48000  0.17103  0.25497  Biso   1.000  C
  N5       1.0000 0.35628  0.01288  0.85899  Biso   1.000  N
  N6       1.0000 0.14372  0.98712  0.35899  Biso   1.000  N
  N7       1.0000 0.64372  0.51288  0.64101  Biso   1.000  N
  N8       1.0000 0.85628  0.48712  0.14101  Biso   1.000  N
  C5       1.0000 0.45620  0.15507  0.85980  Biso   1.000  C
  C6       1.0000 0.04380  0.84493  0.35980  Biso   1.000  C
  C7       1.0000 0.54380  0.65507  0.64020  Biso   1.000  C
  C8       1.0000 0.95620  0.34493  0.14020  Biso   1.000  C
  H1       1.0000 0.58840  0.15080  0.88910  Biso   1.000  H
  H2       1.0000 0.91160  0.84920  0.38910  Biso   1.000  H
  H3       1.0000 0.41160  0.65080  0.61090  Biso   1.000  H
  H4       1.0000 0.08840  0.34920  0.11090  Biso   1.000  H
  H5       1.0000 0.35990  0.22420  0.88370  Biso   1.000  H
  H6       1.0000 0.14010  0.77580  0.38370  Biso   1.000  H
  H7       1.0000 0.64010  0.72420  0.61630  Biso   1.000  H
  H8       1.0000 0.85990  0.27580  0.11630  Biso   1.000  H
  H9       1.0000 0.48690  0.18500  0.80710  Biso   1.000  H
  H10      1.0000 0.01310  0.81500  0.30710  Biso   1.000  H
  H11      1.0000 0.51310  0.68500  0.69290  Biso   1.000  H
  H12      1.0000 0.98690  0.31500  0.19290  Biso   1.000  H
  C9       1.0000 0.50400  0.91020  0.82320  Biso   1.000  C
  C10      1.0000 0.99600  0.08980  0.32320  Biso   1.000  C
  C11      1.0000 0.49600  0.41020  0.67680  Biso   1.000  C
  C12      1.0000 0.00400  0.58980  0.17680  Biso   1.000  C
  H13      1.0000 0.53370  0.94000  0.77040  Biso   1.000  H
  H14      1.0000 0.96630  0.06000  0.27040  Biso   1.000  H
  H15      1.0000 0.46630  0.44000  0.72960  Biso   1.000  H
  H16      1.0000 0.03370  0.56000  0.22960  Biso   1.000  H
  H17      1.0000 0.43990  0.81470  0.82290  Biso   1.000  H
  H18      1.0000 0.06010  0.18530  0.32290  Biso   1.000  H
  H19      1.0000 0.56010  0.31470  0.67710  Biso   1.000  H
  H20      1.0000 0.93990  0.68530  0.17710  Biso   1.000  H
  H21      1.0000 0.63640  0.90770  0.85250  Biso   1.000  H
  H22      1.0000 0.86360  0.09230  0.35250  Biso   1.000  H
  H23      1.0000 0.36360  0.40770  0.64750  Biso   1.000  H
  H24      1.0000 0.13640  0.59230  0.14750  Biso   1.000  H
  C13      1.0000 0.29260  0.96137  0.93692  Biso   1.000  C
  C14      1.0000 0.20740  0.03863  0.43692  Biso   1.000  C
  C15      1.0000 0.70740  0.46137  0.56308  Biso   1.000  C
  C16      1.0000 0.79260  0.53863  0.06308  Biso   1.000  C
  H25      1.0000 0.24990  0.85890  0.93110  Biso   1.000  H
  H26      1.0000 0.25010  0.14110  0.43110  Biso   1.000  H
  H27      1.0000 0.75010  0.35890  0.56890  Biso   1.000  H
  H28      1.0000 0.74990  0.64110  0.06890  Biso   1.000  H
  C17      1.0000 0.09930  0.04148  0.96699  Biso   1.000  C
  C18      1.0000 0.40070  0.95852  0.46699  Biso   1.000  C
  C19      1.0000 0.90070  0.54148  0.53301  Biso   1.000  C
  C20      1.0000 0.59930  0.45852  0.03301  Biso   1.000  C
  H29      1.0000 0.98340  0.03580  0.92890  Biso   1.000  H
  H30      1.0000 0.51660  0.96420  0.42890  Biso   1.000  H
  H31      1.0000 0.01660  0.53580  0.57110  Biso   1.000  H
  H32      1.0000 0.48340  0.46420  0.07110  Biso   1.000  H
  H33      1.0000 0.13540  0.14360  0.97440  Biso   1.000  H
  H34      1.0000 0.36460  0.85640  0.47440  Biso   1.000  H
  H35      1.0000 0.86460  0.64360  0.52560  Biso   1.000  H
  H36      1.0000 0.63540  0.35640  0.02560  Biso   1.000  H
  C21      1.0000 0.02440  0.97727  0.04334  Biso   1.000  C
  C22      1.0000 0.47560  0.02273  0.54334  Biso   1.000  C
  C23      1.0000 0.97560  0.47727  0.45666  Biso   1.000  C
  C24      1.0000 0.52440  0.52273  0.95666  Biso   1.000  C
  H37      1.0000 0.90240  0.03300  0.06280  Biso   1.000  H
  H38      1.0000 0.59760  0.96700  0.56280  Biso   1.000  H
  H39      1.0000 0.09760  0.53300  0.43720  Biso   1.000  H
  H40      1.0000 0.40240  0.46700  0.93720  Biso   1.000  H
  H41      1.0000 0.97670  0.87760  0.03490  Biso   1.000  H
  H42      1.0000 0.52330  0.12240  0.53490  Biso   1.000  H
  H43      1.0000 0.02330  0.37760  0.46510  Biso   1.000  H
  H44      1.0000 0.47670  0.62240  0.96510  Biso   1.000  H
  C25      1.0000 0.20150  0.97852  0.10295  Biso   1.000  C
  C26      1.0000 0.29850  0.02148  0.60295  Biso   1.000  C
  C27      1.0000 0.79850  0.47852  0.39705  Biso   1.000  C
  C28      1.0000 0.70150  0.52148  0.89705  Biso   1.000  C
  H45      1.0000 0.23880  0.07870  0.11560  Biso   1.000  H
  H46      1.0000 0.26120  0.92130  0.61560  Biso   1.000  H
  H47      1.0000 0.76120  0.57870  0.38440  Biso   1.000  H
  H48      1.0000 0.73880  0.42130  0.88440  Biso   1.000  H
  H49      1.0000 0.15170  0.93130  0.15040  Biso   1.000  H
  H50      1.0000 0.34830  0.06870  0.65040  Biso   1.000  H
  H51      1.0000 0.84830  0.43130  0.34960  Biso   1.000  H
  H52      1.0000 0.65170  0.56870  0.84960  Biso   1.000  H
  C29      1.0000 0.39650  0.90125  0.07294  Biso   1.000  C
  C30      1.0000 0.10350  0.09875  0.57294  Biso   1.000  C
  C31      1.0000 0.60350  0.40125  0.42706  Biso   1.000  C
  C32      1.0000 0.89650  0.59875  0.92706  Biso   1.000  C
  H53      1.0000 0.36310  0.79860  0.06570  Biso   1.000  H
  H54      1.0000 0.13690  0.20140  0.56570  Biso   1.000  H
  H55      1.0000 0.63690  0.29860  0.43430  Biso   1.000  H
  H56      1.0000 0.86310  0.70140  0.93430  Biso   1.000  H
  H57      1.0000 0.51190  0.90840  0.11120  Biso   1.000  H
  H58      1.0000 0.98810  0.09160  0.61120  Biso   1.000  H
  H59      1.0000 0.48810  0.40840  0.38880  Biso   1.000  H
  H60      1.0000 0.01190  0.59160  0.88880  Biso   1.000  H
  C33      1.0000 0.47130  0.96518  0.99669  Biso   1.000  C
  C34      1.0000 0.02870  0.03482  0.49669  Biso   1.000  C
  C35      1.0000 0.52870  0.46518  0.50331  Biso   1.000  C
  C36      1.0000 0.97130  0.53482  0.00331  Biso   1.000  C
  H61      1.0000 0.59430  0.91020  0.97740  Biso   1.000  H
  H62      1.0000 0.90570  0.08980  0.47740  Biso   1.000  H
  H63      1.0000 0.40570  0.41020  0.52260  Biso   1.000  H
  H64      1.0000 0.09430  0.58980  0.02260  Biso   1.000  H
  H65      1.0000 0.51710  0.06530  0.00480  Biso   1.000  H
  H66      1.0000 0.98290  0.93470  0.50480  Biso   1.000  H
  H67      1.0000 0.48290  0.56530  0.49520  Biso   1.000  H
  H68      1.0000 0.01710  0.43470  0.99520  Biso   1.000  H
