data_image0
_cell_length_a       10.0593
_cell_length_b       8.7276
_cell_length_c       8.9901
_cell_angle_alpha    90
_cell_angle_beta     108.709
_cell_angle_gamma    90

_symmetry_space_group_name_H-M    "P 1"
_symmetry_int_tables_number       1

loop_
  _symmetry_equiv_pos_as_xyz
  'x, y, z'

loop_
  _atom_site_label
  _atom_site_occupancy
  _atom_site_fract_x
  _atom_site_fract_y
  _atom_site_fract_z
  _atom_site_thermal_displace_type
  _atom_site_B_iso_or_equiv
  _atom_site_type_symbol
  Cu1      1.0000 0.75650  0.12939  0.39095  Biso   1.000  Cu
  Cu2      1.0000 0.24350  0.62939  0.10905  Biso   1.000  Cu
  Cu3      1.0000 0.24350  0.87061  0.60905  Biso   1.000  Cu
  Cu4      1.0000 0.75650  0.37061  0.89095  Biso   1.000  Cu
  N1       1.0000 0.75650  0.20940  0.58920  Biso   1.000  N
  N2       1.0000 0.24350  0.70940  0.91080  Biso   1.000  N
  N3       1.0000 0.24350  0.79060  0.41080  Biso   1.000  N
  N4       1.0000 0.75650  0.29060  0.08920  Biso   1.000  N
  C1       1.0000 0.75470  0.26940  0.70470  Biso   1.000  C
  C2       1.0000 0.24530  0.76940  0.79530  Biso   1.000  C
  C3       1.0000 0.24530  0.73060  0.29530  Biso   1.000  C
  C4       1.0000 0.75470  0.23060  0.20470  Biso   1.000  C
  N5       1.0000 0.77186  0.89600  0.40720  Biso   1.000  N
  N6       1.0000 0.22814  0.39600  0.09280  Biso   1.000  N
  N7       1.0000 0.22814  0.10400  0.59280  Biso   1.000  N
  N8       1.0000 0.77186  0.60400  0.90720  Biso   1.000  N
  C5       1.0000 0.87340  0.83740  0.53180  Biso   1.000  C
  C6       1.0000 0.12660  0.33740  0.96820  Biso   1.000  C
  C7       1.0000 0.12660  0.16260  0.46820  Biso   1.000  C
  C8       1.0000 0.87340  0.66260  0.03180  Biso   1.000  C
  H1       1.0000 0.92980  0.90670  0.60730  Biso   1.000  H
  H2       1.0000 0.07020  0.40670  0.89270  Biso   1.000  H
  H3       1.0000 0.07020  0.09330  0.39270  Biso   1.000  H
  H4       1.0000 0.92980  0.59330  0.10730  Biso   1.000  H
  C9       1.0000 0.89990  0.68370  0.55550  Biso   1.000  C
  C10      1.0000 0.10010  0.18370  0.94450  Biso   1.000  C
  C11      1.0000 0.10010  0.31630  0.44450  Biso   1.000  C
  C12      1.0000 0.89990  0.81630  0.05550  Biso   1.000  C
  H5       1.0000 0.97130  0.64750  0.64590  Biso   1.000  H
  H6       1.0000 0.02870  0.14750  0.85410  Biso   1.000  H
  H7       1.0000 0.02870  0.35250  0.35410  Biso   1.000  H
  H8       1.0000 0.97130  0.85250  0.14590  Biso   1.000  H
  C13      1.0000 0.81880  0.58200  0.44280  Biso   1.000  C
  C14      1.0000 0.18120  0.08200  0.05720  Biso   1.000  C
  C15      1.0000 0.18120  0.41800  0.55720  Biso   1.000  C
  C16      1.0000 0.81880  0.91800  0.94280  Biso   1.000  C
  H9       1.0000 0.83420  0.47470  0.45450  Biso   1.000  H
  H10      1.0000 0.16580  0.97470  0.04550  Biso   1.000  H
  H11      1.0000 0.16580  0.52530  0.54550  Biso   1.000  H
  H12      1.0000 0.83420  0.02530  0.95450  Biso   1.000  H
  C17      1.0000 0.71650  0.64000  0.31500  Biso   1.000  C
  C18      1.0000 0.28350  0.14000  0.18500  Biso   1.000  C
  C19      1.0000 0.28350  0.36000  0.68500  Biso   1.000  C
  C20      1.0000 0.71650  0.86000  0.81500  Biso   1.000  C
  H13      1.0000 0.66130  0.57230  0.23670  Biso   1.000  H
  H14      1.0000 0.33870  0.07230  0.26330  Biso   1.000  H
  H15      1.0000 0.33870  0.42770  0.76330  Biso   1.000  H
  H16      1.0000 0.66130  0.92770  0.73670  Biso   1.000  H
  C21      1.0000 0.69280  0.79730  0.29900  Biso   1.000  C
  C22      1.0000 0.30720  0.29730  0.20100  Biso   1.000  C
  C23      1.0000 0.30720  0.20270  0.70100  Biso   1.000  C
  C24      1.0000 0.69280  0.70270  0.79900  Biso   1.000  C
  C25      1.0000 0.57890  0.86240  0.16350  Biso   1.000  C
  C26      1.0000 0.42110  0.36240  0.33650  Biso   1.000  C
  C27      1.0000 0.42110  0.13760  0.83650  Biso   1.000  C
  C28      1.0000 0.57890  0.63760  0.66350  Biso   1.000  C
  H17      1.0000 0.49500  0.87940  0.19410  Biso   1.000  H
  H18      1.0000 0.50500  0.37940  0.30590  Biso   1.000  H
  H19      1.0000 0.50500  0.12060  0.80590  Biso   1.000  H
  H20      1.0000 0.49500  0.62060  0.69410  Biso   1.000  H
  H21      1.0000 0.55690  0.79070  0.07510  Biso   1.000  H
  H22      1.0000 0.44310  0.29070  0.42490  Biso   1.000  H
  H23      1.0000 0.44310  0.20930  0.92490  Biso   1.000  H
  H24      1.0000 0.55690  0.70930  0.57510  Biso   1.000  H
  H25      1.0000 0.61010  0.96010  0.13220  Biso   1.000  H
  H26      1.0000 0.38990  0.46010  0.36780  Biso   1.000  H
  H27      1.0000 0.38990  0.03990  0.86780  Biso   1.000  H
  H28      1.0000 0.61010  0.53990  0.63220  Biso   1.000  H
