data_image0
_cell_length_a       8.6557
_cell_length_b       16.552
_cell_length_c       17.2948
_cell_angle_alpha    90
_cell_angle_beta     90
_cell_angle_gamma    90

_symmetry_space_group_name_H-M    "P 1"
_symmetry_int_tables_number       1

loop_
  _symmetry_equiv_pos_as_xyz
  'x, y, z'

loop_
  _atom_site_label
  _atom_site_occupancy
  _atom_site_fract_x
  _atom_site_fract_y
  _atom_site_fract_z
  _atom_site_thermal_displace_type
  _atom_site_B_iso_or_equiv
  _atom_site_type_symbol
  Cu1      1.0000 0.18042  0.06157  0.98196  Biso   1.000  Cu
  Cu2      1.0000 0.31958  0.93843  0.48196  Biso   1.000  Cu
  Cu3      1.0000 0.81958  0.56157  0.51804  Biso   1.000  Cu
  Cu4      1.0000 0.68042  0.43843  0.01804  Biso   1.000  Cu
  Cu5      1.0000 0.05826  0.07403  0.26384  Biso   1.000  Cu
  Cu6      1.0000 0.44174  0.92597  0.76384  Biso   1.000  Cu
  Cu7      1.0000 0.94174  0.57403  0.23616  Biso   1.000  Cu
  Cu8      1.0000 0.55826  0.42597  0.73616  Biso   1.000  Cu
  C1       1.0000 0.14400  0.06440  0.08858  Biso   1.000  C
  C2       1.0000 0.35600  0.93560  0.58858  Biso   1.000  C
  C3       1.0000 0.85600  0.56440  0.41142  Biso   1.000  C
  C4       1.0000 0.64400  0.43560  0.91142  Biso   1.000  C
  N1       1.0000 0.12319  0.06960  0.15463  Biso   1.000  N
  N2       1.0000 0.37681  0.93040  0.65463  Biso   1.000  N
  N3       1.0000 0.87681  0.56960  0.34537  Biso   1.000  N
  N4       1.0000 0.62319  0.43040  0.84537  Biso   1.000  N
  C5       1.0000 0.78410  0.32890  0.46960  Biso   1.000  C
  C6       1.0000 0.71590  0.67110  0.96960  Biso   1.000  C
  C7       1.0000 0.21590  0.82890  0.03040  Biso   1.000  C
  C8       1.0000 0.28410  0.17110  0.53040  Biso   1.000  C
  H1       1.0000 0.77010  0.34350  0.52400  Biso   1.000  H
  H2       1.0000 0.72990  0.65650  0.02400  Biso   1.000  H
  H3       1.0000 0.22990  0.84350  0.97600  Biso   1.000  H
  H4       1.0000 0.27010  0.15650  0.47600  Biso   1.000  H
  H5       1.0000 0.74930  0.27320  0.46140  Biso   1.000  H
  H6       1.0000 0.75070  0.72680  0.96140  Biso   1.000  H
  H7       1.0000 0.25070  0.77320  0.03860  Biso   1.000  H
  H8       1.0000 0.24930  0.22680  0.53860  Biso   1.000  H
  H9       1.0000 0.72340  0.36550  0.43700  Biso   1.000  H
  H10      1.0000 0.77660  0.63450  0.93700  Biso   1.000  H
  H11      1.0000 0.27660  0.86550  0.06300  Biso   1.000  H
  H12      1.0000 0.22340  0.13450  0.56300  Biso   1.000  H
  C9       1.0000 0.60080  0.93440  0.04270  Biso   1.000  C
  C10      1.0000 0.89920  0.06560  0.54270  Biso   1.000  C
  C11      1.0000 0.39920  0.43440  0.45730  Biso   1.000  C
  C12      1.0000 0.10080  0.56560  0.95730  Biso   1.000  C
  H13      1.0000 0.69830  0.91560  0.06530  Biso   1.000  H
  H14      1.0000 0.80170  0.08440  0.56530  Biso   1.000  H
  H15      1.0000 0.30170  0.41560  0.43470  Biso   1.000  H
  H16      1.0000 0.19830  0.58440  0.93470  Biso   1.000  H
  H17      1.0000 0.61560  0.94500  0.98750  Biso   1.000  H
  H18      1.0000 0.88440  0.05500  0.48750  Biso   1.000  H
  H19      1.0000 0.38440  0.44500  0.51250  Biso   1.000  H
  H20      1.0000 0.11560  0.55500  0.01250  Biso   1.000  H
  H21      1.0000 0.52140  0.89270  0.04940  Biso   1.000  H
  H22      1.0000 0.97860  0.10730  0.54940  Biso   1.000  H
  H23      1.0000 0.47860  0.39270  0.45060  Biso   1.000  H
  H24      1.0000 0.02140  0.60730  0.95060  Biso   1.000  H
  C13      1.0000 0.15430  0.02370  0.34943  Biso   1.000  C
  C14      1.0000 0.34570  0.97630  0.84943  Biso   1.000  C
  C15      1.0000 0.84570  0.52370  0.15057  Biso   1.000  C
  C16      1.0000 0.65430  0.47630  0.65057  Biso   1.000  C
  N5       1.0000 0.21415  0.99269  0.40130  Biso   1.000  N
  N6       1.0000 0.28585  0.00731  0.90130  Biso   1.000  N
  N7       1.0000 0.78585  0.49269  0.09870  Biso   1.000  N
  N8       1.0000 0.71415  0.50731  0.59870  Biso   1.000  N
  N9       1.0000 0.06920  0.15791  0.92667  Biso   1.000  N
  N10      1.0000 0.43080  0.84209  0.42667  Biso   1.000  N
  N11      1.0000 0.93080  0.65791  0.57333  Biso   1.000  N
  N12      1.0000 0.56920  0.34209  0.07333  Biso   1.000  N
  N13      1.0000 0.02411  0.19836  0.28125  Biso   1.000  N
  N14      1.0000 0.47589  0.80164  0.78125  Biso   1.000  N
  N15      1.0000 0.97589  0.69836  0.21875  Biso   1.000  N
  N16      1.0000 0.52411  0.30164  0.71875  Biso   1.000  N
  N17      1.0000 0.82417  0.03949  0.24902  Biso   1.000  N
  N18      1.0000 0.67583  0.96051  0.74902  Biso   1.000  N
  N19      1.0000 0.17583  0.53949  0.25098  Biso   1.000  N
  N20      1.0000 0.32417  0.46051  0.75098  Biso   1.000  N
  C17      1.0000 0.96090  0.20133  0.96358  Biso   1.000  C
  C18      1.0000 0.53910  0.79867  0.46358  Biso   1.000  C
  C19      1.0000 0.03910  0.70133  0.53642  Biso   1.000  C
  C20      1.0000 0.46090  0.29867  0.03642  Biso   1.000  C
  H25      1.0000 0.93700  0.18850  0.01570  Biso   1.000  H
  H26      1.0000 0.56300  0.81150  0.51570  Biso   1.000  H
  H27      1.0000 0.06300  0.68850  0.48430  Biso   1.000  H
  H28      1.0000 0.43700  0.31150  0.98430  Biso   1.000  H
  C21      1.0000 0.88340  0.26398  0.92818  Biso   1.000  C
  C22      1.0000 0.61660  0.73602  0.42818  Biso   1.000  C
  C23      1.0000 0.11660  0.76398  0.57182  Biso   1.000  C
  C24      1.0000 0.38340  0.23602  0.07182  Biso   1.000  C
  H29      1.0000 0.80680  0.29340  0.95570  Biso   1.000  H
  H30      1.0000 0.69320  0.70660  0.45570  Biso   1.000  H
  H31      1.0000 0.19320  0.79340  0.54430  Biso   1.000  H
  H32      1.0000 0.30680  0.20660  0.04430  Biso   1.000  H
  C25      1.0000 0.91760  0.28369  0.85247  Biso   1.000  C
  C26      1.0000 0.58240  0.71631  0.35247  Biso   1.000  C
  C27      1.0000 0.08240  0.78369  0.64753  Biso   1.000  C
  C28      1.0000 0.41760  0.21631  0.14753  Biso   1.000  C
  H33      1.0000 0.86540  0.32700  0.82760  Biso   1.000  H
  H34      1.0000 0.63460  0.67300  0.32760  Biso   1.000  H
  H35      1.0000 0.13460  0.82700  0.67240  Biso   1.000  H
  H36      1.0000 0.36540  0.17300  0.17240  Biso   1.000  H
  C29      1.0000 0.02900  0.23958  0.81327  Biso   1.000  C
  C30      1.0000 0.47100  0.76042  0.31327  Biso   1.000  C
  C31      1.0000 0.97100  0.73958  0.68673  Biso   1.000  C
  C32      1.0000 0.52900  0.26042  0.18673  Biso   1.000  C
  C33      1.0000 0.10080  0.17716  0.85299  Biso   1.000  C
  C34      1.0000 0.39920  0.82284  0.35299  Biso   1.000  C
  C35      1.0000 0.89920  0.67716  0.64701  Biso   1.000  C
  C36      1.0000 0.60080  0.32284  0.14701  Biso   1.000  C
  H37      1.0000 0.17660  0.14630  0.82650  Biso   1.000  H
  H38      1.0000 0.32340  0.85370  0.32650  Biso   1.000  H
  H39      1.0000 0.82340  0.64630  0.67350  Biso   1.000  H
  H40      1.0000 0.67660  0.35370  0.17350  Biso   1.000  H
  C37      1.0000 0.07190  0.25732  0.73041  Biso   1.000  C
  C38      1.0000 0.42810  0.74268  0.23041  Biso   1.000  C
  C39      1.0000 0.92810  0.75732  0.76959  Biso   1.000  C
  C40      1.0000 0.57190  0.24268  0.26959  Biso   1.000  C
  H41      1.0000 0.12320  0.31070  0.72790  Biso   1.000  H
  H42      1.0000 0.37680  0.68930  0.22790  Biso   1.000  H
  H43      1.0000 0.87680  0.81070  0.77210  Biso   1.000  H
  H44      1.0000 0.62320  0.18930  0.27210  Biso   1.000  H
  H45      1.0000 0.14690  0.21620  0.71240  Biso   1.000  H
  H46      1.0000 0.35310  0.78380  0.21240  Biso   1.000  H
  H47      1.0000 0.85310  0.71620  0.78760  Biso   1.000  H
  H48      1.0000 0.64690  0.28380  0.28760  Biso   1.000  H
  C41      1.0000 0.93430  0.25740  0.67700  Biso   1.000  C
  C42      1.0000 0.56570  0.74260  0.17700  Biso   1.000  C
  C43      1.0000 0.06570  0.75740  0.82300  Biso   1.000  C
  C44      1.0000 0.43430  0.24260  0.32300  Biso   1.000  C
  H49      1.0000 0.88930  0.20310  0.67510  Biso   1.000  H
  H50      1.0000 0.61070  0.79690  0.17510  Biso   1.000  H
  H51      1.0000 0.11070  0.70310  0.82490  Biso   1.000  H
  H52      1.0000 0.38930  0.29690  0.32490  Biso   1.000  H
  H53      1.0000 0.96720  0.27340  0.62500  Biso   1.000  H
  H54      1.0000 0.53280  0.72660  0.12500  Biso   1.000  H
  H55      1.0000 0.03280  0.77340  0.87500  Biso   1.000  H
  H56      1.0000 0.46720  0.22660  0.37500  Biso   1.000  H
  H57      1.0000 0.85700  0.29570  0.69610  Biso   1.000  H
  H58      1.0000 0.64300  0.70430  0.19610  Biso   1.000  H
  H59      1.0000 0.14300  0.79570  0.80390  Biso   1.000  H
  H60      1.0000 0.35700  0.20430  0.30390  Biso   1.000  H
  C45      1.0000 0.02590  0.25165  0.22238  Biso   1.000  C
  C46      1.0000 0.47410  0.74835  0.72238  Biso   1.000  C
  C47      1.0000 0.97410  0.75165  0.27762  Biso   1.000  C
  C48      1.0000 0.52590  0.24835  0.77762  Biso   1.000  C
  H61      1.0000 0.04480  0.23240  0.17150  Biso   1.000  H
  H62      1.0000 0.45520  0.76760  0.67150  Biso   1.000  H
  H63      1.0000 0.95520  0.73240  0.32850  Biso   1.000  H
  H64      1.0000 0.54480  0.26760  0.82850  Biso   1.000  H
  C49      1.0000 0.00120  0.33329  0.23329  Biso   1.000  C
  C50      1.0000 0.49880  0.66671  0.73329  Biso   1.000  C
  C51      1.0000 0.99880  0.83329  0.26671  Biso   1.000  C
  C52      1.0000 0.50120  0.16671  0.76671  Biso   1.000  C
  H65      1.0000 0.00350  0.36940  0.19060  Biso   1.000  H
  H66      1.0000 0.49650  0.63060  0.69060  Biso   1.000  H
  H67      1.0000 0.99650  0.86940  0.30940  Biso   1.000  H
  H68      1.0000 0.50350  0.13060  0.80940  Biso   1.000  H
  C53      1.0000 0.97300  0.36186  0.30705  Biso   1.000  C
  C54      1.0000 0.52700  0.63814  0.80705  Biso   1.000  C
  C55      1.0000 0.02700  0.86186  0.19295  Biso   1.000  C
  C56      1.0000 0.47300  0.13814  0.69295  Biso   1.000  C
  H69      1.0000 0.95530  0.41780  0.31550  Biso   1.000  H
  H70      1.0000 0.54470  0.58220  0.81550  Biso   1.000  H
  H71      1.0000 0.04470  0.91780  0.18450  Biso   1.000  H
  H72      1.0000 0.45530  0.08220  0.68450  Biso   1.000  H
  C57      1.0000 0.97080  0.30832  0.36873  Biso   1.000  C
  C58      1.0000 0.52920  0.69168  0.86873  Biso   1.000  C
  C59      1.0000 0.02920  0.80832  0.13127  Biso   1.000  C
  C60      1.0000 0.47080  0.19168  0.63127  Biso   1.000  C
  C61      1.0000 0.99720  0.22688  0.35199  Biso   1.000  C
  C62      1.0000 0.50280  0.77312  0.85199  Biso   1.000  C
  C63      1.0000 0.00280  0.72688  0.14801  Biso   1.000  C
  C64      1.0000 0.49720  0.27312  0.64801  Biso   1.000  C
  H73      1.0000 0.99590  0.18950  0.39370  Biso   1.000  H
  H74      1.0000 0.50410  0.81050  0.89370  Biso   1.000  H
  H75      1.0000 0.00410  0.68950  0.10630  Biso   1.000  H
  H76      1.0000 0.49590  0.31050  0.60630  Biso   1.000  H
  C65      1.0000 0.93790  0.33513  0.45033  Biso   1.000  C
  C66      1.0000 0.56210  0.66487  0.95033  Biso   1.000  C
  C67      1.0000 0.06210  0.83513  0.04967  Biso   1.000  C
  C68      1.0000 0.43790  0.16487  0.54967  Biso   1.000  C
  H77      1.0000 0.99940  0.30180  0.48650  Biso   1.000  H
  H78      1.0000 0.50060  0.69820  0.98650  Biso   1.000  H
  H79      1.0000 0.00060  0.80180  0.01350  Biso   1.000  H
  H80      1.0000 0.49940  0.19820  0.51350  Biso   1.000  H
  H81      1.0000 0.97110  0.39200  0.45650  Biso   1.000  H
  H82      1.0000 0.52890  0.60800  0.95650  Biso   1.000  H
  H83      1.0000 0.02890  0.89200  0.04350  Biso   1.000  H
  H84      1.0000 0.47110  0.10800  0.54350  Biso   1.000  H
  C69      1.0000 0.73080  0.02658  0.30901  Biso   1.000  C
  C70      1.0000 0.76920  0.97342  0.80901  Biso   1.000  C
  C71      1.0000 0.26920  0.52658  0.19099  Biso   1.000  C
  C72      1.0000 0.23080  0.47342  0.69099  Biso   1.000  C
  H85      1.0000 0.77250  0.02940  0.35970  Biso   1.000  H
  H86      1.0000 0.72750  0.97060  0.85970  Biso   1.000  H
  H87      1.0000 0.22750  0.52940  0.14030  Biso   1.000  H
  H88      1.0000 0.27250  0.47060  0.64030  Biso   1.000  H
  C73      1.0000 0.57460  0.00919  0.30020  Biso   1.000  C
  C74      1.0000 0.92540  0.99081  0.80020  Biso   1.000  C
  C75      1.0000 0.42540  0.50919  0.19980  Biso   1.000  C
  C76      1.0000 0.07460  0.49081  0.69980  Biso   1.000  C
  H89      1.0000 0.51040  0.00130  0.34410  Biso   1.000  H
  H90      1.0000 0.98960  0.99870  0.84410  Biso   1.000  H
  H91      1.0000 0.48960  0.50130  0.15590  Biso   1.000  H
  H92      1.0000 0.01040  0.49870  0.65590  Biso   1.000  H
  C77      1.0000 0.51470  0.00353  0.22655  Biso   1.000  C
  C78      1.0000 0.98530  0.99647  0.72655  Biso   1.000  C
  C79      1.0000 0.48530  0.50353  0.27345  Biso   1.000  C
  C80      1.0000 0.01470  0.49647  0.77345  Biso   1.000  C
  H93      1.0000 0.40820  0.99170  0.21930  Biso   1.000  H
  H94      1.0000 0.09180  0.00830  0.71930  Biso   1.000  H
  H95      1.0000 0.59180  0.49170  0.28070  Biso   1.000  H
  H96      1.0000 0.90820  0.50830  0.78070  Biso   1.000  H
  C81      1.0000 0.60950  0.01502  0.16329  Biso   1.000  C
  C82      1.0000 0.89050  0.98498  0.66329  Biso   1.000  C
  C83      1.0000 0.39050  0.51502  0.33671  Biso   1.000  C
  C84      1.0000 0.10950  0.48498  0.83671  Biso   1.000  C
  C85      1.0000 0.76300  0.03373  0.17815  Biso   1.000  C
  C86      1.0000 0.73700  0.96627  0.67815  Biso   1.000  C
  C87      1.0000 0.23700  0.53373  0.32185  Biso   1.000  C
  C88      1.0000 0.26300  0.46627  0.82185  Biso   1.000  C
  H97      1.0000 0.82900  0.04310  0.13520  Biso   1.000  H
  H98      1.0000 0.67100  0.95690  0.63520  Biso   1.000  H
  H99      1.0000 0.17100  0.54310  0.36480  Biso   1.000  H
  H100     1.0000 0.32900  0.45690  0.86480  Biso   1.000  H
  C89      1.0000 0.55270  0.00733  0.08086  Biso   1.000  C
  C90      1.0000 0.94730  0.99267  0.58086  Biso   1.000  C
  C91      1.0000 0.44730  0.50733  0.41914  Biso   1.000  C
  C92      1.0000 0.05270  0.49267  0.91914  Biso   1.000  C
  H101     1.0000 0.43840  0.00960  0.08090  Biso   1.000  H
  H102     1.0000 0.06160  0.99040  0.58090  Biso   1.000  H
  H103     1.0000 0.56160  0.50960  0.41910  Biso   1.000  H
  H104     1.0000 0.93840  0.49040  0.91910  Biso   1.000  H
  H105     1.0000 0.59080  0.05420  0.05080  Biso   1.000  H
  H106     1.0000 0.90920  0.94580  0.55080  Biso   1.000  H
  H107     1.0000 0.40920  0.55420  0.44920  Biso   1.000  H
  H108     1.0000 0.09080  0.44580  0.94920  Biso   1.000  H
  C93      1.0000 0.06780  0.37150  0.49110  Biso   1.000  C
  C94      1.0000 0.43220  0.62850  0.99110  Biso   1.000  C
  C95      1.0000 0.93220  0.87150  0.00890  Biso   1.000  C
  C96      1.0000 0.56780  0.12850  0.50890  Biso   1.000  C
  C97      1.0000 0.63750  0.06420  0.01920  Biso   1.000  C
  C98      1.0000 0.86250  0.93580  0.51920  Biso   1.000  C
  C99      1.0000 0.36250  0.56420  0.48080  Biso   1.000  C
  C100     1.0000 0.13750  0.43580  0.98080  Biso   1.000  C
  H109     1.0000 0.09690  0.42210  0.46560  Biso   1.000  H
  H110     1.0000 0.40310  0.57790  0.96560  Biso   1.000  H
  H111     1.0000 0.90310  0.92210  0.03440  Biso   1.000  H
  H112     1.0000 0.59690  0.07790  0.53440  Biso   1.000  H
  H113     1.0000 0.15580  0.33420  0.49040  Biso   1.000  H
  H114     1.0000 0.34420  0.66580  0.99040  Biso   1.000  H
  H115     1.0000 0.84420  0.83420  0.00960  Biso   1.000  H
  H116     1.0000 0.65580  0.16580  0.50960  Biso   1.000  H
  H117     1.0000 0.03820  0.38250  0.54480  Biso   1.000  H
  H118     1.0000 0.46180  0.61750  0.04480  Biso   1.000  H
  H119     1.0000 0.96180  0.88250  0.95520  Biso   1.000  H
  H120     1.0000 0.53820  0.11750  0.45520  Biso   1.000  H
  H121     1.0000 0.74180  0.04370  0.00950  Biso   1.000  H
  H122     1.0000 0.75820  0.95630  0.50950  Biso   1.000  H
  H123     1.0000 0.25820  0.54370  0.49050  Biso   1.000  H
  H124     1.0000 0.24180  0.45630  0.99050  Biso   1.000  H
  H125     1.0000 0.64380  0.11930  0.03970  Biso   1.000  H
  H126     1.0000 0.85620  0.88070  0.53970  Biso   1.000  H
  H127     1.0000 0.35620  0.61930  0.46030  Biso   1.000  H
  H128     1.0000 0.14380  0.38070  0.96030  Biso   1.000  H
  H129     1.0000 0.57860  0.06450  0.97080  Biso   1.000  H
  H130     1.0000 0.92140  0.93550  0.47080  Biso   1.000  H
  H131     1.0000 0.42140  0.56450  0.52920  Biso   1.000  H
  H132     1.0000 0.07860  0.43550  0.02920  Biso   1.000  H
