data_image0
_cell_length_a       13.031
_cell_length_b       13.031
_cell_length_c       20.0681
_cell_angle_alpha    90
_cell_angle_beta     90
_cell_angle_gamma    120

_symmetry_space_group_name_H-M    "P 1"
_symmetry_int_tables_number       1

loop_
  _symmetry_equiv_pos_as_xyz
  'x, y, z'

loop_
  _atom_site_label
  _atom_site_occupancy
  _atom_site_fract_x
  _atom_site_fract_y
  _atom_site_fract_z
  _atom_site_thermal_displace_type
  _atom_site_B_iso_or_equiv
  _atom_site_type_symbol
  Cu1      1.0000 0.55389  0.00000  0.16670  Biso   1.000  Cu
  Cu2      1.0000 1.00000  0.55389  0.83337  Biso   1.000  Cu
  Cu3      1.0000 0.44611  0.44611  0.50003  Biso   1.000  Cu
  Cu4      1.0000 0.05867  0.00000  0.16670  Biso   1.000  Cu
  Cu5      1.0000 0.00000  0.05867  0.83337  Biso   1.000  Cu
  Cu6      1.0000 0.94133  0.94133  0.50003  Biso   1.000  Cu
  F1       1.0000 0.68770  0.39860  0.13078  Biso   1.000  F
  F2       1.0000 0.60140  0.28910  0.79745  Biso   1.000  F
  F3       1.0000 0.39860  0.68770  0.86922  Biso   1.000  F
  F4       1.0000 0.71090  0.31230  0.46411  Biso   1.000  F
  F5       1.0000 0.31230  0.71090  0.53589  Biso   1.000  F
  F6       1.0000 0.28910  0.60140  0.20255  Biso   1.000  F
  F7       1.0000 0.33320  0.39130  0.06996  Biso   1.000  F
  F8       1.0000 0.60870  0.94190  0.73663  Biso   1.000  F
  F9       1.0000 0.39130  0.33320  0.93004  Biso   1.000  F
  F10      1.0000 0.05810  0.66680  0.40329  Biso   1.000  F
  F11      1.0000 0.66680  0.05810  0.59671  Biso   1.000  F
  F12      1.0000 0.94190  0.60870  0.26337  Biso   1.000  F
  F13      1.0000 0.45060  0.62410  0.06168  Biso   1.000  F
  F14      1.0000 0.37590  0.82650  0.72835  Biso   1.000  F
  F15      1.0000 0.62410  0.45060  0.93832  Biso   1.000  F
  F16      1.0000 0.17350  0.54940  0.39501  Biso   1.000  F
  F17      1.0000 0.54940  0.17350  0.60499  Biso   1.000  F
  F18      1.0000 0.82650  0.37590  0.27165  Biso   1.000  F
  F19      1.0000 0.80350  0.63060  0.12411  Biso   1.000  F
  F20      1.0000 0.36940  0.17290  0.79078  Biso   1.000  F
  F21      1.0000 0.63060  0.80350  0.87589  Biso   1.000  F
  F22      1.0000 0.82710  0.19650  0.45744  Biso   1.000  F
  F23      1.0000 0.19650  0.82710  0.54256  Biso   1.000  F
  F24      1.0000 0.17290  0.36940  0.20922  Biso   1.000  F
  C1       1.0000 0.45090  0.44790  0.08460  Biso   1.000  C
  C2       1.0000 0.55210  0.00300  0.75127  Biso   1.000  C
  C3       1.0000 0.44790  0.45090  0.91540  Biso   1.000  C
  C4       1.0000 0.99700  0.54910  0.41793  Biso   1.000  C
  C5       1.0000 0.54910  0.99700  0.58207  Biso   1.000  C
  C6       1.0000 0.00300  0.55210  0.24873  Biso   1.000  C
  C7       1.0000 0.63340  0.64060  0.09428  Biso   1.000  C
  C8       1.0000 0.35940  0.99280  0.76095  Biso   1.000  C
  C9       1.0000 0.64060  0.63340  0.90572  Biso   1.000  C
  C10      1.0000 0.00720  0.36660  0.42761  Biso   1.000  C
  C11      1.0000 0.36660  0.00720  0.57239  Biso   1.000  C
  C12      1.0000 0.99280  0.35940  0.23905  Biso   1.000  C
  N1       1.0000 0.59040  0.89150  0.11336  Biso   1.000  N
  N2       1.0000 0.10850  0.69890  0.78003  Biso   1.000  N
  N3       1.0000 0.89150  0.59040  0.88664  Biso   1.000  N
  N4       1.0000 0.30110  0.40960  0.44669  Biso   1.000  N
  N5       1.0000 0.40960  0.30110  0.55331  Biso   1.000  N
  N6       1.0000 0.69890  0.10850  0.21997  Biso   1.000  N
  C13      1.0000 0.50410  0.38230  0.10230  Biso   1.000  C
  C14      1.0000 0.61770  0.12180  0.76897  Biso   1.000  C
  C15      1.0000 0.38230  0.50410  0.89770  Biso   1.000  C
  C16      1.0000 0.87820  0.49590  0.43563  Biso   1.000  C
  C17      1.0000 0.49590  0.87820  0.56437  Biso   1.000  C
  C18      1.0000 0.12180  0.61770  0.23103  Biso   1.000  C
  C19      1.0000 0.51170  0.57010  0.08040  Biso   1.000  C
  C20      1.0000 0.42990  0.94160  0.74707  Biso   1.000  C
  C21      1.0000 0.57010  0.51170  0.91960  Biso   1.000  C
  C22      1.0000 0.05840  0.48830  0.41373  Biso   1.000  C
  C23      1.0000 0.48830  0.05840  0.58627  Biso   1.000  C
  C24      1.0000 0.94160  0.42990  0.25293  Biso   1.000  C
  C25      1.0000 0.63210  0.83250  0.10470  Biso   1.000  C
  C26      1.0000 0.16750  0.79960  0.77137  Biso   1.000  C
  C27      1.0000 0.83250  0.63210  0.89530  Biso   1.000  C
  C28      1.0000 0.20040  0.36790  0.43803  Biso   1.000  C
  C29      1.0000 0.36790  0.20040  0.56197  Biso   1.000  C
  C30      1.0000 0.79960  0.16750  0.22863  Biso   1.000  C
  C31      1.0000 0.81730  0.84410  0.10040  Biso   1.000  C
  C32      1.0000 0.15590  0.97320  0.76707  Biso   1.000  C
  C33      1.0000 0.84410  0.81730  0.89960  Biso   1.000  C
  C34      1.0000 0.02680  0.18270  0.43373  Biso   1.000  C
  C35      1.0000 0.18270  0.02680  0.56627  Biso   1.000  C
  C36      1.0000 0.97320  0.15590  0.23293  Biso   1.000  C
  N7       1.0000 0.52030  0.11390  0.11494  Biso   1.000  N
  N8       1.0000 0.88610  0.40640  0.78161  Biso   1.000  N
  N9       1.0000 0.11390  0.52030  0.88506  Biso   1.000  N
  N10      1.0000 0.59360  0.47970  0.44827  Biso   1.000  N
  N11      1.0000 0.47970  0.59360  0.55173  Biso   1.000  N
  N12      1.0000 0.40640  0.88610  0.21839  Biso   1.000  N
  C37      1.0000 0.62480  0.45190  0.11340  Biso   1.000  C
  C38      1.0000 0.54810  0.17290  0.78007  Biso   1.000  C
  C39      1.0000 0.45190  0.62480  0.88660  Biso   1.000  C
  C40      1.0000 0.82710  0.37520  0.44673  Biso   1.000  C
  C41      1.0000 0.37520  0.82710  0.55327  Biso   1.000  C
  C42      1.0000 0.17290  0.54810  0.21993  Biso   1.000  C
  C43      1.0000 0.43830  0.25400  0.10950  Biso   1.000  C
  C44      1.0000 0.74600  0.18430  0.77617  Biso   1.000  C
  C45      1.0000 0.25400  0.43830  0.89050  Biso   1.000  C
  C46      1.0000 0.81570  0.56170  0.44283  Biso   1.000  C
  C47      1.0000 0.56170  0.81570  0.55717  Biso   1.000  C
  C48      1.0000 0.18430  0.74600  0.22383  Biso   1.000  C
  N13      1.0000 0.21440  0.12610  0.13101  Biso   1.000  N
  N14      1.0000 0.87390  0.08830  0.79768  Biso   1.000  N
  N15      1.0000 0.12610  0.21440  0.86899  Biso   1.000  N
  N16      1.0000 0.91170  0.78560  0.46434  Biso   1.000  N
  N17      1.0000 0.78560  0.91170  0.53566  Biso   1.000  N
  N18      1.0000 0.08830  0.87390  0.20232  Biso   1.000  N
  N19      1.0000 0.91660  0.91180  0.10534  Biso   1.000  N
  N20      1.0000 0.08820  0.00480  0.77201  Biso   1.000  N
  N21      1.0000 0.91180  0.91660  0.89466  Biso   1.000  N
  N22      1.0000 0.99520  0.08340  0.43867  Biso   1.000  N
  N23      1.0000 0.08340  0.99520  0.56133  Biso   1.000  N
  N24      1.0000 0.00480  0.08820  0.22799  Biso   1.000  N
  C49      1.0000 0.48930  0.18200  0.11240  Biso   1.000  C
  C50      1.0000 0.81800  0.30730  0.77907  Biso   1.000  C
  C51      1.0000 0.18200  0.48930  0.88760  Biso   1.000  C
  C52      1.0000 0.69270  0.51070  0.44573  Biso   1.000  C
  C53      1.0000 0.51070  0.69270  0.55427  Biso   1.000  C
  C54      1.0000 0.30730  0.81800  0.22093  Biso   1.000  C
  C55      1.0000 0.31530  0.18910  0.12130  Biso   1.000  C
  C56      1.0000 0.81090  0.12620  0.78797  Biso   1.000  C
  C57      1.0000 0.18910  0.31530  0.87870  Biso   1.000  C
  C58      1.0000 0.87380  0.68470  0.45463  Biso   1.000  C
  C59      1.0000 0.68470  0.87380  0.54537  Biso   1.000  C
  C60      1.0000 0.12620  0.81090  0.21203  Biso   1.000  C
  C61      1.0000 0.69280  0.77010  0.09520  Biso   1.000  C
  C62      1.0000 0.22990  0.92270  0.76187  Biso   1.000  C
  C63      1.0000 0.77010  0.69280  0.90480  Biso   1.000  C
  C64      1.0000 0.07730  0.30720  0.42853  Biso   1.000  C
  C65      1.0000 0.30720  0.07730  0.57147  Biso   1.000  C
  C66      1.0000 0.92270  0.22990  0.23813  Biso   1.000  C
  C67      1.0000 0.68560  0.57360  0.10970  Biso   1.000  C
  C68      1.0000 0.42640  0.11200  0.77637  Biso   1.000  C
  C69      1.0000 0.57360  0.68560  0.89030  Biso   1.000  C
  C70      1.0000 0.88800  0.31440  0.44303  Biso   1.000  C
  C71      1.0000 0.31440  0.88800  0.55697  Biso   1.000  C
  C72      1.0000 0.11200  0.42640  0.22363  Biso   1.000  C
  N25      1.0000 0.24440  0.86780  0.98806  Biso   1.000  N
  N26      1.0000 0.13220  0.37660  0.65473  Biso   1.000  N
  N27      1.0000 0.86780  0.24440  0.01194  Biso   1.000  N
  N28      1.0000 0.62340  0.75560  0.32139  Biso   1.000  N
  N29      1.0000 0.75560  0.62340  0.67861  Biso   1.000  N
  N30      1.0000 0.37660  0.13220  0.34527  Biso   1.000  N
  C73      1.0000 0.11540  0.77830  0.97236  Biso   1.000  C
  C74      1.0000 0.22170  0.33710  0.63903  Biso   1.000  C
  C75      1.0000 0.77830  0.11540  0.02764  Biso   1.000  C
  C76      1.0000 0.66290  0.88460  0.30569  Biso   1.000  C
  C77      1.0000 0.88460  0.66290  0.69431  Biso   1.000  C
  C78      1.0000 0.33710  0.22170  0.36097  Biso   1.000  C
  H1       1.0000 0.09140  0.80570  0.93240  Biso   1.000  H
  H2       1.0000 0.19430  0.28570  0.59907  Biso   1.000  H
  H3       1.0000 0.80570  0.09140  0.06760  Biso   1.000  H
  H4       1.0000 0.71430  0.90860  0.26573  Biso   1.000  H
  H5       1.0000 0.90860  0.71430  0.73427  Biso   1.000  H
  H6       1.0000 0.28570  0.19430  0.40093  Biso   1.000  H
  H7       1.0000 0.10960  0.70160  0.96120  Biso   1.000  H
  H8       1.0000 0.29840  0.40800  0.62787  Biso   1.000  H
  H9       1.0000 0.70160  0.10960  0.03880  Biso   1.000  H
  H10      1.0000 0.59200  0.89040  0.29453  Biso   1.000  H
  H11      1.0000 0.89040  0.59200  0.70547  Biso   1.000  H
  H12      1.0000 0.40800  0.29840  0.37213  Biso   1.000  H
  C79      1.0000 0.25780  0.98900  0.00290  Biso   1.000  C
  C80      1.0000 0.01100  0.26880  0.66957  Biso   1.000  C
  C81      1.0000 0.98900  0.25780  0.99710  Biso   1.000  C
  C82      1.0000 0.73120  0.74220  0.33623  Biso   1.000  C
  C83      1.0000 0.74220  0.73120  0.66377  Biso   1.000  C
  C84      1.0000 0.26880  0.01100  0.33043  Biso   1.000  C
  H13      1.0000 0.21230  0.98210  0.04390  Biso   1.000  H
  H14      1.0000 0.01790  0.23020  0.71057  Biso   1.000  H
  H15      1.0000 0.98210  0.21230  0.95610  Biso   1.000  H
  H16      1.0000 0.76980  0.78770  0.37723  Biso   1.000  H
  H17      1.0000 0.78770  0.76980  0.62277  Biso   1.000  H
  H18      1.0000 0.23020  0.01790  0.28943  Biso   1.000  H
  H19      1.0000 0.34230  0.04530  0.01260  Biso   1.000  H
  H20      1.0000 0.95470  0.29700  0.67927  Biso   1.000  H
  H21      1.0000 0.04530  0.34230  0.98740  Biso   1.000  H
  H22      1.0000 0.70300  0.65770  0.34593  Biso   1.000  H
  H23      1.0000 0.65770  0.70300  0.65407  Biso   1.000  H
  H24      1.0000 0.29700  0.95470  0.32073  Biso   1.000  H
  C85      1.0000 0.31530  0.87340  0.92720  Biso   1.000  C
  C86      1.0000 0.12660  0.44190  0.59387  Biso   1.000  C
  C87      1.0000 0.87340  0.31530  0.07280  Biso   1.000  C
  C88      1.0000 0.55810  0.68470  0.26053  Biso   1.000  C
  C89      1.0000 0.68470  0.55810  0.73947  Biso   1.000  C
  C90      1.0000 0.44190  0.12660  0.40613  Biso   1.000  C
  H25      1.0000 0.28610  0.89920  0.88870  Biso   1.000  H
  H26      1.0000 0.10080  0.38690  0.55537  Biso   1.000  H
  H27      1.0000 0.89920  0.28610  0.11130  Biso   1.000  H
  H28      1.0000 0.61310  0.71390  0.22203  Biso   1.000  H
  H29      1.0000 0.71390  0.61310  0.77797  Biso   1.000  H
  H30      1.0000 0.38690  0.10080  0.44463  Biso   1.000  H
  H31      1.0000 0.30030  0.79260  0.91740  Biso   1.000  H
  H32      1.0000 0.20740  0.50770  0.58407  Biso   1.000  H
  H33      1.0000 0.79260  0.30030  0.08260  Biso   1.000  H
  H34      1.0000 0.49230  0.69970  0.25073  Biso   1.000  H
  H35      1.0000 0.69970  0.49230  0.74927  Biso   1.000  H
  H36      1.0000 0.50770  0.20740  0.41593  Biso   1.000  H
  C91      1.0000 0.02930  0.75830  0.02780  Biso   1.000  C
  C92      1.0000 0.24170  0.27100  0.69447  Biso   1.000  C
  C93      1.0000 0.75830  0.02930  0.97220  Biso   1.000  C
  C94      1.0000 0.72900  0.97070  0.36113  Biso   1.000  C
  C95      1.0000 0.97070  0.72900  0.63887  Biso   1.000  C
  C96      1.0000 0.27100  0.24170  0.30553  Biso   1.000  C
  H37      1.0000 0.05160  0.73040  0.06760  Biso   1.000  H
  H38      1.0000 0.26960  0.32120  0.73427  Biso   1.000  H
  H39      1.0000 0.73040  0.05160  0.93240  Biso   1.000  H
  H40      1.0000 0.67880  0.94840  0.40093  Biso   1.000  H
  H41      1.0000 0.94840  0.67880  0.59907  Biso   1.000  H
  H42      1.0000 0.32120  0.26960  0.26573  Biso   1.000  H
  H43      1.0000 0.94920  0.69870  0.01390  Biso   1.000  H
  H44      1.0000 0.30130  0.25050  0.68057  Biso   1.000  H
  H45      1.0000 0.69870  0.94920  0.98610  Biso   1.000  H
  H46      1.0000 0.74950  0.05080  0.34723  Biso   1.000  H
  H47      1.0000 0.05080  0.74950  0.65277  Biso   1.000  H
  H48      1.0000 0.25050  0.30130  0.31943  Biso   1.000  H
  H49      1.0000 0.03120  0.83280  0.03790  Biso   1.000  H
  H50      1.0000 0.16720  0.19840  0.70457  Biso   1.000  H
  H51      1.0000 0.83280  0.03120  0.96210  Biso   1.000  H
  H52      1.0000 0.80160  0.96880  0.37123  Biso   1.000  H
  H53      1.0000 0.96880  0.80160  0.62877  Biso   1.000  H
  H54      1.0000 0.19840  0.16720  0.29543  Biso   1.000  H
  C97      1.0000 0.44790  0.95590  0.93340  Biso   1.000  C
  C98      1.0000 0.04410  0.49200  0.60007  Biso   1.000  C
  C99      1.0000 0.95590  0.44790  0.06660  Biso   1.000  C
  C100     1.0000 0.50800  0.55210  0.26673  Biso   1.000  C
  C101     1.0000 0.55210  0.50800  0.73327  Biso   1.000  C
  C102     1.0000 0.49200  0.04410  0.39993  Biso   1.000  C
  H55      1.0000 0.46420  0.03680  0.94170  Biso   1.000  H
  H56      1.0000 0.96320  0.42740  0.60837  Biso   1.000  H
  H57      1.0000 0.03680  0.46420  0.05830  Biso   1.000  H
  H58      1.0000 0.57260  0.53580  0.27503  Biso   1.000  H
  H59      1.0000 0.53580  0.57260  0.72497  Biso   1.000  H
  H60      1.0000 0.42740  0.96320  0.39163  Biso   1.000  H
  H61      1.0000 0.48680  0.95420  0.89190  Biso   1.000  H
  H62      1.0000 0.04580  0.53260  0.55857  Biso   1.000  H
  H63      1.0000 0.95420  0.48680  0.10810  Biso   1.000  H
  H64      1.0000 0.46740  0.51320  0.22523  Biso   1.000  H
  H65      1.0000 0.51320  0.46740  0.77477  Biso   1.000  H
  H66      1.0000 0.53260  0.04580  0.44143  Biso   1.000  H
  H67      1.0000 0.47840  0.93000  0.97050  Biso   1.000  H
  H68      1.0000 0.07000  0.54840  0.63717  Biso   1.000  H
  H69      1.0000 0.93000  0.47840  0.02950  Biso   1.000  H
  H70      1.0000 0.45160  0.52160  0.30383  Biso   1.000  H
  H71      1.0000 0.52160  0.45160  0.69617  Biso   1.000  H
  H72      1.0000 0.54840  0.07000  0.36283  Biso   1.000  H
  C103     1.0000 0.28530  0.83100  0.04940  Biso   1.000  C
  C104     1.0000 0.16900  0.45430  0.71607  Biso   1.000  C
  C105     1.0000 0.83100  0.28530  0.95060  Biso   1.000  C
  C106     1.0000 0.54570  0.71470  0.38273  Biso   1.000  C
  C107     1.0000 0.71470  0.54570  0.61727  Biso   1.000  C
  C108     1.0000 0.45430  0.16900  0.28393  Biso   1.000  C
  H73      1.0000 0.23420  0.82580  0.08730  Biso   1.000  H
  H74      1.0000 0.17420  0.40840  0.75397  Biso   1.000  H
  H75      1.0000 0.82580  0.23420  0.91270  Biso   1.000  H
  H76      1.0000 0.59160  0.76580  0.42063  Biso   1.000  H
  H77      1.0000 0.76580  0.59160  0.57937  Biso   1.000  H
  H78      1.0000 0.40840  0.17420  0.24603  Biso   1.000  H
  H79      1.0000 0.36710  0.89390  0.06000  Biso   1.000  H
  H80      1.0000 0.10610  0.47320  0.72667  Biso   1.000  H
  H81      1.0000 0.89390  0.36710  0.94000  Biso   1.000  H
  H82      1.0000 0.52680  0.63290  0.39333  Biso   1.000  H
  H83      1.0000 0.63290  0.52680  0.60667  Biso   1.000  H
  H84      1.0000 0.47320  0.10610  0.27333  Biso   1.000  H
  C109     1.0000 0.21830  0.04090  0.94930  Biso   1.000  C
  C110     1.0000 0.95910  0.17740  0.61597  Biso   1.000  C
  C111     1.0000 0.04090  0.21830  0.05070  Biso   1.000  C
  C112     1.0000 0.82260  0.78170  0.28263  Biso   1.000  C
  C113     1.0000 0.78170  0.82260  0.71737  Biso   1.000  C
  C114     1.0000 0.17740  0.95910  0.38403  Biso   1.000  C
  H85      1.0000 0.26400  0.05050  0.90870  Biso   1.000  H
  H86      1.0000 0.94950  0.21350  0.57537  Biso   1.000  H
  H87      1.0000 0.05050  0.26400  0.09130  Biso   1.000  H
  H88      1.0000 0.78650  0.73600  0.24203  Biso   1.000  H
  H89      1.0000 0.73600  0.78650  0.75797  Biso   1.000  H
  H90      1.0000 0.21350  0.94950  0.42463  Biso   1.000  H
  H91      1.0000 0.23120  0.11830  0.96370  Biso   1.000  H
  H92      1.0000 0.88170  0.11290  0.63037  Biso   1.000  H
  H93      1.0000 0.11830  0.23120  0.03630  Biso   1.000  H
  H94      1.0000 0.88710  0.76880  0.29703  Biso   1.000  H
  H95      1.0000 0.76880  0.88710  0.70297  Biso   1.000  H
  H96      1.0000 0.11290  0.88170  0.36963  Biso   1.000  H
  H97      1.0000 0.13390  0.98790  0.94040  Biso   1.000  H
  H98      1.0000 0.01210  0.14600  0.60707  Biso   1.000  H
  H99      1.0000 0.98790  0.13390  0.05960  Biso   1.000  H
  H100     1.0000 0.85400  0.86610  0.27373  Biso   1.000  H
  H101     1.0000 0.86610  0.85400  0.72627  Biso   1.000  H
  H102     1.0000 0.14600  0.01210  0.39293  Biso   1.000  H
  C115     1.0000 0.28340  0.71450  0.04350  Biso   1.000  C
  C116     1.0000 0.28550  0.56890  0.71017  Biso   1.000  C
  C117     1.0000 0.71450  0.28340  0.95650  Biso   1.000  C
  C118     1.0000 0.43110  0.71660  0.37683  Biso   1.000  C
  C119     1.0000 0.71660  0.43110  0.62317  Biso   1.000  C
  C120     1.0000 0.56890  0.28550  0.28983  Biso   1.000  C
  H103     1.0000 0.20200  0.65060  0.03560  Biso   1.000  H
  H104     1.0000 0.34940  0.55140  0.70227  Biso   1.000  H
  H105     1.0000 0.65060  0.20200  0.96440  Biso   1.000  H
  H106     1.0000 0.44860  0.79800  0.36893  Biso   1.000  H
  H107     1.0000 0.79800  0.44860  0.63107  Biso   1.000  H
  H108     1.0000 0.55140  0.34940  0.29773  Biso   1.000  H
  H109     1.0000 0.31310  0.69880  0.08490  Biso   1.000  H
  H110     1.0000 0.30120  0.61430  0.75157  Biso   1.000  H
  H111     1.0000 0.69880  0.31310  0.91510  Biso   1.000  H
  H112     1.0000 0.38570  0.68690  0.41823  Biso   1.000  H
  H113     1.0000 0.68690  0.38570  0.58177  Biso   1.000  H
  H114     1.0000 0.61430  0.30120  0.24843  Biso   1.000  H
  H115     1.0000 0.33390  0.71850  0.00620  Biso   1.000  H
  H116     1.0000 0.28150  0.61540  0.67287  Biso   1.000  H
  H117     1.0000 0.71850  0.33390  0.99380  Biso   1.000  H
  H118     1.0000 0.38460  0.66610  0.33953  Biso   1.000  H
  H119     1.0000 0.66610  0.38460  0.66047  Biso   1.000  H
  H120     1.0000 0.61540  0.28150  0.32713  Biso   1.000  H
