data_image0
_cell_length_a       21.2337
_cell_length_b       21.2337
_cell_length_c       10.6155
_cell_angle_alpha    90
_cell_angle_beta     90
_cell_angle_gamma    120

_symmetry_space_group_name_H-M    "P 1"
_symmetry_int_tables_number       1

loop_
  _symmetry_equiv_pos_as_xyz
  'x, y, z'

loop_
  _atom_site_label
  _atom_site_occupancy
  _atom_site_fract_x
  _atom_site_fract_y
  _atom_site_fract_z
  _atom_site_thermal_displace_type
  _atom_site_B_iso_or_equiv
  _atom_site_type_symbol
  Cu1      1.0000 0.66670  0.33330  0.74942  Biso   1.000  Cu
  Cu2      1.0000 0.33330  0.66670  0.24942  Biso   1.000  Cu
  N1       1.0000 0.61310  0.24030  0.64740  Biso   1.000  N
  N2       1.0000 0.75970  0.37280  0.64740  Biso   1.000  N
  N3       1.0000 0.62720  0.38690  0.64740  Biso   1.000  N
  N4       1.0000 0.24030  0.61310  0.14740  Biso   1.000  N
  N5       1.0000 0.38690  0.62720  0.14740  Biso   1.000  N
  N6       1.0000 0.37280  0.75970  0.14740  Biso   1.000  N
  P1       1.0000 0.66670  0.33330  0.94600  Biso   1.000  P
  P2       1.0000 0.33330  0.66670  0.44600  Biso   1.000  P
  N7       1.0000 0.61680  0.25090  0.51970  Biso   1.000  N
  N8       1.0000 0.74910  0.36590  0.51970  Biso   1.000  N
  N9       1.0000 0.63410  0.38320  0.51970  Biso   1.000  N
  N10      1.0000 0.25090  0.61680  0.01970  Biso   1.000  N
  N11      1.0000 0.38320  0.63410  0.01970  Biso   1.000  N
  N12      1.0000 0.36590  0.74910  0.01970  Biso   1.000  N
  C1       1.0000 0.57180  0.17020  0.66030  Biso   1.000  C
  C2       1.0000 0.82980  0.40160  0.66030  Biso   1.000  C
  C3       1.0000 0.59840  0.42820  0.66030  Biso   1.000  C
  C4       1.0000 0.17020  0.57180  0.16030  Biso   1.000  C
  C5       1.0000 0.42820  0.59840  0.16030  Biso   1.000  C
  C6       1.0000 0.40160  0.82980  0.16030  Biso   1.000  C
  P3       1.0000 0.66670  0.33330  0.44840  Biso   1.000  P
  P4       1.0000 0.33330  0.66670  0.94840  Biso   1.000  P
  C7       1.0000 0.57690  0.18620  0.45660  Biso   1.000  C
  C8       1.0000 0.81380  0.39070  0.45660  Biso   1.000  C
  C9       1.0000 0.60930  0.42310  0.45660  Biso   1.000  C
  C10      1.0000 0.18620  0.57690  0.95660  Biso   1.000  C
  C11      1.0000 0.42310  0.60930  0.95660  Biso   1.000  C
  C12      1.0000 0.39070  0.81380  0.95660  Biso   1.000  C
  C13      1.0000 0.54690  0.13340  0.54270  Biso   1.000  C
  C14      1.0000 0.86660  0.41350  0.54270  Biso   1.000  C
  C15      1.0000 0.58650  0.45310  0.54270  Biso   1.000  C
  C16      1.0000 0.13340  0.54690  0.04270  Biso   1.000  C
  C17      1.0000 0.45310  0.58650  0.04270  Biso   1.000  C
  C18      1.0000 0.41350  0.86660  0.04270  Biso   1.000  C
  H1       1.0000 0.55950  0.14620  0.73950  Biso   1.000  H
  H2       1.0000 0.85380  0.41330  0.73950  Biso   1.000  H
  H3       1.0000 0.58670  0.44050  0.73950  Biso   1.000  H
  H4       1.0000 0.14620  0.55950  0.23950  Biso   1.000  H
  H5       1.0000 0.44050  0.58670  0.23950  Biso   1.000  H
  H6       1.0000 0.41330  0.85380  0.23950  Biso   1.000  H
  Cu3      1.0000 0.66670  0.33330  0.25005  Biso   1.000  Cu
  Cu4      1.0000 0.33330  0.66670  0.75005  Biso   1.000  Cu
  H7       1.0000 0.57180  0.18000  0.36790  Biso   1.000  H
  H8       1.0000 0.82000  0.39180  0.36790  Biso   1.000  H
  H9       1.0000 0.60820  0.42820  0.36790  Biso   1.000  H
  H10      1.0000 0.18000  0.57180  0.86790  Biso   1.000  H
  H11      1.0000 0.42820  0.60820  0.86790  Biso   1.000  H
  H12      1.0000 0.39180  0.82000  0.86790  Biso   1.000  H
  H13      1.0000 0.51590  0.08280  0.52890  Biso   1.000  H
  H14      1.0000 0.91720  0.43310  0.52890  Biso   1.000  H
  H15      1.0000 0.56690  0.48410  0.52890  Biso   1.000  H
  H16      1.0000 0.08280  0.51590  0.02890  Biso   1.000  H
  H17      1.0000 0.48410  0.56690  0.02890  Biso   1.000  H
  H18      1.0000 0.43310  0.91720  0.02890  Biso   1.000  H
  N13      1.0000 0.57460  0.27970  0.14480  Biso   1.000  N
  N14      1.0000 0.72030  0.29490  0.14480  Biso   1.000  N
  N15      1.0000 0.70510  0.42540  0.14480  Biso   1.000  N
  N16      1.0000 0.27970  0.57460  0.64480  Biso   1.000  N
  N17      1.0000 0.42540  0.70510  0.64480  Biso   1.000  N
  N18      1.0000 0.29490  0.72030  0.64480  Biso   1.000  N
  N19      1.0000 0.58390  0.28460  0.01600  Biso   1.000  N
  N20      1.0000 0.71540  0.29930  0.01600  Biso   1.000  N
  N21      1.0000 0.70070  0.41610  0.01600  Biso   1.000  N
  N22      1.0000 0.28460  0.58390  0.51600  Biso   1.000  N
  N23      1.0000 0.41610  0.70070  0.51600  Biso   1.000  N
  N24      1.0000 0.29930  0.71540  0.51600  Biso   1.000  N
  C19      1.0000 0.50470  0.23660  0.16000  Biso   1.000  C
  C20      1.0000 0.76340  0.26810  0.16000  Biso   1.000  C
  C21      1.0000 0.73190  0.49530  0.16000  Biso   1.000  C
  C22      1.0000 0.23660  0.50470  0.66000  Biso   1.000  C
  C23      1.0000 0.49530  0.73190  0.66000  Biso   1.000  C
  C24      1.0000 0.26810  0.76340  0.66000  Biso   1.000  C
  C25      1.0000 0.51870  0.24510  0.95480  Biso   1.000  C
  C26      1.0000 0.75490  0.27360  0.95480  Biso   1.000  C
  C27      1.0000 0.72640  0.48130  0.95480  Biso   1.000  C
  C28      1.0000 0.24510  0.51870  0.45480  Biso   1.000  C
  C29      1.0000 0.48130  0.72640  0.45480  Biso   1.000  C
  C30      1.0000 0.27360  0.75490  0.45480  Biso   1.000  C
  C31      1.0000 0.46710  0.21400  0.04360  Biso   1.000  C
  C32      1.0000 0.78600  0.25310  0.04360  Biso   1.000  C
  C33      1.0000 0.74690  0.53290  0.04360  Biso   1.000  C
  C34      1.0000 0.21400  0.46710  0.54360  Biso   1.000  C
  C35      1.0000 0.53290  0.74690  0.54360  Biso   1.000  C
  C36      1.0000 0.25310  0.78600  0.54360  Biso   1.000  C
  H19      1.0000 0.48180  0.22190  0.23990  Biso   1.000  H
  H20      1.0000 0.77810  0.25990  0.23990  Biso   1.000  H
  H21      1.0000 0.74010  0.51820  0.23990  Biso   1.000  H
  H22      1.0000 0.22190  0.48180  0.73990  Biso   1.000  H
  H23      1.0000 0.51820  0.74010  0.73990  Biso   1.000  H
  H24      1.0000 0.25990  0.77810  0.73990  Biso   1.000  H
  H25      1.0000 0.51150  0.24050  0.86620  Biso   1.000  H
  H26      1.0000 0.75950  0.27100  0.86620  Biso   1.000  H
  H27      1.0000 0.72900  0.48850  0.86620  Biso   1.000  H
  H28      1.0000 0.24050  0.51150  0.36620  Biso   1.000  H
  H29      1.0000 0.48850  0.72900  0.36620  Biso   1.000  H
  H30      1.0000 0.27100  0.75950  0.36620  Biso   1.000  H
  H31      1.0000 0.41620  0.18360  0.03110  Biso   1.000  H
  H32      1.0000 0.81640  0.23260  0.03110  Biso   1.000  H
  H33      1.0000 0.76740  0.58380  0.03110  Biso   1.000  H
  H34      1.0000 0.18360  0.41620  0.53110  Biso   1.000  H
  H35      1.0000 0.58380  0.76740  0.53110  Biso   1.000  H
  H36      1.0000 0.23260  0.81640  0.53110  Biso   1.000  H
  Cu5      1.0000 0.00000  0.00000  0.57127  Biso   1.000  Cu
  Cu6      1.0000 0.00000  0.00000  0.07127  Biso   1.000  Cu
  P5       1.0000 0.00000  0.00000  0.26730  Biso   1.000  P
  P6       1.0000 0.00000  0.00000  0.76730  Biso   1.000  P
  N25      1.0000 0.09260  0.04110  0.46710  Biso   1.000  N
  N26      1.0000 0.95890  0.05150  0.46710  Biso   1.000  N
  N27      1.0000 0.94850  0.90740  0.46710  Biso   1.000  N
  N28      1.0000 0.04110  0.09260  0.96710  Biso   1.000  N
  N29      1.0000 0.90740  0.94850  0.96710  Biso   1.000  N
  N30      1.0000 0.05150  0.95890  0.96710  Biso   1.000  N
  N31      1.0000 0.08260  0.03580  0.33830  Biso   1.000  N
  N32      1.0000 0.96420  0.04680  0.33830  Biso   1.000  N
  N33      1.0000 0.95320  0.91740  0.33830  Biso   1.000  N
  N34      1.0000 0.03580  0.08260  0.83830  Biso   1.000  N
  N35      1.0000 0.91740  0.95320  0.83830  Biso   1.000  N
  N36      1.0000 0.04680  0.96420  0.83830  Biso   1.000  N
  C37      1.0000 0.14860  0.06430  0.27840  Biso   1.000  C
  C38      1.0000 0.93570  0.08430  0.27840  Biso   1.000  C
  C39      1.0000 0.91570  0.85140  0.27840  Biso   1.000  C
  C40      1.0000 0.06430  0.14860  0.77840  Biso   1.000  C
  C41      1.0000 0.85140  0.91570  0.77840  Biso   1.000  C
  C42      1.0000 0.08430  0.93570  0.77840  Biso   1.000  C
  H37      1.0000 0.15610  0.06730  0.18980  Biso   1.000  H
  H38      1.0000 0.93270  0.08880  0.18980  Biso   1.000  H
  H39      1.0000 0.91120  0.84390  0.18980  Biso   1.000  H
  H40      1.0000 0.06730  0.15610  0.68980  Biso   1.000  H
  H41      1.0000 0.84390  0.91120  0.68980  Biso   1.000  H
  H42      1.0000 0.08880  0.93270  0.68980  Biso   1.000  H
  C43      1.0000 0.20070  0.08740  0.36690  Biso   1.000  C
  C44      1.0000 0.91260  0.11330  0.36690  Biso   1.000  C
  C45      1.0000 0.88670  0.79930  0.36690  Biso   1.000  C
  C46      1.0000 0.08740  0.20070  0.86690  Biso   1.000  C
  C47      1.0000 0.79930  0.88670  0.86690  Biso   1.000  C
  C48      1.0000 0.11330  0.91260  0.86690  Biso   1.000  C
  H43      1.0000 0.25170  0.10920  0.35430  Biso   1.000  H
  H44      1.0000 0.89080  0.14250  0.35430  Biso   1.000  H
  H45      1.0000 0.85750  0.74830  0.35430  Biso   1.000  H
  H46      1.0000 0.10920  0.25170  0.85430  Biso   1.000  H
  H47      1.0000 0.74830  0.85750  0.85430  Biso   1.000  H
  H48      1.0000 0.14250  0.89080  0.85430  Biso   1.000  H
  C49      1.0000 0.16280  0.07190  0.48370  Biso   1.000  C
  C50      1.0000 0.92810  0.09090  0.48370  Biso   1.000  C
  C51      1.0000 0.90910  0.83720  0.48370  Biso   1.000  C
  C52      1.0000 0.07190  0.16280  0.98370  Biso   1.000  C
  C53      1.0000 0.83720  0.90910  0.98370  Biso   1.000  C
  C54      1.0000 0.09090  0.92810  0.98370  Biso   1.000  C
  H49      1.0000 0.18580  0.08270  0.56390  Biso   1.000  H
  H50      1.0000 0.91730  0.10310  0.56390  Biso   1.000  H
  H51      1.0000 0.89690  0.81420  0.56390  Biso   1.000  H
  H52      1.0000 0.08270  0.18580  0.06390  Biso   1.000  H
  H53      1.0000 0.81420  0.89690  0.06390  Biso   1.000  H
  H54      1.0000 0.10310  0.91730  0.06390  Biso   1.000  H
  P7       1.0000 0.40422  0.22198  0.51428  Biso   1.000  P
  P8       1.0000 0.77802  0.18224  0.51428  Biso   1.000  P
  P9       1.0000 0.81776  0.59578  0.51428  Biso   1.000  P
  P10      1.0000 0.22198  0.40422  0.01428  Biso   1.000  P
  P11      1.0000 0.59578  0.81776  0.01428  Biso   1.000  P
  P12      1.0000 0.18224  0.77802  0.01428  Biso   1.000  P
  F1       1.0000 0.43720  0.21690  0.64430  Biso   1.000  F
  F2       1.0000 0.78310  0.22030  0.64430  Biso   1.000  F
  F3       1.0000 0.77970  0.56280  0.64430  Biso   1.000  F
  F4       1.0000 0.21690  0.43720  0.14430  Biso   1.000  F
  F5       1.0000 0.56280  0.77970  0.14430  Biso   1.000  F
  F6       1.0000 0.22030  0.78310  0.14430  Biso   1.000  F
  F7       1.0000 0.40390  0.15150  0.46620  Biso   1.000  F
  F8       1.0000 0.84850  0.25240  0.46620  Biso   1.000  F
  F9       1.0000 0.74760  0.59610  0.46620  Biso   1.000  F
  F10      1.0000 0.15150  0.40390  0.96620  Biso   1.000  F
  F11      1.0000 0.59610  0.74760  0.96620  Biso   1.000  F
  F12      1.0000 0.25240  0.84850  0.96620  Biso   1.000  F
  F13      1.0000 0.37080  0.22640  0.38110  Biso   1.000  F
  F14      1.0000 0.77360  0.14440  0.38110  Biso   1.000  F
  F15      1.0000 0.85560  0.62920  0.38110  Biso   1.000  F
  F16      1.0000 0.22640  0.37080  0.88110  Biso   1.000  F
  F17      1.0000 0.62920  0.85560  0.88110  Biso   1.000  F
  F18      1.0000 0.14440  0.77360  0.88110  Biso   1.000  F
  F19      1.0000 0.40420  0.29200  0.55920  Biso   1.000  F
  F20      1.0000 0.70800  0.11220  0.55920  Biso   1.000  F
  F21      1.0000 0.88780  0.59580  0.55920  Biso   1.000  F
  F22      1.0000 0.29200  0.40420  0.05920  Biso   1.000  F
  F23      1.0000 0.59580  0.88780  0.05920  Biso   1.000  F
  F24      1.0000 0.11220  0.70800  0.05920  Biso   1.000  F
  F25      1.0000 0.48410  0.27060  0.45900  Biso   1.000  F
  F26      1.0000 0.72940  0.21350  0.45900  Biso   1.000  F
  F27      1.0000 0.78650  0.51590  0.45900  Biso   1.000  F
  F28      1.0000 0.27060  0.48410  0.95900  Biso   1.000  F
  F29      1.0000 0.51590  0.78650  0.95900  Biso   1.000  F
  F30      1.0000 0.21350  0.72940  0.95900  Biso   1.000  F
  F31      1.0000 0.32380  0.17380  0.56770  Biso   1.000  F
  F32      1.0000 0.82620  0.15000  0.56770  Biso   1.000  F
  F33      1.0000 0.85000  0.67620  0.56770  Biso   1.000  F
  F34      1.0000 0.17380  0.32380  0.06770  Biso   1.000  F
  F35      1.0000 0.67620  0.85000  0.06770  Biso   1.000  F
  F36      1.0000 0.15000  0.82620  0.06770  Biso   1.000  F
  Cl1      1.0000 0.42794  0.45242  0.34960  Biso   1.000  Cl
  Cl2      1.0000 0.54758  0.97552  0.34960  Biso   1.000  Cl
  Cl3      1.0000 0.02448  0.57206  0.34960  Biso   1.000  Cl
  Cl4      1.0000 0.45242  0.42794  0.84960  Biso   1.000  Cl
  Cl5      1.0000 0.57206  0.02448  0.84960  Biso   1.000  Cl
  Cl6      1.0000 0.97552  0.54758  0.84960  Biso   1.000  Cl
  Cl7      1.0000 0.54830  0.44847  0.13760  Biso   1.000  Cl
  Cl8      1.0000 0.55153  0.09983  0.13760  Biso   1.000  Cl
  Cl9      1.0000 0.90017  0.45170  0.13760  Biso   1.000  Cl
  Cl10     1.0000 0.44847  0.54830  0.63760  Biso   1.000  Cl
  Cl11     1.0000 0.45170  0.90017  0.63760  Biso   1.000  Cl
  Cl12     1.0000 0.09983  0.55153  0.63760  Biso   1.000  Cl
  C55      1.0000 0.40880  0.39720  0.21300  Biso   1.000  C
  C56      1.0000 0.60280  0.01160  0.21300  Biso   1.000  C
  C57      1.0000 0.98840  0.59120  0.21300  Biso   1.000  C
  C58      1.0000 0.39720  0.40880  0.71300  Biso   1.000  C
  C59      1.0000 0.59120  0.98840  0.71300  Biso   1.000  C
  C60      1.0000 0.01160  0.60280  0.71300  Biso   1.000  C
  H55      1.0000 0.36060  0.35310  0.22310  Biso   1.000  H
  H56      1.0000 0.64690  0.00750  0.22310  Biso   1.000  H
  H57      1.0000 0.99250  0.63940  0.22310  Biso   1.000  H
  H58      1.0000 0.35310  0.36060  0.72310  Biso   1.000  H
  H59      1.0000 0.63940  0.99250  0.72310  Biso   1.000  H
  H60      1.0000 0.00750  0.64690  0.72310  Biso   1.000  H
  H61      1.0000 0.40620  0.42430  0.13920  Biso   1.000  H
  H62      1.0000 0.57570  0.98190  0.13920  Biso   1.000  H
  H63      1.0000 0.01810  0.59380  0.13920  Biso   1.000  H
  H64      1.0000 0.42430  0.40620  0.63920  Biso   1.000  H
  H65      1.0000 0.59380  0.01810  0.63920  Biso   1.000  H
  H66      1.0000 0.98190  0.57570  0.63920  Biso   1.000  H
  C61      1.0000 0.46160  0.37570  0.18850  Biso   1.000  C
  C62      1.0000 0.62430  0.08590  0.18850  Biso   1.000  C
  C63      1.0000 0.91410  0.53840  0.18850  Biso   1.000  C
  C64      1.0000 0.37570  0.46160  0.68850  Biso   1.000  C
  C65      1.0000 0.53840  0.91410  0.68850  Biso   1.000  C
  C66      1.0000 0.08590  0.62430  0.68850  Biso   1.000  C
  H67      1.0000 0.44220  0.33740  0.12300  Biso   1.000  H
  H68      1.0000 0.66260  0.10480  0.12300  Biso   1.000  H
  H69      1.0000 0.89520  0.55780  0.12300  Biso   1.000  H
  H70      1.0000 0.33740  0.44220  0.62300  Biso   1.000  H
  H71      1.0000 0.55780  0.89520  0.62300  Biso   1.000  H
  H72      1.0000 0.10480  0.66260  0.62300  Biso   1.000  H
  H73      1.0000 0.46870  0.35420  0.26620  Biso   1.000  H
  H74      1.0000 0.64580  0.11450  0.26620  Biso   1.000  H
  H75      1.0000 0.88550  0.53130  0.26620  Biso   1.000  H
  H76      1.0000 0.35420  0.46870  0.76620  Biso   1.000  H
  H77      1.0000 0.53130  0.88550  0.76620  Biso   1.000  H
  H78      1.0000 0.11450  0.64580  0.76620  Biso   1.000  H
  Cl13     1.0000 0.21444  0.28106  0.60058  Biso   1.000  Cl
  Cl14     1.0000 0.71894  0.93338  0.60058  Biso   1.000  Cl
  Cl15     1.0000 0.06662  0.78556  0.60058  Biso   1.000  Cl
  Cl16     1.0000 0.28106  0.21444  0.10058  Biso   1.000  Cl
  Cl17     1.0000 0.78556  0.06662  0.10058  Biso   1.000  Cl
  Cl18     1.0000 0.93338  0.71894  0.10058  Biso   1.000  Cl
  Cl19     1.0000 0.11120  0.21325  0.34427  Biso   1.000  Cl
  Cl20     1.0000 0.78675  0.89795  0.34427  Biso   1.000  Cl
  Cl21     1.0000 0.10205  0.88880  0.34427  Biso   1.000  Cl
  Cl22     1.0000 0.21325  0.11120  0.84427  Biso   1.000  Cl
  Cl23     1.0000 0.88880  0.10205  0.84427  Biso   1.000  Cl
  Cl24     1.0000 0.89795  0.78675  0.84427  Biso   1.000  Cl
  C67      1.0000 0.24730  0.28100  0.44750  Biso   1.000  C
  C68      1.0000 0.71900  0.96630  0.44750  Biso   1.000  C
  C69      1.0000 0.03370  0.75270  0.44750  Biso   1.000  C
  C70      1.0000 0.28100  0.24730  0.94750  Biso   1.000  C
  C71      1.0000 0.75270  0.03370  0.94750  Biso   1.000  C
  C72      1.0000 0.96630  0.71900  0.94750  Biso   1.000  C
  H79      1.0000 0.29820  0.32130  0.44030  Biso   1.000  H
  H80      1.0000 0.67870  0.97690  0.44030  Biso   1.000  H
  H81      1.0000 0.02310  0.70180  0.44030  Biso   1.000  H
  H82      1.0000 0.32130  0.29820  0.94030  Biso   1.000  H
  H83      1.0000 0.70180  0.02310  0.94030  Biso   1.000  H
  H84      1.0000 0.97690  0.67870  0.94030  Biso   1.000  H
  H85      1.0000 0.24700  0.23470  0.43350  Biso   1.000  H
  H86      1.0000 0.76530  0.01230  0.43350  Biso   1.000  H
  H87      1.0000 0.98770  0.75300  0.43350  Biso   1.000  H
  H88      1.0000 0.23470  0.24700  0.93350  Biso   1.000  H
  H89      1.0000 0.75300  0.98770  0.93350  Biso   1.000  H
  H90      1.0000 0.01230  0.76530  0.93350  Biso   1.000  H
  C73      1.0000 0.20160  0.28980  0.34820  Biso   1.000  C
  C74      1.0000 0.71020  0.91180  0.34820  Biso   1.000  C
  C75      1.0000 0.08820  0.79840  0.34820  Biso   1.000  C
  C76      1.0000 0.28980  0.20160  0.84820  Biso   1.000  C
  C77      1.0000 0.79840  0.08820  0.84820  Biso   1.000  C
  C78      1.0000 0.91180  0.71020  0.84820  Biso   1.000  C
  H91      1.0000 0.22470  0.29540  0.26470  Biso   1.000  H
  H92      1.0000 0.70460  0.92930  0.26470  Biso   1.000  H
  H93      1.0000 0.07070  0.77530  0.26470  Biso   1.000  H
  H94      1.0000 0.29540  0.22470  0.76470  Biso   1.000  H
  H95      1.0000 0.77530  0.07070  0.76470  Biso   1.000  H
  H96      1.0000 0.92930  0.70460  0.76470  Biso   1.000  H
  H97      1.0000 0.19940  0.33440  0.36550  Biso   1.000  H
  H98      1.0000 0.66560  0.86500  0.36550  Biso   1.000  H
  H99      1.0000 0.13500  0.80060  0.36550  Biso   1.000  H
  H100     1.0000 0.33440  0.19940  0.86550  Biso   1.000  H
  H101     1.0000 0.80060  0.13500  0.86550  Biso   1.000  H
  H102     1.0000 0.86500  0.66560  0.86550  Biso   1.000  H
  Cl25     1.0000 0.58466  0.63136  0.36910  Biso   1.000  Cl
  Cl26     1.0000 0.36864  0.95330  0.36910  Biso   1.000  Cl
  Cl27     1.0000 0.04670  0.41534  0.36910  Biso   1.000  Cl
  Cl28     1.0000 0.63136  0.58466  0.86910  Biso   1.000  Cl
  Cl29     1.0000 0.41534  0.04670  0.86910  Biso   1.000  Cl
  Cl30     1.0000 0.95330  0.36864  0.86910  Biso   1.000  Cl
  Cl31     1.0000 0.75909  0.72184  0.10090  Biso   1.000  Cl
  Cl32     1.0000 0.27816  0.03725  0.10090  Biso   1.000  Cl
  Cl33     1.0000 0.96275  0.24091  0.10090  Biso   1.000  Cl
  Cl34     1.0000 0.72184  0.75909  0.60090  Biso   1.000  Cl
  Cl35     1.0000 0.24091  0.96275  0.60090  Biso   1.000  Cl
  Cl36     1.0000 0.03725  0.27816  0.60090  Biso   1.000  Cl
  C79      1.0000 0.66730  0.65270  0.28600  Biso   1.000  C
  C80      1.0000 0.34730  0.01460  0.28600  Biso   1.000  C
  C81      1.0000 0.98540  0.33270  0.28600  Biso   1.000  C
  C82      1.0000 0.65270  0.66730  0.78600  Biso   1.000  C
  C83      1.0000 0.33270  0.98540  0.78600  Biso   1.000  C
  C84      1.0000 0.01460  0.34730  0.78600  Biso   1.000  C
  H103     1.0000 0.70890  0.67360  0.34480  Biso   1.000  H
  H104     1.0000 0.32640  0.03530  0.34480  Biso   1.000  H
  H105     1.0000 0.96470  0.29110  0.34480  Biso   1.000  H
  H106     1.0000 0.67360  0.70890  0.84480  Biso   1.000  H
  H107     1.0000 0.29110  0.96470  0.84480  Biso   1.000  H
  H108     1.0000 0.03530  0.32640  0.84480  Biso   1.000  H
  H109     1.0000 0.66290  0.60780  0.24910  Biso   1.000  H
  H110     1.0000 0.39220  0.05510  0.24910  Biso   1.000  H
  H111     1.0000 0.94490  0.33710  0.24910  Biso   1.000  H
  H112     1.0000 0.60780  0.66290  0.74910  Biso   1.000  H
  H113     1.0000 0.33710  0.94490  0.74910  Biso   1.000  H
  H114     1.0000 0.05510  0.39220  0.74910  Biso   1.000  H
  C85      1.0000 0.67920  0.70120  0.19200  Biso   1.000  C
  C86      1.0000 0.29880  0.97800  0.19200  Biso   1.000  C
  C87      1.0000 0.02200  0.32080  0.19200  Biso   1.000  C
  C88      1.0000 0.70120  0.67920  0.69200  Biso   1.000  C
  C89      1.0000 0.32080  0.02200  0.69200  Biso   1.000  C
  C90      1.0000 0.97800  0.29880  0.69200  Biso   1.000  C
  H115     1.0000 0.68530  0.74660  0.22990  Biso   1.000  H
  H116     1.0000 0.25340  0.93870  0.22990  Biso   1.000  H
  H117     1.0000 0.06130  0.31470  0.22990  Biso   1.000  H
  H118     1.0000 0.74660  0.68530  0.72990  Biso   1.000  H
  H119     1.0000 0.31470  0.06130  0.72990  Biso   1.000  H
  H120     1.0000 0.93870  0.25340  0.72990  Biso   1.000  H
  H121     1.0000 0.63630  0.68100  0.13610  Biso   1.000  H
  H122     1.0000 0.31900  0.95530  0.13610  Biso   1.000  H
  H123     1.0000 0.04470  0.36370  0.13610  Biso   1.000  H
  H124     1.0000 0.68100  0.63630  0.63610  Biso   1.000  H
  H125     1.0000 0.36370  0.04470  0.63610  Biso   1.000  H
  H126     1.0000 0.95530  0.31900  0.63610  Biso   1.000  H
  Cu7      1.0000 0.66670  0.33330  0.87250  Biso   1.000  Cu
  Cu8      1.0000 0.33330  0.66670  0.37250  Biso   1.000  Cu
  P13      1.0000 0.66670  0.33330  0.17610  Biso   1.000  P
  P14      1.0000 0.33330  0.66670  0.67610  Biso   1.000  P
  N37      1.0000 0.57390  0.28160  0.97850  Biso   1.000  N
  N38      1.0000 0.71840  0.29230  0.97850  Biso   1.000  N
  N39      1.0000 0.70770  0.42610  0.97850  Biso   1.000  N
  N40      1.0000 0.28160  0.57390  0.47850  Biso   1.000  N
  N41      1.0000 0.42610  0.70770  0.47850  Biso   1.000  N
  N42      1.0000 0.29230  0.71840  0.47850  Biso   1.000  N
  N43      1.0000 0.58400  0.28500  0.10670  Biso   1.000  N
  N44      1.0000 0.71500  0.29900  0.10670  Biso   1.000  N
  N45      1.0000 0.70100  0.41600  0.10670  Biso   1.000  N
  N46      1.0000 0.28500  0.58400  0.60670  Biso   1.000  N
  N47      1.0000 0.41600  0.70100  0.60670  Biso   1.000  N
  N48      1.0000 0.29900  0.71500  0.60670  Biso   1.000  N
  C91      1.0000 0.51880  0.25100  0.16970  Biso   1.000  C
  C92      1.0000 0.74900  0.26780  0.16970  Biso   1.000  C
  C93      1.0000 0.73220  0.48120  0.16970  Biso   1.000  C
  C94      1.0000 0.25100  0.51880  0.66970  Biso   1.000  C
  C95      1.0000 0.48120  0.73220  0.66970  Biso   1.000  C
  C96      1.0000 0.26780  0.74900  0.66970  Biso   1.000  C
  H127     1.0000 0.51220  0.25090  0.25830  Biso   1.000  H
  H128     1.0000 0.74910  0.26130  0.25830  Biso   1.000  H
  H129     1.0000 0.73870  0.48780  0.25830  Biso   1.000  H
  H130     1.0000 0.25090  0.51220  0.75830  Biso   1.000  H
  H131     1.0000 0.48780  0.73870  0.75830  Biso   1.000  H
  H132     1.0000 0.26130  0.74910  0.75830  Biso   1.000  H
  C97      1.0000 0.46630  0.21950  0.08370  Biso   1.000  C
  C98      1.0000 0.78050  0.24680  0.08370  Biso   1.000  C
  C99      1.0000 0.75320  0.53370  0.08370  Biso   1.000  C
  C100     1.0000 0.21950  0.46630  0.58370  Biso   1.000  C
  C101     1.0000 0.53370  0.75320  0.58370  Biso   1.000  C
  C102     1.0000 0.24680  0.78050  0.58370  Biso   1.000  C
  H133     1.0000 0.41550  0.19000  0.09760  Biso   1.000  H
  H134     1.0000 0.81000  0.22550  0.09760  Biso   1.000  H
  H135     1.0000 0.77450  0.58450  0.09760  Biso   1.000  H
  H136     1.0000 0.19000  0.41550  0.59760  Biso   1.000  H
  H137     1.0000 0.58450  0.77450  0.59760  Biso   1.000  H
  H138     1.0000 0.22550  0.81000  0.59760  Biso   1.000  H
  C103     1.0000 0.50390  0.24000  0.96600  Biso   1.000  C
  C104     1.0000 0.76000  0.26390  0.96600  Biso   1.000  C
  C105     1.0000 0.73610  0.49610  0.96600  Biso   1.000  C
  C106     1.0000 0.24000  0.50390  0.46600  Biso   1.000  C
  C107     1.0000 0.49610  0.73610  0.46600  Biso   1.000  C
  C108     1.0000 0.26390  0.76000  0.46600  Biso   1.000  C
  H139     1.0000 0.48030  0.22420  0.88670  Biso   1.000  H
  H140     1.0000 0.77580  0.25610  0.88670  Biso   1.000  H
  H141     1.0000 0.74390  0.51970  0.88670  Biso   1.000  H
  H142     1.0000 0.22420  0.48030  0.38670  Biso   1.000  H
  H143     1.0000 0.51970  0.74390  0.38670  Biso   1.000  H
  H144     1.0000 0.25610  0.77580  0.38670  Biso   1.000  H
  Cu9      1.0000 0.66670  0.33330  0.37360  Biso   1.000  Cu
  Cu10     1.0000 0.33330  0.66670  0.87360  Biso   1.000  Cu
  P15      1.0000 0.66670  0.33330  0.67690  Biso   1.000  P
  P16      1.0000 0.33330  0.66670  0.17690  Biso   1.000  P
  N49      1.0000 0.60780  0.24150  0.47950  Biso   1.000  N
  N50      1.0000 0.75850  0.36630  0.47950  Biso   1.000  N
  N51      1.0000 0.63370  0.39220  0.47950  Biso   1.000  N
  N52      1.0000 0.24150  0.60780  0.97950  Biso   1.000  N
  N53      1.0000 0.39220  0.63370  0.97950  Biso   1.000  N
  N54      1.0000 0.36630  0.75850  0.97950  Biso   1.000  N
  N55      1.0000 0.61690  0.25130  0.60710  Biso   1.000  N
  N56      1.0000 0.74870  0.36560  0.60710  Biso   1.000  N
  N57      1.0000 0.63440  0.38310  0.60710  Biso   1.000  N
  N58      1.0000 0.25130  0.61690  0.10710  Biso   1.000  N
  N59      1.0000 0.38310  0.63440  0.10710  Biso   1.000  N
  N60      1.0000 0.36560  0.74870  0.10710  Biso   1.000  N
  C109     1.0000 0.58200  0.18640  0.67120  Biso   1.000  C
  C110     1.0000 0.81360  0.39560  0.67120  Biso   1.000  C
  C111     1.0000 0.60440  0.41800  0.67120  Biso   1.000  C
  C112     1.0000 0.18640  0.58200  0.17120  Biso   1.000  C
  C113     1.0000 0.41800  0.60440  0.17120  Biso   1.000  C
  C114     1.0000 0.39560  0.81360  0.17120  Biso   1.000  C
  H145     1.0000 0.58160  0.18010  0.75990  Biso   1.000  H
  H146     1.0000 0.81990  0.40150  0.75990  Biso   1.000  H
  H147     1.0000 0.59850  0.41840  0.75990  Biso   1.000  H
  H148     1.0000 0.18010  0.58160  0.25990  Biso   1.000  H
  H149     1.0000 0.41840  0.59850  0.25990  Biso   1.000  H
  H150     1.0000 0.40150  0.81990  0.25990  Biso   1.000  H
  C115     1.0000 0.54830  0.13410  0.58560  Biso   1.000  C
  C116     1.0000 0.86590  0.41420  0.58560  Biso   1.000  C
  C117     1.0000 0.58580  0.45170  0.58560  Biso   1.000  C
  C118     1.0000 0.13410  0.54830  0.08560  Biso   1.000  C
  C119     1.0000 0.45170  0.58580  0.08560  Biso   1.000  C
  C120     1.0000 0.41420  0.86590  0.08560  Biso   1.000  C
  H151     1.0000 0.51940  0.08320  0.59990  Biso   1.000  H
  H152     1.0000 0.91680  0.43620  0.59990  Biso   1.000  H
  H153     1.0000 0.56380  0.48060  0.59990  Biso   1.000  H
  H154     1.0000 0.08320  0.51940  0.09990  Biso   1.000  H
  H155     1.0000 0.48060  0.56380  0.09990  Biso   1.000  H
  H156     1.0000 0.43620  0.91680  0.09990  Biso   1.000  H
  C121     1.0000 0.56600  0.17130  0.46780  Biso   1.000  C
  C122     1.0000 0.82870  0.39470  0.46780  Biso   1.000  C
  C123     1.0000 0.60530  0.43400  0.46780  Biso   1.000  C
  C124     1.0000 0.17130  0.56600  0.96780  Biso   1.000  C
  C125     1.0000 0.43400  0.60530  0.96780  Biso   1.000  C
  C126     1.0000 0.39470  0.82870  0.96780  Biso   1.000  C
  H157     1.0000 0.54820  0.14760  0.38910  Biso   1.000  H
  H158     1.0000 0.85240  0.40060  0.38910  Biso   1.000  H
  H159     1.0000 0.59940  0.45180  0.38910  Biso   1.000  H
  H160     1.0000 0.14760  0.54820  0.88910  Biso   1.000  H
  H161     1.0000 0.45180  0.59940  0.88910  Biso   1.000  H
  H162     1.0000 0.40060  0.85240  0.88910  Biso   1.000  H
  C127     1.0000 0.66740  0.69070  0.28500  Biso   1.000  C
  C128     1.0000 0.30930  0.97670  0.28500  Biso   1.000  C
  C129     1.0000 0.02330  0.33260  0.28500  Biso   1.000  C
  C130     1.0000 0.69070  0.66740  0.78500  Biso   1.000  C
  C131     1.0000 0.33260  0.02330  0.78500  Biso   1.000  C
  C132     1.0000 0.97670  0.30930  0.78500  Biso   1.000  C
  H163     1.0000 0.66990  0.73780  0.26940  Biso   1.000  H
  H164     1.0000 0.26220  0.93210  0.26940  Biso   1.000  H
  H165     1.0000 0.06790  0.33010  0.26940  Biso   1.000  H
  H166     1.0000 0.73780  0.66990  0.76940  Biso   1.000  H
  H167     1.0000 0.33010  0.06790  0.76940  Biso   1.000  H
  H168     1.0000 0.93210  0.26220  0.76940  Biso   1.000  H
  H169     1.0000 0.70970  0.70000  0.33730  Biso   1.000  H
  H170     1.0000 0.30000  0.00970  0.33730  Biso   1.000  H
  H171     1.0000 0.99030  0.29030  0.33730  Biso   1.000  H
  H172     1.0000 0.70000  0.70970  0.83730  Biso   1.000  H
  H173     1.0000 0.29030  0.99030  0.83730  Biso   1.000  H
  H174     1.0000 0.00970  0.30000  0.83730  Biso   1.000  H
  C133     1.0000 0.67190  0.66230  0.17300  Biso   1.000  C
  C134     1.0000 0.33770  0.00960  0.17300  Biso   1.000  C
  C135     1.0000 0.99040  0.32810  0.17300  Biso   1.000  C
  C136     1.0000 0.66230  0.67190  0.67300  Biso   1.000  C
  C137     1.0000 0.32810  0.99040  0.67300  Biso   1.000  C
  C138     1.0000 0.00960  0.33770  0.67300  Biso   1.000  C
  H175     1.0000 0.63240  0.65690  0.11610  Biso   1.000  H
  H176     1.0000 0.34310  0.97550  0.11610  Biso   1.000  H
  H177     1.0000 0.02450  0.36760  0.11610  Biso   1.000  H
  H178     1.0000 0.65690  0.63240  0.61610  Biso   1.000  H
  H179     1.0000 0.36760  0.02450  0.61610  Biso   1.000  H
  H180     1.0000 0.97550  0.34310  0.61610  Biso   1.000  H
  H181     1.0000 0.66630  0.61360  0.18600  Biso   1.000  H
  H182     1.0000 0.38640  0.05270  0.18600  Biso   1.000  H
  H183     1.0000 0.94730  0.33370  0.18600  Biso   1.000  H
  H184     1.0000 0.61360  0.66630  0.68600  Biso   1.000  H
  H185     1.0000 0.33370  0.94730  0.68600  Biso   1.000  H
  H186     1.0000 0.05270  0.38640  0.68600  Biso   1.000  H
