data_image0
_cell_length_a       21.2193
_cell_length_b       21.2193
_cell_length_c       10.6362
_cell_angle_alpha    90
_cell_angle_beta     90
_cell_angle_gamma    120

_symmetry_space_group_name_H-M    "P 1"
_symmetry_int_tables_number       1

loop_
  _symmetry_equiv_pos_as_xyz
  'x, y, z'

loop_
  _atom_site_label
  _atom_site_occupancy
  _atom_site_fract_x
  _atom_site_fract_y
  _atom_site_fract_z
  _atom_site_thermal_displace_type
  _atom_site_B_iso_or_equiv
  _atom_site_type_symbol
  Cu1      1.0000 0.66670  0.33330  0.75118  Biso   1.000  Cu
  Cu2      1.0000 0.33330  0.66670  0.25118  Biso   1.000  Cu
  N1       1.0000 0.61240  0.24060  0.64800  Biso   1.000  N
  N2       1.0000 0.75940  0.37180  0.64800  Biso   1.000  N
  N3       1.0000 0.62820  0.38760  0.64800  Biso   1.000  N
  N4       1.0000 0.24060  0.61240  0.14800  Biso   1.000  N
  N5       1.0000 0.38760  0.62820  0.14800  Biso   1.000  N
  N6       1.0000 0.37180  0.75940  0.14800  Biso   1.000  N
  P1       1.0000 0.66670  0.33330  0.94790  Biso   1.000  P
  P2       1.0000 0.33330  0.66670  0.44790  Biso   1.000  P
  N7       1.0000 0.61660  0.25150  0.52010  Biso   1.000  N
  N8       1.0000 0.74850  0.36510  0.52010  Biso   1.000  N
  N9       1.0000 0.63490  0.38340  0.52010  Biso   1.000  N
  N10      1.0000 0.25150  0.61660  0.02010  Biso   1.000  N
  N11      1.0000 0.38340  0.63490  0.02010  Biso   1.000  N
  N12      1.0000 0.36510  0.74850  0.02010  Biso   1.000  N
  C1       1.0000 0.57030  0.17070  0.66450  Biso   1.000  C
  C2       1.0000 0.82930  0.39960  0.66450  Biso   1.000  C
  C3       1.0000 0.60040  0.42970  0.66450  Biso   1.000  C
  C4       1.0000 0.17070  0.57030  0.16450  Biso   1.000  C
  C5       1.0000 0.42970  0.60040  0.16450  Biso   1.000  C
  C6       1.0000 0.39960  0.82930  0.16450  Biso   1.000  C
  P3       1.0000 0.66670  0.33330  0.45090  Biso   1.000  P
  P4       1.0000 0.33330  0.66670  0.95090  Biso   1.000  P
  C7       1.0000 0.57690  0.18550  0.46080  Biso   1.000  C
  C8       1.0000 0.81450  0.39140  0.46080  Biso   1.000  C
  C9       1.0000 0.60860  0.42310  0.46080  Biso   1.000  C
  C10      1.0000 0.18550  0.57690  0.96080  Biso   1.000  C
  C11      1.0000 0.42310  0.60860  0.96080  Biso   1.000  C
  C12      1.0000 0.39140  0.81450  0.96080  Biso   1.000  C
  C13      1.0000 0.54670  0.13350  0.54890  Biso   1.000  C
  C14      1.0000 0.86650  0.41320  0.54890  Biso   1.000  C
  C15      1.0000 0.58680  0.45330  0.54890  Biso   1.000  C
  C16      1.0000 0.13350  0.54670  0.04890  Biso   1.000  C
  C17      1.0000 0.45330  0.58680  0.04890  Biso   1.000  C
  C18      1.0000 0.41320  0.86650  0.04890  Biso   1.000  C
  H1       1.0000 0.55720  0.14770  0.74440  Biso   1.000  H
  H2       1.0000 0.85230  0.40950  0.74440  Biso   1.000  H
  H3       1.0000 0.59050  0.44280  0.74440  Biso   1.000  H
  H4       1.0000 0.14770  0.55720  0.24440  Biso   1.000  H
  H5       1.0000 0.44280  0.59050  0.24440  Biso   1.000  H
  H6       1.0000 0.40950  0.85230  0.24440  Biso   1.000  H
  Cu3      1.0000 0.66670  0.33330  0.25195  Biso   1.000  Cu
  Cu4      1.0000 0.33330  0.66670  0.75195  Biso   1.000  Cu
  H7       1.0000 0.57180  0.17800  0.37250  Biso   1.000  H
  H8       1.0000 0.82200  0.39380  0.37250  Biso   1.000  H
  H9       1.0000 0.60620  0.42820  0.37250  Biso   1.000  H
  H10      1.0000 0.17800  0.57180  0.87250  Biso   1.000  H
  H11      1.0000 0.42820  0.60620  0.87250  Biso   1.000  H
  H12      1.0000 0.39380  0.82200  0.87250  Biso   1.000  H
  H13      1.0000 0.51610  0.08270  0.53630  Biso   1.000  H
  H14      1.0000 0.91730  0.43340  0.53630  Biso   1.000  H
  H15      1.0000 0.56660  0.48390  0.53630  Biso   1.000  H
  H16      1.0000 0.08270  0.51610  0.03630  Biso   1.000  H
  H17      1.0000 0.48390  0.56660  0.03630  Biso   1.000  H
  H18      1.0000 0.43340  0.91730  0.03630  Biso   1.000  H
  N13      1.0000 0.57410  0.27910  0.14610  Biso   1.000  N
  N14      1.0000 0.72090  0.29500  0.14610  Biso   1.000  N
  N15      1.0000 0.70500  0.42590  0.14610  Biso   1.000  N
  N16      1.0000 0.27910  0.57410  0.64610  Biso   1.000  N
  N17      1.0000 0.42590  0.70500  0.64610  Biso   1.000  N
  N18      1.0000 0.29500  0.72090  0.64610  Biso   1.000  N
  N19      1.0000 0.58380  0.28480  0.01720  Biso   1.000  N
  N20      1.0000 0.71520  0.29900  0.01720  Biso   1.000  N
  N21      1.0000 0.70100  0.41620  0.01720  Biso   1.000  N
  N22      1.0000 0.28480  0.58380  0.51720  Biso   1.000  N
  N23      1.0000 0.41620  0.70100  0.51720  Biso   1.000  N
  N24      1.0000 0.29900  0.71520  0.51720  Biso   1.000  N
  C19      1.0000 0.50360  0.23660  0.16170  Biso   1.000  C
  C20      1.0000 0.76340  0.26700  0.16170  Biso   1.000  C
  C21      1.0000 0.73300  0.49640  0.16170  Biso   1.000  C
  C22      1.0000 0.23660  0.50360  0.66170  Biso   1.000  C
  C23      1.0000 0.49640  0.73300  0.66170  Biso   1.000  C
  C24      1.0000 0.26700  0.76340  0.66170  Biso   1.000  C
  C25      1.0000 0.51850  0.24650  0.95690  Biso   1.000  C
  C26      1.0000 0.75350  0.27200  0.95690  Biso   1.000  C
  C27      1.0000 0.72800  0.48150  0.95690  Biso   1.000  C
  C28      1.0000 0.24650  0.51850  0.45690  Biso   1.000  C
  C29      1.0000 0.48150  0.72800  0.45690  Biso   1.000  C
  C30      1.0000 0.27200  0.75350  0.45690  Biso   1.000  C
  C31      1.0000 0.46650  0.21280  0.04540  Biso   1.000  C
  C32      1.0000 0.78720  0.25370  0.04540  Biso   1.000  C
  C33      1.0000 0.74630  0.53350  0.04540  Biso   1.000  C
  C34      1.0000 0.21280  0.46650  0.54540  Biso   1.000  C
  C35      1.0000 0.53350  0.74630  0.54540  Biso   1.000  C
  C36      1.0000 0.25370  0.78720  0.54540  Biso   1.000  C
  H19      1.0000 0.48030  0.22340  0.24140  Biso   1.000  H
  H20      1.0000 0.77660  0.25690  0.24140  Biso   1.000  H
  H21      1.0000 0.74310  0.51970  0.24140  Biso   1.000  H
  H22      1.0000 0.22340  0.48030  0.74140  Biso   1.000  H
  H23      1.0000 0.51970  0.74310  0.74140  Biso   1.000  H
  H24      1.0000 0.25690  0.77660  0.74140  Biso   1.000  H
  H25      1.0000 0.51100  0.24400  0.86860  Biso   1.000  H
  H26      1.0000 0.75600  0.26700  0.86860  Biso   1.000  H
  H27      1.0000 0.73300  0.48900  0.86860  Biso   1.000  H
  H28      1.0000 0.24400  0.51100  0.36860  Biso   1.000  H
  H29      1.0000 0.48900  0.73300  0.36860  Biso   1.000  H
  H30      1.0000 0.26700  0.75600  0.36860  Biso   1.000  H
  H31      1.0000 0.41600  0.18030  0.03240  Biso   1.000  H
  H32      1.0000 0.81970  0.23570  0.03240  Biso   1.000  H
  H33      1.0000 0.76430  0.58400  0.03240  Biso   1.000  H
  H34      1.0000 0.18030  0.41600  0.53240  Biso   1.000  H
  H35      1.0000 0.58400  0.76430  0.53240  Biso   1.000  H
  H36      1.0000 0.23570  0.81970  0.53240  Biso   1.000  H
  Cu5      1.0000 0.00000  0.00000  0.57238  Biso   1.000  Cu
  Cu6      1.0000 0.00000  0.00000  0.07238  Biso   1.000  Cu
  P5       1.0000 0.00000  0.00000  0.26829  Biso   1.000  P
  P6       1.0000 0.00000  0.00000  0.76829  Biso   1.000  P
  N25      1.0000 0.09300  0.04110  0.46930  Biso   1.000  N
  N26      1.0000 0.95890  0.05190  0.46930  Biso   1.000  N
  N27      1.0000 0.94810  0.90700  0.46930  Biso   1.000  N
  N28      1.0000 0.04110  0.09300  0.96930  Biso   1.000  N
  N29      1.0000 0.90700  0.94810  0.96930  Biso   1.000  N
  N30      1.0000 0.05190  0.95890  0.96930  Biso   1.000  N
  N31      1.0000 0.08266  0.03620  0.34010  Biso   1.000  N
  N32      1.0000 0.96380  0.04646  0.34010  Biso   1.000  N
  N33      1.0000 0.95354  0.91734  0.34010  Biso   1.000  N
  N34      1.0000 0.03620  0.08266  0.84010  Biso   1.000  N
  N35      1.0000 0.91734  0.95354  0.84010  Biso   1.000  N
  N36      1.0000 0.04646  0.96380  0.84010  Biso   1.000  N
  C37      1.0000 0.14850  0.06420  0.28040  Biso   1.000  C
  C38      1.0000 0.93580  0.08430  0.28040  Biso   1.000  C
  C39      1.0000 0.91570  0.85150  0.28040  Biso   1.000  C
  C40      1.0000 0.06420  0.14850  0.78040  Biso   1.000  C
  C41      1.0000 0.85150  0.91570  0.78040  Biso   1.000  C
  C42      1.0000 0.08430  0.93580  0.78040  Biso   1.000  C
  H37      1.0000 0.15590  0.06720  0.19200  Biso   1.000  H
  H38      1.0000 0.93280  0.08870  0.19200  Biso   1.000  H
  H39      1.0000 0.91130  0.84410  0.19200  Biso   1.000  H
  H40      1.0000 0.06720  0.15590  0.69200  Biso   1.000  H
  H41      1.0000 0.84410  0.91130  0.69200  Biso   1.000  H
  H42      1.0000 0.08870  0.93280  0.69200  Biso   1.000  H
  C43      1.0000 0.20080  0.08670  0.36860  Biso   1.000  C
  C44      1.0000 0.91330  0.11410  0.36860  Biso   1.000  C
  C45      1.0000 0.88590  0.79920  0.36860  Biso   1.000  C
  C46      1.0000 0.08670  0.20080  0.86860  Biso   1.000  C
  C47      1.0000 0.79920  0.88590  0.86860  Biso   1.000  C
  C48      1.0000 0.11410  0.91330  0.86860  Biso   1.000  C
  H43      1.0000 0.25170  0.10820  0.35540  Biso   1.000  H
  H44      1.0000 0.89180  0.14350  0.35540  Biso   1.000  H
  H45      1.0000 0.85650  0.74830  0.35540  Biso   1.000  H
  H46      1.0000 0.10820  0.25170  0.85540  Biso   1.000  H
  H47      1.0000 0.74830  0.85650  0.85540  Biso   1.000  H
  H48      1.0000 0.14350  0.89180  0.85540  Biso   1.000  H
  C49      1.0000 0.16400  0.07180  0.48510  Biso   1.000  C
  C50      1.0000 0.92820  0.09220  0.48510  Biso   1.000  C
  C51      1.0000 0.90780  0.83600  0.48510  Biso   1.000  C
  C52      1.0000 0.07180  0.16400  0.98510  Biso   1.000  C
  C53      1.0000 0.83600  0.90780  0.98510  Biso   1.000  C
  C54      1.0000 0.09220  0.92820  0.98510  Biso   1.000  C
  H49      1.0000 0.18740  0.08250  0.56470  Biso   1.000  H
  H50      1.0000 0.91750  0.10490  0.56470  Biso   1.000  H
  H51      1.0000 0.89510  0.81260  0.56470  Biso   1.000  H
  H52      1.0000 0.08250  0.18740  0.06470  Biso   1.000  H
  H53      1.0000 0.81260  0.89510  0.06470  Biso   1.000  H
  H54      1.0000 0.10490  0.91750  0.06470  Biso   1.000  H
  P7       1.0000 0.40424  0.22198  0.51531  Biso   1.000  P
  P8       1.0000 0.77802  0.18226  0.51531  Biso   1.000  P
  P9       1.0000 0.81774  0.59576  0.51531  Biso   1.000  P
  P10      1.0000 0.22198  0.40424  0.01531  Biso   1.000  P
  P11      1.0000 0.59576  0.81774  0.01531  Biso   1.000  P
  P12      1.0000 0.18226  0.77802  0.01531  Biso   1.000  P
  F1       1.0000 0.43660  0.21680  0.64530  Biso   1.000  F
  F2       1.0000 0.78320  0.21980  0.64530  Biso   1.000  F
  F3       1.0000 0.78020  0.56340  0.64530  Biso   1.000  F
  F4       1.0000 0.21680  0.43660  0.14530  Biso   1.000  F
  F5       1.0000 0.56340  0.78020  0.14530  Biso   1.000  F
  F6       1.0000 0.21980  0.78320  0.14530  Biso   1.000  F
  F7       1.0000 0.40250  0.15090  0.46800  Biso   1.000  F
  F8       1.0000 0.84910  0.25160  0.46800  Biso   1.000  F
  F9       1.0000 0.74840  0.59750  0.46800  Biso   1.000  F
  F10      1.0000 0.15090  0.40250  0.96800  Biso   1.000  F
  F11      1.0000 0.59750  0.74840  0.96800  Biso   1.000  F
  F12      1.0000 0.25160  0.84910  0.96800  Biso   1.000  F
  F13      1.0000 0.37110  0.22690  0.38070  Biso   1.000  F
  F14      1.0000 0.77310  0.14420  0.38070  Biso   1.000  F
  F15      1.0000 0.85580  0.62890  0.38070  Biso   1.000  F
  F16      1.0000 0.22690  0.37110  0.88070  Biso   1.000  F
  F17      1.0000 0.62890  0.85580  0.88070  Biso   1.000  F
  F18      1.0000 0.14420  0.77310  0.88070  Biso   1.000  F
  F19      1.0000 0.40520  0.29240  0.55910  Biso   1.000  F
  F20      1.0000 0.70760  0.11280  0.55910  Biso   1.000  F
  F21      1.0000 0.88720  0.59480  0.55910  Biso   1.000  F
  F22      1.0000 0.29240  0.40520  0.05910  Biso   1.000  F
  F23      1.0000 0.59480  0.88720  0.05910  Biso   1.000  F
  F24      1.0000 0.11280  0.70760  0.05910  Biso   1.000  F
  F25      1.0000 0.48413  0.26900  0.45970  Biso   1.000  F
  F26      1.0000 0.73100  0.21513  0.45970  Biso   1.000  F
  F27      1.0000 0.78487  0.51587  0.45970  Biso   1.000  F
  F28      1.0000 0.26900  0.48413  0.95970  Biso   1.000  F
  F29      1.0000 0.51587  0.78487  0.95970  Biso   1.000  F
  F30      1.0000 0.21513  0.73100  0.95970  Biso   1.000  F
  F31      1.0000 0.32389  0.17490  0.56910  Biso   1.000  F
  F32      1.0000 0.82510  0.14899  0.56910  Biso   1.000  F
  F33      1.0000 0.85101  0.67611  0.56910  Biso   1.000  F
  F34      1.0000 0.17490  0.32389  0.06910  Biso   1.000  F
  F35      1.0000 0.67611  0.85101  0.06910  Biso   1.000  F
  F36      1.0000 0.14899  0.82510  0.06910  Biso   1.000  F
  Cl1      1.0000 0.42674  0.45180  0.35290  Biso   1.000  Cl
  Cl2      1.0000 0.54820  0.97494  0.35290  Biso   1.000  Cl
  Cl3      1.0000 0.02506  0.57326  0.35290  Biso   1.000  Cl
  Cl4      1.0000 0.45180  0.42674  0.85290  Biso   1.000  Cl
  Cl5      1.0000 0.57326  0.02506  0.85290  Biso   1.000  Cl
  Cl6      1.0000 0.97494  0.54820  0.85290  Biso   1.000  Cl
  Cl7      1.0000 0.54819  0.44952  0.14064  Biso   1.000  Cl
  Cl8      1.0000 0.55048  0.09867  0.14064  Biso   1.000  Cl
  Cl9      1.0000 0.90133  0.45181  0.14064  Biso   1.000  Cl
  Cl10     1.0000 0.44952  0.54819  0.64064  Biso   1.000  Cl
  Cl11     1.0000 0.45181  0.90133  0.64064  Biso   1.000  Cl
  Cl12     1.0000 0.09867  0.55048  0.64064  Biso   1.000  Cl
  C55      1.0000 0.40850  0.39730  0.21550  Biso   1.000  C
  C56      1.0000 0.60270  0.01120  0.21550  Biso   1.000  C
  C57      1.0000 0.98880  0.59150  0.21550  Biso   1.000  C
  C58      1.0000 0.39730  0.40850  0.71550  Biso   1.000  C
  C59      1.0000 0.59150  0.98880  0.71550  Biso   1.000  C
  C60      1.0000 0.01120  0.60270  0.71550  Biso   1.000  C
  H55      1.0000 0.36030  0.35290  0.22460  Biso   1.000  H
  H56      1.0000 0.64710  0.00740  0.22460  Biso   1.000  H
  H57      1.0000 0.99260  0.63970  0.22460  Biso   1.000  H
  H58      1.0000 0.35290  0.36030  0.72460  Biso   1.000  H
  H59      1.0000 0.63970  0.99260  0.72460  Biso   1.000  H
  H60      1.0000 0.00740  0.64710  0.72460  Biso   1.000  H
  H61      1.0000 0.40610  0.42470  0.14210  Biso   1.000  H
  H62      1.0000 0.57530  0.98140  0.14210  Biso   1.000  H
  H63      1.0000 0.01860  0.59390  0.14210  Biso   1.000  H
  H64      1.0000 0.42470  0.40610  0.64210  Biso   1.000  H
  H65      1.0000 0.59390  0.01860  0.64210  Biso   1.000  H
  H66      1.0000 0.98140  0.57530  0.64210  Biso   1.000  H
  C61      1.0000 0.46240  0.37590  0.19090  Biso   1.000  C
  C62      1.0000 0.62410  0.08650  0.19090  Biso   1.000  C
  C63      1.0000 0.91350  0.53760  0.19090  Biso   1.000  C
  C64      1.0000 0.37590  0.46240  0.69090  Biso   1.000  C
  C65      1.0000 0.53760  0.91350  0.69090  Biso   1.000  C
  C66      1.0000 0.08650  0.62410  0.69090  Biso   1.000  C
  H67      1.0000 0.44350  0.33770  0.12530  Biso   1.000  H
  H68      1.0000 0.66230  0.10580  0.12530  Biso   1.000  H
  H69      1.0000 0.89420  0.55650  0.12530  Biso   1.000  H
  H70      1.0000 0.33770  0.44350  0.62530  Biso   1.000  H
  H71      1.0000 0.55650  0.89420  0.62530  Biso   1.000  H
  H72      1.0000 0.10580  0.66230  0.62530  Biso   1.000  H
  H73      1.0000 0.46980  0.35460  0.26840  Biso   1.000  H
  H74      1.0000 0.64540  0.11520  0.26840  Biso   1.000  H
  H75      1.0000 0.88480  0.53020  0.26840  Biso   1.000  H
  H76      1.0000 0.35460  0.46980  0.76840  Biso   1.000  H
  H77      1.0000 0.53020  0.88480  0.76840  Biso   1.000  H
  H78      1.0000 0.11520  0.64540  0.76840  Biso   1.000  H
  Cl13     1.0000 0.21386  0.28206  0.60163  Biso   1.000  Cl
  Cl14     1.0000 0.71794  0.93180  0.60163  Biso   1.000  Cl
  Cl15     1.0000 0.06820  0.78614  0.60163  Biso   1.000  Cl
  Cl16     1.0000 0.28206  0.21386  0.10163  Biso   1.000  Cl
  Cl17     1.0000 0.78614  0.06820  0.10163  Biso   1.000  Cl
  Cl18     1.0000 0.93180  0.71794  0.10163  Biso   1.000  Cl
  Cl19     1.0000 0.11153  0.21384  0.34494  Biso   1.000  Cl
  Cl20     1.0000 0.78616  0.89769  0.34494  Biso   1.000  Cl
  Cl21     1.0000 0.10231  0.88847  0.34494  Biso   1.000  Cl
  Cl22     1.0000 0.21384  0.11153  0.84494  Biso   1.000  Cl
  Cl23     1.0000 0.88847  0.10231  0.84494  Biso   1.000  Cl
  Cl24     1.0000 0.89769  0.78616  0.84494  Biso   1.000  Cl
  C67      1.0000 0.24690  0.28050  0.45000  Biso   1.000  C
  C68      1.0000 0.71950  0.96640  0.45000  Biso   1.000  C
  C69      1.0000 0.03360  0.75310  0.45000  Biso   1.000  C
  C70      1.0000 0.28050  0.24690  0.95000  Biso   1.000  C
  C71      1.0000 0.75310  0.03360  0.95000  Biso   1.000  C
  C72      1.0000 0.96640  0.71950  0.95000  Biso   1.000  C
  H79      1.0000 0.29810  0.32010  0.44310  Biso   1.000  H
  H80      1.0000 0.67990  0.97800  0.44310  Biso   1.000  H
  H81      1.0000 0.02200  0.70190  0.44310  Biso   1.000  H
  H82      1.0000 0.32010  0.29810  0.94310  Biso   1.000  H
  H83      1.0000 0.70190  0.02200  0.94310  Biso   1.000  H
  H84      1.0000 0.97800  0.67990  0.94310  Biso   1.000  H
  H85      1.0000 0.24580  0.23370  0.43770  Biso   1.000  H
  H86      1.0000 0.76630  0.01210  0.43770  Biso   1.000  H
  H87      1.0000 0.98790  0.75420  0.43770  Biso   1.000  H
  H88      1.0000 0.23370  0.24580  0.93770  Biso   1.000  H
  H89      1.0000 0.75420  0.98790  0.93770  Biso   1.000  H
  H90      1.0000 0.01210  0.76630  0.93770  Biso   1.000  H
  C73      1.0000 0.20210  0.28960  0.34770  Biso   1.000  C
  C74      1.0000 0.71040  0.91250  0.34770  Biso   1.000  C
  C75      1.0000 0.08750  0.79790  0.34770  Biso   1.000  C
  C76      1.0000 0.28960  0.20210  0.84770  Biso   1.000  C
  C77      1.0000 0.79790  0.08750  0.84770  Biso   1.000  C
  C78      1.0000 0.91250  0.71040  0.84770  Biso   1.000  C
  H91      1.0000 0.22540  0.29400  0.26510  Biso   1.000  H
  H92      1.0000 0.70600  0.93140  0.26510  Biso   1.000  H
  H93      1.0000 0.06860  0.77460  0.26510  Biso   1.000  H
  H94      1.0000 0.29400  0.22540  0.76510  Biso   1.000  H
  H95      1.0000 0.77460  0.06860  0.76510  Biso   1.000  H
  H96      1.0000 0.93140  0.70600  0.76510  Biso   1.000  H
  H97      1.0000 0.20050  0.33480  0.36290  Biso   1.000  H
  H98      1.0000 0.66520  0.86570  0.36290  Biso   1.000  H
  H99      1.0000 0.13430  0.79950  0.36290  Biso   1.000  H
  H100     1.0000 0.33480  0.20050  0.86290  Biso   1.000  H
  H101     1.0000 0.79950  0.13430  0.86290  Biso   1.000  H
  H102     1.0000 0.86570  0.66520  0.86290  Biso   1.000  H
  Cl25     1.0000 0.58485  0.63079  0.37090  Biso   1.000  Cl
  Cl26     1.0000 0.36921  0.95406  0.37090  Biso   1.000  Cl
  Cl27     1.0000 0.04594  0.41515  0.37090  Biso   1.000  Cl
  Cl28     1.0000 0.63079  0.58485  0.87090  Biso   1.000  Cl
  Cl29     1.0000 0.41515  0.04594  0.87090  Biso   1.000  Cl
  Cl30     1.0000 0.95406  0.36921  0.87090  Biso   1.000  Cl
  Cl31     1.0000 0.75936  0.72242  0.10262  Biso   1.000  Cl
  Cl32     1.0000 0.27758  0.03694  0.10262  Biso   1.000  Cl
  Cl33     1.0000 0.96306  0.24064  0.10262  Biso   1.000  Cl
  Cl34     1.0000 0.72242  0.75936  0.60262  Biso   1.000  Cl
  Cl35     1.0000 0.24064  0.96306  0.60262  Biso   1.000  Cl
  Cl36     1.0000 0.03694  0.27758  0.60262  Biso   1.000  Cl
  C79      1.0000 0.66850  0.65370  0.29140  Biso   1.000  C
  C80      1.0000 0.34630  0.01480  0.29140  Biso   1.000  C
  C81      1.0000 0.98520  0.33150  0.29140  Biso   1.000  C
  C82      1.0000 0.65370  0.66850  0.79140  Biso   1.000  C
  C83      1.0000 0.33150  0.98520  0.79140  Biso   1.000  C
  C84      1.0000 0.01480  0.34630  0.79140  Biso   1.000  C
  H103     1.0000 0.70980  0.67760  0.35090  Biso   1.000  H
  H104     1.0000 0.32240  0.03220  0.35090  Biso   1.000  H
  H105     1.0000 0.96780  0.29020  0.35090  Biso   1.000  H
  H106     1.0000 0.67760  0.70980  0.85090  Biso   1.000  H
  H107     1.0000 0.29020  0.96780  0.85090  Biso   1.000  H
  H108     1.0000 0.03220  0.32240  0.85090  Biso   1.000  H
  H109     1.0000 0.66650  0.60890  0.25940  Biso   1.000  H
  H110     1.0000 0.39110  0.05760  0.25940  Biso   1.000  H
  H111     1.0000 0.94240  0.33350  0.25940  Biso   1.000  H
  H112     1.0000 0.60890  0.66650  0.75940  Biso   1.000  H
  H113     1.0000 0.33350  0.94240  0.75940  Biso   1.000  H
  H114     1.0000 0.05760  0.39110  0.75940  Biso   1.000  H
  C85      1.0000 0.67840  0.69970  0.19330  Biso   1.000  C
  C86      1.0000 0.30030  0.97870  0.19330  Biso   1.000  C
  C87      1.0000 0.02130  0.32160  0.19330  Biso   1.000  C
  C88      1.0000 0.69970  0.67840  0.69330  Biso   1.000  C
  C89      1.0000 0.32160  0.02130  0.69330  Biso   1.000  C
  C90      1.0000 0.97870  0.30030  0.69330  Biso   1.000  C
  H115     1.0000 0.68220  0.74500  0.22680  Biso   1.000  H
  H116     1.0000 0.25500  0.93720  0.22680  Biso   1.000  H
  H117     1.0000 0.06280  0.31780  0.22680  Biso   1.000  H
  H118     1.0000 0.74500  0.68220  0.72680  Biso   1.000  H
  H119     1.0000 0.31780  0.06280  0.72680  Biso   1.000  H
  H120     1.0000 0.93720  0.25500  0.72680  Biso   1.000  H
  H121     1.0000 0.63540  0.67650  0.13740  Biso   1.000  H
  H122     1.0000 0.32350  0.95890  0.13740  Biso   1.000  H
  H123     1.0000 0.04110  0.36460  0.13740  Biso   1.000  H
  H124     1.0000 0.67650  0.63540  0.63740  Biso   1.000  H
  H125     1.0000 0.36460  0.04110  0.63740  Biso   1.000  H
  H126     1.0000 0.95890  0.32350  0.63740  Biso   1.000  H
  Cu7      1.0000 0.66670  0.33330  0.87540  Biso   1.000  Cu
  Cu8      1.0000 0.33330  0.66670  0.37540  Biso   1.000  Cu
  P13      1.0000 0.66670  0.33330  0.17840  Biso   1.000  P
  P14      1.0000 0.33330  0.66670  0.67840  Biso   1.000  P
  N37      1.0000 0.57370  0.28100  0.98060  Biso   1.000  N
  N38      1.0000 0.71900  0.29270  0.98060  Biso   1.000  N
  N39      1.0000 0.70730  0.42630  0.98060  Biso   1.000  N
  N40      1.0000 0.28100  0.57370  0.48060  Biso   1.000  N
  N41      1.0000 0.42630  0.70730  0.48060  Biso   1.000  N
  N42      1.0000 0.29270  0.71900  0.48060  Biso   1.000  N
  N43      1.0000 0.58370  0.28900  0.10910  Biso   1.000  N
  N44      1.0000 0.71100  0.29470  0.10910  Biso   1.000  N
  N45      1.0000 0.70530  0.41630  0.10910  Biso   1.000  N
  N46      1.0000 0.28900  0.58370  0.60910  Biso   1.000  N
  N47      1.0000 0.41630  0.70530  0.60910  Biso   1.000  N
  N48      1.0000 0.29470  0.71100  0.60910  Biso   1.000  N
  C91      1.0000 0.51830  0.25000  0.17000  Biso   1.000  C
  C92      1.0000 0.75000  0.26830  0.17000  Biso   1.000  C
  C93      1.0000 0.73170  0.48170  0.17000  Biso   1.000  C
  C94      1.0000 0.25000  0.51830  0.67000  Biso   1.000  C
  C95      1.0000 0.48170  0.73170  0.67000  Biso   1.000  C
  C96      1.0000 0.26830  0.75000  0.67000  Biso   1.000  C
  H127     1.0000 0.51100  0.24310  0.25780  Biso   1.000  H
  H128     1.0000 0.75690  0.26790  0.25780  Biso   1.000  H
  H129     1.0000 0.73210  0.48900  0.25780  Biso   1.000  H
  H130     1.0000 0.24310  0.51100  0.75780  Biso   1.000  H
  H131     1.0000 0.48900  0.73210  0.75780  Biso   1.000  H
  H132     1.0000 0.26790  0.75690  0.75780  Biso   1.000  H
  C97      1.0000 0.46610  0.22400  0.08100  Biso   1.000  C
  C98      1.0000 0.77600  0.24210  0.08100  Biso   1.000  C
  C99      1.0000 0.75790  0.53390  0.08100  Biso   1.000  C
  C100     1.0000 0.22400  0.46610  0.58100  Biso   1.000  C
  C101     1.0000 0.53390  0.75790  0.58100  Biso   1.000  C
  C102     1.0000 0.24210  0.77600  0.58100  Biso   1.000  C
  H133     1.0000 0.41520  0.20410  0.09120  Biso   1.000  H
  H134     1.0000 0.79590  0.21110  0.09120  Biso   1.000  H
  H135     1.0000 0.78890  0.58480  0.09120  Biso   1.000  H
  H136     1.0000 0.20410  0.41520  0.59120  Biso   1.000  H
  H137     1.0000 0.58480  0.78890  0.59120  Biso   1.000  H
  H138     1.0000 0.21110  0.79590  0.59120  Biso   1.000  H
  C103     1.0000 0.50470  0.23200  0.96700  Biso   1.000  C
  C104     1.0000 0.76800  0.27270  0.96700  Biso   1.000  C
  C105     1.0000 0.72730  0.49530  0.96700  Biso   1.000  C
  C106     1.0000 0.23200  0.50470  0.46700  Biso   1.000  C
  C107     1.0000 0.49530  0.72730  0.46700  Biso   1.000  C
  C108     1.0000 0.27270  0.76800  0.46700  Biso   1.000  C
  H139     1.0000 0.48360  0.20560  0.89210  Biso   1.000  H
  H140     1.0000 0.79440  0.27800  0.89210  Biso   1.000  H
  H141     1.0000 0.72200  0.51640  0.89210  Biso   1.000  H
  H142     1.0000 0.20560  0.48360  0.39210  Biso   1.000  H
  H143     1.0000 0.51640  0.72200  0.39210  Biso   1.000  H
  H144     1.0000 0.27800  0.79440  0.39210  Biso   1.000  H
  Cu9      1.0000 0.66670  0.33330  0.37500  Biso   1.000  Cu
  Cu10     1.0000 0.33330  0.66670  0.87500  Biso   1.000  Cu
  P15      1.0000 0.66670  0.33330  0.67830  Biso   1.000  P
  P16      1.0000 0.33330  0.66670  0.17830  Biso   1.000  P
  N49      1.0000 0.60800  0.24170  0.48130  Biso   1.000  N
  N50      1.0000 0.75830  0.36630  0.48130  Biso   1.000  N
  N51      1.0000 0.63370  0.39200  0.48130  Biso   1.000  N
  N52      1.0000 0.24170  0.60800  0.98130  Biso   1.000  N
  N53      1.0000 0.39200  0.63370  0.98130  Biso   1.000  N
  N54      1.0000 0.36630  0.75830  0.98130  Biso   1.000  N
  N55      1.0000 0.62400  0.25050  0.60770  Biso   1.000  N
  N56      1.0000 0.74950  0.37350  0.60770  Biso   1.000  N
  N57      1.0000 0.62650  0.37600  0.60770  Biso   1.000  N
  N58      1.0000 0.25050  0.62400  0.10770  Biso   1.000  N
  N59      1.0000 0.37600  0.62650  0.10770  Biso   1.000  N
  N60      1.0000 0.37350  0.74950  0.10770  Biso   1.000  N
  C109     1.0000 0.59000  0.18490  0.66800  Biso   1.000  C
  C110     1.0000 0.81510  0.40510  0.66800  Biso   1.000  C
  C111     1.0000 0.59490  0.41000  0.66800  Biso   1.000  C
  C112     1.0000 0.18490  0.59000  0.16800  Biso   1.000  C
  C113     1.0000 0.41000  0.59490  0.16800  Biso   1.000  C
  C114     1.0000 0.40510  0.81510  0.16800  Biso   1.000  C
  H145     1.0000 0.59400  0.17680  0.75510  Biso   1.000  H
  H146     1.0000 0.82320  0.41720  0.75510  Biso   1.000  H
  H147     1.0000 0.58280  0.40600  0.75510  Biso   1.000  H
  H148     1.0000 0.17680  0.59400  0.25510  Biso   1.000  H
  H149     1.0000 0.40600  0.58280  0.25510  Biso   1.000  H
  H150     1.0000 0.41720  0.82320  0.25510  Biso   1.000  H
  C115     1.0000 0.54900  0.13400  0.58300  Biso   1.000  C
  C116     1.0000 0.86600  0.41500  0.58300  Biso   1.000  C
  C117     1.0000 0.58500  0.45100  0.58300  Biso   1.000  C
  C118     1.0000 0.13400  0.54900  0.08300  Biso   1.000  C
  C119     1.0000 0.45100  0.58500  0.08300  Biso   1.000  C
  C120     1.0000 0.41500  0.86600  0.08300  Biso   1.000  C
  H151     1.0000 0.51820  0.08330  0.59690  Biso   1.000  H
  H152     1.0000 0.91670  0.43490  0.59690  Biso   1.000  H
  H153     1.0000 0.56510  0.48180  0.59690  Biso   1.000  H
  H154     1.0000 0.08330  0.51820  0.09690  Biso   1.000  H
  H155     1.0000 0.48180  0.56510  0.09690  Biso   1.000  H
  H156     1.0000 0.43490  0.91670  0.09690  Biso   1.000  H
  C121     1.0000 0.56100  0.17210  0.46800  Biso   1.000  C
  C122     1.0000 0.82790  0.38890  0.46800  Biso   1.000  C
  C123     1.0000 0.61110  0.43900  0.46800  Biso   1.000  C
  C124     1.0000 0.17210  0.56100  0.96800  Biso   1.000  C
  C125     1.0000 0.43900  0.61110  0.96800  Biso   1.000  C
  C126     1.0000 0.38890  0.82790  0.96800  Biso   1.000  C
  H157     1.0000 0.53760  0.15000  0.39120  Biso   1.000  H
  H158     1.0000 0.85000  0.38760  0.39120  Biso   1.000  H
  H159     1.0000 0.61240  0.46240  0.39120  Biso   1.000  H
  H160     1.0000 0.15000  0.53760  0.89120  Biso   1.000  H
  H161     1.0000 0.46240  0.61240  0.89120  Biso   1.000  H
  H162     1.0000 0.38760  0.85000  0.89120  Biso   1.000  H
  C127     1.0000 0.66560  0.69260  0.28400  Biso   1.000  C
  C128     1.0000 0.30740  0.97300  0.28400  Biso   1.000  C
  C129     1.0000 0.02700  0.33440  0.28400  Biso   1.000  C
  C130     1.0000 0.69260  0.66560  0.78400  Biso   1.000  C
  C131     1.0000 0.33440  0.02700  0.78400  Biso   1.000  C
  C132     1.0000 0.97300  0.30740  0.78400  Biso   1.000  C
  H163     1.0000 0.66210  0.73560  0.25850  Biso   1.000  H
  H164     1.0000 0.26440  0.92650  0.25850  Biso   1.000  H
  H165     1.0000 0.07350  0.33790  0.25850  Biso   1.000  H
  H166     1.0000 0.73560  0.66210  0.75850  Biso   1.000  H
  H167     1.0000 0.33790  0.07350  0.75850  Biso   1.000  H
  H168     1.0000 0.92650  0.26440  0.75850  Biso   1.000  H
  H169     1.0000 0.70860  0.70960  0.33940  Biso   1.000  H
  H170     1.0000 0.29040  0.99900  0.33940  Biso   1.000  H
  H171     1.0000 0.00100  0.29140  0.33940  Biso   1.000  H
  H172     1.0000 0.70960  0.70860  0.83940  Biso   1.000  H
  H173     1.0000 0.29140  0.00100  0.83940  Biso   1.000  H
  H174     1.0000 0.99900  0.29040  0.83940  Biso   1.000  H
  C133     1.0000 0.67450  0.66020  0.18000  Biso   1.000  C
  C134     1.0000 0.33980  0.01430  0.18000  Biso   1.000  C
  C135     1.0000 0.98570  0.32550  0.18000  Biso   1.000  C
  C136     1.0000 0.66020  0.67450  0.68000  Biso   1.000  C
  C137     1.0000 0.32550  0.98570  0.68000  Biso   1.000  C
  C138     1.0000 0.01430  0.33980  0.68000  Biso   1.000  C
  H175     1.0000 0.63350  0.64650  0.12080  Biso   1.000  H
  H176     1.0000 0.35350  0.98700  0.12080  Biso   1.000  H
  H177     1.0000 0.01300  0.36650  0.12080  Biso   1.000  H
  H178     1.0000 0.64650  0.63350  0.62080  Biso   1.000  H
  H179     1.0000 0.36650  0.01300  0.62080  Biso   1.000  H
  H180     1.0000 0.98700  0.35350  0.62080  Biso   1.000  H
  H181     1.0000 0.67490  0.61540  0.20400  Biso   1.000  H
  H182     1.0000 0.38460  0.05950  0.20400  Biso   1.000  H
  H183     1.0000 0.94050  0.32510  0.20400  Biso   1.000  H
  H184     1.0000 0.61540  0.67490  0.70400  Biso   1.000  H
  H185     1.0000 0.32510  0.94050  0.70400  Biso   1.000  H
  H186     1.0000 0.05950  0.38460  0.70400  Biso   1.000  H
