data_image0
_cell_length_a       6.6144
_cell_length_b       7.0328
_cell_length_c       13.3998
_cell_angle_alpha    90
_cell_angle_beta     90
_cell_angle_gamma    90

_symmetry_space_group_name_H-M    "P 1"
_symmetry_int_tables_number       1

loop_
  _symmetry_equiv_pos_as_xyz
  'x, y, z'

loop_
  _atom_site_label
  _atom_site_occupancy
  _atom_site_fract_x
  _atom_site_fract_y
  _atom_site_fract_z
  _atom_site_thermal_displace_type
  _atom_site_B_iso_or_equiv
  _atom_site_type_symbol
  Nb1      1.0000 0.00000  0.00000  0.00000  Biso   1.000  Nb
  Nb2      1.0000 0.50000  0.50000  0.50000  Biso   1.000  Nb
  Cu1      1.0000 0.00000  0.50000  0.12121  Biso   1.000  Cu
  Cu2      1.0000 0.00000  0.50000  0.87879  Biso   1.000  Cu
  Cu3      1.0000 0.50000  0.00000  0.62121  Biso   1.000  Cu
  Cu4      1.0000 0.50000  0.00000  0.37879  Biso   1.000  Cu
  F1       1.0000 0.71230  0.00000  0.00000  Biso   1.000  F
  F2       1.0000 0.28770  0.00000  0.00000  Biso   1.000  F
  F3       1.0000 0.21230  0.50000  0.50000  Biso   1.000  F
  F4       1.0000 0.78770  0.50000  0.50000  Biso   1.000  F
  F5       1.0000 0.00000  0.27460  0.00000  Biso   1.000  F
  F6       1.0000 0.00000  0.72540  0.00000  Biso   1.000  F
  F7       1.0000 0.50000  0.77460  0.50000  Biso   1.000  F
  F8       1.0000 0.50000  0.22540  0.50000  Biso   1.000  F
  F9       1.0000 0.00000  0.00000  0.14350  Biso   1.000  F
  F10      1.0000 0.00000  0.00000  0.85650  Biso   1.000  F
  F11      1.0000 0.50000  0.50000  0.64350  Biso   1.000  F
  F12      1.0000 0.50000  0.50000  0.35650  Biso   1.000  F
  N1       1.0000 0.28900  0.50000  0.14453  Biso   1.000  N
  N2       1.0000 0.71100  0.50000  0.14453  Biso   1.000  N
  N3       1.0000 0.71100  0.50000  0.85547  Biso   1.000  N
  N4       1.0000 0.28900  0.50000  0.85547  Biso   1.000  N
  N5       1.0000 0.78900  0.00000  0.64453  Biso   1.000  N
  N6       1.0000 0.21100  0.00000  0.64453  Biso   1.000  N
  N7       1.0000 0.21100  0.00000  0.35547  Biso   1.000  N
  N8       1.0000 0.78900  0.00000  0.35547  Biso   1.000  N
  C1       1.0000 0.39540  0.33880  0.14600  Biso   1.000  C
  C2       1.0000 0.60460  0.66120  0.14600  Biso   1.000  C
  C3       1.0000 0.60460  0.33880  0.85400  Biso   1.000  C
  C4       1.0000 0.39540  0.66120  0.85400  Biso   1.000  C
  C5       1.0000 0.89540  0.83880  0.64600  Biso   1.000  C
  C6       1.0000 0.10460  0.16120  0.64600  Biso   1.000  C
  C7       1.0000 0.10460  0.83880  0.35400  Biso   1.000  C
  C8       1.0000 0.89540  0.16120  0.35400  Biso   1.000  C
  C9       1.0000 0.60460  0.66120  0.85400  Biso   1.000  C
  C10      1.0000 0.39540  0.33880  0.85400  Biso   1.000  C
  C11      1.0000 0.39540  0.66120  0.14600  Biso   1.000  C
  C12      1.0000 0.60460  0.33880  0.14600  Biso   1.000  C
  C13      1.0000 0.10460  0.16120  0.35400  Biso   1.000  C
  C14      1.0000 0.89540  0.83880  0.35400  Biso   1.000  C
  C15      1.0000 0.89540  0.16120  0.64600  Biso   1.000  C
  C16      1.0000 0.10460  0.83880  0.64600  Biso   1.000  C
  H1       1.0000 0.32600  0.22600  0.14500  Biso   1.000  H
  H2       1.0000 0.67400  0.77400  0.14500  Biso   1.000  H
  H3       1.0000 0.67400  0.22600  0.85500  Biso   1.000  H
  H4       1.0000 0.32600  0.77400  0.85500  Biso   1.000  H
  H5       1.0000 0.82600  0.72600  0.64500  Biso   1.000  H
  H6       1.0000 0.17400  0.27400  0.64500  Biso   1.000  H
  H7       1.0000 0.17400  0.72600  0.35500  Biso   1.000  H
  H8       1.0000 0.82600  0.27400  0.35500  Biso   1.000  H
  H9       1.0000 0.67400  0.77400  0.85500  Biso   1.000  H
  H10      1.0000 0.32600  0.22600  0.85500  Biso   1.000  H
  H11      1.0000 0.32600  0.77400  0.14500  Biso   1.000  H
  H12      1.0000 0.67400  0.22600  0.14500  Biso   1.000  H
  H13      1.0000 0.17400  0.27400  0.35500  Biso   1.000  H
  H14      1.0000 0.82600  0.72600  0.35500  Biso   1.000  H
  H15      1.0000 0.82600  0.27400  0.64500  Biso   1.000  H
  H16      1.0000 0.17400  0.72600  0.64500  Biso   1.000  H
