data_image0
_cell_length_a       16.5122
_cell_length_b       21.6214
_cell_length_c       3.8322
_cell_angle_alpha    90
_cell_angle_beta     90
_cell_angle_gamma    90

_symmetry_space_group_name_H-M    "P 1"
_symmetry_int_tables_number       1

loop_
  _symmetry_equiv_pos_as_xyz
  'x, y, z'

loop_
  _atom_site_label
  _atom_site_occupancy
  _atom_site_fract_x
  _atom_site_fract_y
  _atom_site_fract_z
  _atom_site_thermal_displace_type
  _atom_site_B_iso_or_equiv
  _atom_site_type_symbol
  Nb1      1.0000 0.00000  0.25000  0.87100  Biso   1.000  Nb
  Nb2      1.0000 0.00000  0.75000  0.12900  Biso   1.000  Nb
  Nb3      1.0000 0.50000  0.75000  0.87100  Biso   1.000  Nb
  Nb4      1.0000 0.50000  0.25000  0.12900  Biso   1.000  Nb
  Cu1      1.0000 0.75000  0.25000  0.50000  Biso   1.000  Cu
  Cu2      1.0000 0.25000  0.25000  0.50000  Biso   1.000  Cu
  Cu3      1.0000 0.25000  0.75000  0.50000  Biso   1.000  Cu
  Cu4      1.0000 0.75000  0.75000  0.50000  Biso   1.000  Cu
  F1       1.0000 0.88500  0.25000  0.93480  Biso   1.000  F
  F2       1.0000 0.11500  0.25000  0.93480  Biso   1.000  F
  F3       1.0000 0.11500  0.75000  0.06520  Biso   1.000  F
  F4       1.0000 0.88500  0.75000  0.06520  Biso   1.000  F
  F5       1.0000 0.38500  0.75000  0.93480  Biso   1.000  F
  F6       1.0000 0.61500  0.75000  0.93480  Biso   1.000  F
  F7       1.0000 0.61500  0.25000  0.06520  Biso   1.000  F
  F8       1.0000 0.38500  0.25000  0.06520  Biso   1.000  F
  F9       1.0000 0.00000  0.33837  0.92420  Biso   1.000  F
  F10      1.0000 0.00000  0.16163  0.92420  Biso   1.000  F
  F11      1.0000 0.00000  0.83837  0.07580  Biso   1.000  F
  F12      1.0000 0.00000  0.66163  0.07580  Biso   1.000  F
  F13      1.0000 0.50000  0.83837  0.92420  Biso   1.000  F
  F14      1.0000 0.50000  0.66163  0.92420  Biso   1.000  F
  F15      1.0000 0.50000  0.33837  0.07580  Biso   1.000  F
  F16      1.0000 0.50000  0.16163  0.07580  Biso   1.000  F
  O1       1.0000 0.00000  0.25000  0.42100  Biso   1.000  O
  O2       1.0000 0.00000  0.75000  0.57900  Biso   1.000  O
  O3       1.0000 0.50000  0.75000  0.42100  Biso   1.000  O
  O4       1.0000 0.50000  0.25000  0.57900  Biso   1.000  O
  O5       1.0000 0.50000  0.03400  0.26700  Biso   1.000  O
  O6       1.0000 0.50000  0.46600  0.26700  Biso   1.000  O
  O7       1.0000 0.50000  0.53400  0.73300  Biso   1.000  O
  O8       1.0000 0.50000  0.96600  0.73300  Biso   1.000  O
  O9       1.0000 0.00000  0.53400  0.26700  Biso   1.000  O
  O10      1.0000 0.00000  0.96600  0.26700  Biso   1.000  O
  O11      1.0000 0.00000  0.03400  0.73300  Biso   1.000  O
  O12      1.0000 0.00000  0.46600  0.73300  Biso   1.000  O
  N1       1.0000 0.75000  0.33710  0.50000  Biso   1.000  N
  N2       1.0000 0.25000  0.16290  0.50000  Biso   1.000  N
  N3       1.0000 0.25000  0.83710  0.50000  Biso   1.000  N
  N4       1.0000 0.75000  0.66290  0.50000  Biso   1.000  N
  N5       1.0000 0.25000  0.66290  0.50000  Biso   1.000  N
  N6       1.0000 0.75000  0.83710  0.50000  Biso   1.000  N
  N7       1.0000 0.75000  0.16290  0.50000  Biso   1.000  N
  N8       1.0000 0.25000  0.33710  0.50000  Biso   1.000  N
  C1       1.0000 0.68520  0.36869  0.60890  Biso   1.000  C
  C2       1.0000 0.31480  0.13131  0.60890  Biso   1.000  C
  C3       1.0000 0.31480  0.86869  0.39110  Biso   1.000  C
  C4       1.0000 0.68520  0.63131  0.39110  Biso   1.000  C
  C5       1.0000 0.18520  0.86869  0.60890  Biso   1.000  C
  C6       1.0000 0.81480  0.63131  0.60890  Biso   1.000  C
  C7       1.0000 0.81480  0.36869  0.39110  Biso   1.000  C
  C8       1.0000 0.18520  0.13131  0.39110  Biso   1.000  C
  C9       1.0000 0.31480  0.63131  0.39110  Biso   1.000  C
  C10      1.0000 0.68520  0.86869  0.39110  Biso   1.000  C
  C11      1.0000 0.68520  0.13131  0.60890  Biso   1.000  C
  C12      1.0000 0.31480  0.36869  0.60890  Biso   1.000  C
  C13      1.0000 0.81480  0.13131  0.39110  Biso   1.000  C
  C14      1.0000 0.18520  0.36869  0.39110  Biso   1.000  C
  C15      1.0000 0.18520  0.63131  0.60890  Biso   1.000  C
  C16      1.0000 0.81480  0.86869  0.60890  Biso   1.000  C
  H1       1.0000 0.64030  0.34680  0.68680  Biso   1.000  H
  H2       1.0000 0.35970  0.15320  0.68680  Biso   1.000  H
  H3       1.0000 0.35970  0.84680  0.31320  Biso   1.000  H
  H4       1.0000 0.64030  0.65320  0.31320  Biso   1.000  H
  H5       1.0000 0.14030  0.84680  0.68680  Biso   1.000  H
  H6       1.0000 0.85970  0.65320  0.68680  Biso   1.000  H
  H7       1.0000 0.85970  0.34680  0.31320  Biso   1.000  H
  H8       1.0000 0.14030  0.15320  0.31320  Biso   1.000  H
  H9       1.0000 0.35970  0.65320  0.31320  Biso   1.000  H
  H10      1.0000 0.64030  0.84680  0.31320  Biso   1.000  H
  H11      1.0000 0.64030  0.15320  0.68680  Biso   1.000  H
  H12      1.0000 0.35970  0.34680  0.68680  Biso   1.000  H
  H13      1.0000 0.85970  0.15320  0.31320  Biso   1.000  H
  H14      1.0000 0.14030  0.34680  0.31320  Biso   1.000  H
  H15      1.0000 0.14030  0.65320  0.68680  Biso   1.000  H
  H16      1.0000 0.85970  0.84680  0.68680  Biso   1.000  H
  C17      1.0000 0.68250  0.43262  0.61040  Biso   1.000  C
  C18      1.0000 0.31750  0.06738  0.61040  Biso   1.000  C
  C19      1.0000 0.31750  0.93262  0.38960  Biso   1.000  C
  C20      1.0000 0.68250  0.56738  0.38960  Biso   1.000  C
  C21      1.0000 0.18250  0.93262  0.61040  Biso   1.000  C
  C22      1.0000 0.81750  0.56738  0.61040  Biso   1.000  C
  C23      1.0000 0.81750  0.43262  0.38960  Biso   1.000  C
  C24      1.0000 0.18250  0.06738  0.38960  Biso   1.000  C
  C25      1.0000 0.31750  0.56738  0.38960  Biso   1.000  C
  C26      1.0000 0.68250  0.93262  0.38960  Biso   1.000  C
  C27      1.0000 0.68250  0.06738  0.61040  Biso   1.000  C
  C28      1.0000 0.31750  0.43262  0.61040  Biso   1.000  C
  C29      1.0000 0.81750  0.06738  0.38960  Biso   1.000  C
  C30      1.0000 0.18250  0.43262  0.38960  Biso   1.000  C
  C31      1.0000 0.18250  0.56738  0.61040  Biso   1.000  C
  C32      1.0000 0.81750  0.93262  0.61040  Biso   1.000  C
  H17      1.0000 0.63610  0.45320  0.68430  Biso   1.000  H
  H18      1.0000 0.36390  0.04680  0.68430  Biso   1.000  H
  H19      1.0000 0.36390  0.95320  0.31570  Biso   1.000  H
  H20      1.0000 0.63610  0.54680  0.31570  Biso   1.000  H
  H21      1.0000 0.13610  0.95320  0.68430  Biso   1.000  H
  H22      1.0000 0.86390  0.54680  0.68430  Biso   1.000  H
  H23      1.0000 0.86390  0.45320  0.31570  Biso   1.000  H
  H24      1.0000 0.13610  0.04680  0.31570  Biso   1.000  H
  H25      1.0000 0.36390  0.54680  0.31570  Biso   1.000  H
  H26      1.0000 0.63610  0.95320  0.31570  Biso   1.000  H
  H27      1.0000 0.63610  0.04680  0.68430  Biso   1.000  H
  H28      1.0000 0.36390  0.45320  0.68430  Biso   1.000  H
  H29      1.0000 0.86390  0.04680  0.31570  Biso   1.000  H
  H30      1.0000 0.13610  0.45320  0.31570  Biso   1.000  H
  H31      1.0000 0.13610  0.54680  0.68430  Biso   1.000  H
  H32      1.0000 0.86390  0.95320  0.68430  Biso   1.000  H
  C33      1.0000 0.75000  0.46570  0.50000  Biso   1.000  C
  C34      1.0000 0.25000  0.03430  0.50000  Biso   1.000  C
  C35      1.0000 0.25000  0.96570  0.50000  Biso   1.000  C
  C36      1.0000 0.75000  0.53430  0.50000  Biso   1.000  C
  C37      1.0000 0.25000  0.53430  0.50000  Biso   1.000  C
  C38      1.0000 0.75000  0.96570  0.50000  Biso   1.000  C
  C39      1.0000 0.75000  0.03430  0.50000  Biso   1.000  C
  C40      1.0000 0.25000  0.46570  0.50000  Biso   1.000  C
  H33      1.0000 0.50000  0.07730  0.23000  Biso   1.000  H
  H34      1.0000 0.50000  0.42270  0.23000  Biso   1.000  H
  H35      1.0000 0.50000  0.57730  0.77000  Biso   1.000  H
  H36      1.0000 0.50000  0.92270  0.77000  Biso   1.000  H
  H37      1.0000 0.00000  0.57730  0.23000  Biso   1.000  H
  H38      1.0000 0.00000  0.92270  0.23000  Biso   1.000  H
  H39      1.0000 0.00000  0.07730  0.77000  Biso   1.000  H
  H40      1.0000 0.00000  0.42270  0.77000  Biso   1.000  H
  H41      1.0000 0.50000  0.03500  0.01200  Biso   1.000  H
  H42      1.0000 0.50000  0.46500  0.01200  Biso   1.000  H
  H43      1.0000 0.50000  0.53500  0.98800  Biso   1.000  H
  H44      1.0000 0.50000  0.96500  0.98800  Biso   1.000  H
  H45      1.0000 0.00000  0.53500  0.01200  Biso   1.000  H
  H46      1.0000 0.00000  0.96500  0.01200  Biso   1.000  H
  H47      1.0000 0.00000  0.03500  0.98800  Biso   1.000  H
  H48      1.0000 0.00000  0.46500  0.98800  Biso   1.000  H
