data_image0
_cell_length_a       9.263
_cell_length_b       11.0891
_cell_length_c       21.1717
_cell_angle_alpha    90
_cell_angle_beta     100.104
_cell_angle_gamma    90

_symmetry_space_group_name_H-M    "P 1"
_symmetry_int_tables_number       1

loop_
  _symmetry_equiv_pos_as_xyz
  'x, y, z'

loop_
  _atom_site_label
  _atom_site_occupancy
  _atom_site_fract_x
  _atom_site_fract_y
  _atom_site_fract_z
  _atom_site_thermal_displace_type
  _atom_site_B_iso_or_equiv
  _atom_site_type_symbol
  Cu1      1.0000 0.83814  0.37908  0.64904  Biso   1.000  Cu
  Cu2      1.0000 0.83814  0.62092  0.14904  Biso   1.000  Cu
  Cu3      1.0000 0.33814  0.87908  0.64904  Biso   1.000  Cu
  Cu4      1.0000 0.33814  0.12092  0.14904  Biso   1.000  Cu
  F1       1.0000 0.09100  0.60440  0.34151  Biso   1.000  F
  F2       1.0000 0.09100  0.39560  0.84151  Biso   1.000  F
  F3       1.0000 0.59100  0.10440  0.34151  Biso   1.000  F
  F4       1.0000 0.59100  0.89560  0.84151  Biso   1.000  F
  F5       1.0000 0.20270  0.67040  0.45931  Biso   1.000  F
  F6       1.0000 0.20270  0.32960  0.95931  Biso   1.000  F
  F7       1.0000 0.70270  0.17040  0.45931  Biso   1.000  F
  F8       1.0000 0.70270  0.82960  0.95931  Biso   1.000  F
  F9       1.0000 0.61390  0.42080  0.45463  Biso   1.000  F
  F10      1.0000 0.61390  0.57920  0.95463  Biso   1.000  F
  F11      1.0000 0.11390  0.92080  0.45463  Biso   1.000  F
  F12      1.0000 0.11390  0.07920  0.95463  Biso   1.000  F
  F13      1.0000 0.50050  0.35240  0.33706  Biso   1.000  F
  F14      1.0000 0.50050  0.64760  0.83706  Biso   1.000  F
  F15      1.0000 0.00050  0.85240  0.33706  Biso   1.000  F
  F16      1.0000 0.00050  0.14760  0.83706  Biso   1.000  F
  N1       1.0000 0.00000  0.52680  0.19842  Biso   1.000  N
  N2       1.0000 0.00000  0.47320  0.69842  Biso   1.000  N
  N3       1.0000 0.50000  0.02680  0.19842  Biso   1.000  N
  N4       1.0000 0.50000  0.97320  0.69842  Biso   1.000  N
  N5       1.0000 0.42120  0.78520  0.58022  Biso   1.000  N
  N6       1.0000 0.42120  0.21480  0.08022  Biso   1.000  N
  N7       1.0000 0.92120  0.28520  0.58022  Biso   1.000  N
  N8       1.0000 0.92120  0.71480  0.08022  Biso   1.000  N
  N9       1.0000 0.66150  0.46300  0.60593  Biso   1.000  N
  N10      1.0000 0.66150  0.53700  0.10593  Biso   1.000  N
  N11      1.0000 0.16150  0.96300  0.60593  Biso   1.000  N
  N12      1.0000 0.16150  0.03700  0.10593  Biso   1.000  N
  N13      1.0000 0.30220  0.25430  0.20755  Biso   1.000  N
  N14      1.0000 0.30220  0.74570  0.70755  Biso   1.000  N
  N15      1.0000 0.80220  0.75430  0.20755  Biso   1.000  N
  N16      1.0000 0.80220  0.24570  0.70755  Biso   1.000  N
  C1       1.0000 0.48380  0.46780  0.42762  Biso   1.000  C
  C2       1.0000 0.48380  0.53220  0.92762  Biso   1.000  C
  C3       1.0000 0.98380  0.96780  0.42762  Biso   1.000  C
  C4       1.0000 0.98380  0.03220  0.92762  Biso   1.000  C
  C5       1.0000 0.28890  0.47210  0.33362  Biso   1.000  C
  C6       1.0000 0.28890  0.52790  0.83362  Biso   1.000  C
  C7       1.0000 0.78890  0.97210  0.33362  Biso   1.000  C
  C8       1.0000 0.78890  0.02790  0.83362  Biso   1.000  C
  C9       1.0000 0.41590  0.55000  0.46275  Biso   1.000  C
  C10      1.0000 0.41590  0.45000  0.96275  Biso   1.000  C
  C11      1.0000 0.91590  0.05000  0.46275  Biso   1.000  C
  C12      1.0000 0.91590  0.95000  0.96275  Biso   1.000  C
  C13      1.0000 0.47560  0.58550  0.52844  Biso   1.000  C
  C14      1.0000 0.47560  0.41450  0.02844  Biso   1.000  C
  C15      1.0000 0.97560  0.08550  0.52844  Biso   1.000  C
  C16      1.0000 0.97560  0.91450  0.02844  Biso   1.000  C
  C17      1.0000 0.57930  0.51670  0.56906  Biso   1.000  C
  C18      1.0000 0.57930  0.48330  0.06906  Biso   1.000  C
  C19      1.0000 0.07930  0.01670  0.56906  Biso   1.000  C
  C20      1.0000 0.07930  0.98330  0.06906  Biso   1.000  C
  C21      1.0000 0.42290  0.43150  0.36626  Biso   1.000  C
  C22      1.0000 0.42290  0.56850  0.86626  Biso   1.000  C
  C23      1.0000 0.92290  0.93150  0.36626  Biso   1.000  C
  C24      1.0000 0.92290  0.06850  0.86626  Biso   1.000  C
  C25      1.0000 0.09990  0.48770  0.23203  Biso   1.000  C
  C26      1.0000 0.09990  0.51230  0.73203  Biso   1.000  C
  C27      1.0000 0.59990  0.98770  0.23203  Biso   1.000  C
  C28      1.0000 0.59990  0.01230  0.73203  Biso   1.000  C
  C29      1.0000 0.22160  0.55740  0.36823  Biso   1.000  C
  C30      1.0000 0.22160  0.44260  0.86823  Biso   1.000  C
  C31      1.0000 0.72160  0.05740  0.36823  Biso   1.000  C
  C32      1.0000 0.72160  0.94260  0.86823  Biso   1.000  C
  C33      1.0000 0.28150  0.59290  0.42943  Biso   1.000  C
  C34      1.0000 0.28150  0.40710  0.92943  Biso   1.000  C
  C35      1.0000 0.78150  0.09290  0.42943  Biso   1.000  C
  C36      1.0000 0.78150  0.90710  0.92943  Biso   1.000  C
  C37      1.0000 0.44160  0.69650  0.55469  Biso   1.000  C
  C38      1.0000 0.44160  0.30350  0.05469  Biso   1.000  C
  C39      1.0000 0.94160  0.19650  0.55469  Biso   1.000  C
  C40      1.0000 0.94160  0.80350  0.05469  Biso   1.000  C
  C41      1.0000 0.22450  0.43410  0.26887  Biso   1.000  C
  C42      1.0000 0.22450  0.56590  0.76887  Biso   1.000  C
  C43      1.0000 0.72450  0.93410  0.26887  Biso   1.000  C
  C44      1.0000 0.72450  0.06590  0.76887  Biso   1.000  C
  C45      1.0000 0.27430  0.33420  0.23767  Biso   1.000  C
  C46      1.0000 0.27430  0.66580  0.73767  Biso   1.000  C
  C47      1.0000 0.77430  0.83420  0.23767  Biso   1.000  C
  C48      1.0000 0.77430  0.16580  0.73767  Biso   1.000  C
  O1       1.0000 0.94820  0.45800  0.43081  Biso   1.000  O
  O2       1.0000 0.94820  0.54200  0.93081  Biso   1.000  O
  O3       1.0000 0.44820  0.95800  0.43081  Biso   1.000  O
  O4       1.0000 0.44820  0.04200  0.93081  Biso   1.000  O
  O5       1.0000 0.78350  0.55400  0.36500  Biso   1.000  O
  O6       1.0000 0.78350  0.44600  0.86500  Biso   1.000  O
  O7       1.0000 0.28350  0.05400  0.36500  Biso   1.000  O
  O8       1.0000 0.28350  0.94600  0.86500  Biso   1.000  O
  N17      1.0000 0.82650  0.82320  0.68207  Biso   1.000  N
  N18      1.0000 0.82650  0.17680  0.18207  Biso   1.000  N
  N19      1.0000 0.32650  0.32320  0.68207  Biso   1.000  N
  N20      1.0000 0.32650  0.67680  0.18207  Biso   1.000  N
  N21      1.0000 0.86100  0.54180  0.41785  Biso   1.000  N
  N22      1.0000 0.86100  0.45820  0.91785  Biso   1.000  N
  N23      1.0000 0.36100  0.04180  0.41785  Biso   1.000  N
  N24      1.0000 0.36100  0.95820  0.91785  Biso   1.000  N
  C49      1.0000 0.75370  0.72570  0.45382  Biso   1.000  C
  C50      1.0000 0.75370  0.27430  0.95382  Biso   1.000  C
  C51      1.0000 0.25370  0.22570  0.45382  Biso   1.000  C
  C52      1.0000 0.25370  0.77430  0.95382  Biso   1.000  C
  H1       1.0000 0.70310  0.73800  0.41120  Biso   1.000  H
  H2       1.0000 0.70310  0.26200  0.91120  Biso   1.000  H
  H3       1.0000 0.20310  0.23800  0.41120  Biso   1.000  H
  H4       1.0000 0.20310  0.76200  0.91120  Biso   1.000  H
  C53      1.0000 0.73500  0.80490  0.50280  Biso   1.000  C
  C54      1.0000 0.73500  0.19510  0.00280  Biso   1.000  C
  C55      1.0000 0.23500  0.30490  0.50280  Biso   1.000  C
  C56      1.0000 0.23500  0.69510  0.00280  Biso   1.000  C
  H5       1.0000 0.67060  0.87180  0.49380  Biso   1.000  H
  H6       1.0000 0.67060  0.12820  0.99380  Biso   1.000  H
  H7       1.0000 0.17060  0.37180  0.49380  Biso   1.000  H
  H8       1.0000 0.17060  0.62820  0.99380  Biso   1.000  H
  C57      1.0000 0.73520  0.74460  0.70399  Biso   1.000  C
  C58      1.0000 0.73520  0.25540  0.20399  Biso   1.000  C
  C59      1.0000 0.23520  0.24460  0.70399  Biso   1.000  C
  C60      1.0000 0.23520  0.75540  0.20399  Biso   1.000  C
  H9       1.0000 0.64340  0.72510  0.67830  Biso   1.000  H
  H10      1.0000 0.64340  0.27490  0.17830  Biso   1.000  H
  H11      1.0000 0.14340  0.22510  0.67830  Biso   1.000  H
  H12      1.0000 0.14340  0.77490  0.17830  Biso   1.000  H
  C61      1.0000 0.81080  0.78620  0.56520  Biso   1.000  C
  C62      1.0000 0.81080  0.21380  0.06520  Biso   1.000  C
  C63      1.0000 0.31080  0.28620  0.56520  Biso   1.000  C
  C64      1.0000 0.31080  0.71380  0.06520  Biso   1.000  C
  N25      1.0000 0.91010  0.72570  0.80123  Biso   1.000  N
  N26      1.0000 0.91010  0.27430  0.30123  Biso   1.000  N
  N27      1.0000 0.41010  0.22570  0.80123  Biso   1.000  N
  N28      1.0000 0.41010  0.77430  0.30123  Biso   1.000  N
  C65      1.0000 0.99900  0.80790  0.77763  Biso   1.000  C
  C66      1.0000 0.99900  0.19210  0.27763  Biso   1.000  C
  C67      1.0000 0.49900  0.30790  0.77763  Biso   1.000  C
  C68      1.0000 0.49900  0.69210  0.27763  Biso   1.000  C
  H13      1.0000 0.08940  0.83210  0.80300  Biso   1.000  H
  H14      1.0000 0.08940  0.16790  0.30300  Biso   1.000  H
  H15      1.0000 0.58940  0.33210  0.80300  Biso   1.000  H
  H16      1.0000 0.58940  0.66790  0.30300  Biso   1.000  H
  C69      1.0000 0.95580  0.85460  0.71718  Biso   1.000  C
  C70      1.0000 0.95580  0.14540  0.21718  Biso   1.000  C
  C71      1.0000 0.45580  0.35460  0.71718  Biso   1.000  C
  C72      1.0000 0.45580  0.64540  0.21718  Biso   1.000  C
  H17      1.0000 0.01780  0.90940  0.70020  Biso   1.000  H
  H18      1.0000 0.01780  0.09060  0.20020  Biso   1.000  H
  H19      1.0000 0.51780  0.40940  0.70020  Biso   1.000  H
  H20      1.0000 0.51780  0.59060  0.20020  Biso   1.000  H
  C73      1.0000 0.84750  0.62900  0.46862  Biso   1.000  C
  C74      1.0000 0.84750  0.37100  0.96862  Biso   1.000  C
  C75      1.0000 0.34750  0.12900  0.46862  Biso   1.000  C
  C76      1.0000 0.34750  0.87100  0.96862  Biso   1.000  C
  C77      1.0000 0.78210  0.87280  0.61624  Biso   1.000  C
  C78      1.0000 0.78210  0.12720  0.11624  Biso   1.000  C
  C79      1.0000 0.28210  0.37280  0.61624  Biso   1.000  C
  C80      1.0000 0.28210  0.62720  0.11624  Biso   1.000  C
  H21      1.0000 0.83650  0.94850  0.61250  Biso   1.000  H
  H22      1.0000 0.83650  0.05150  0.11250  Biso   1.000  H
  H23      1.0000 0.33650  0.44850  0.61250  Biso   1.000  H
  H24      1.0000 0.33650  0.55150  0.11250  Biso   1.000  H
  H25      1.0000 0.67620  0.89240  0.60920  Biso   1.000  H
  H26      1.0000 0.67620  0.10760  0.10920  Biso   1.000  H
  H27      1.0000 0.17620  0.39240  0.60920  Biso   1.000  H
  H28      1.0000 0.17620  0.60760  0.10920  Biso   1.000  H
  C81      1.0000 0.92530  0.60970  0.52905  Biso   1.000  C
  C82      1.0000 0.92530  0.39030  0.02905  Biso   1.000  C
  C83      1.0000 0.42530  0.10970  0.52905  Biso   1.000  C
  C84      1.0000 0.42530  0.89030  0.02905  Biso   1.000  C
  H29      1.0000 0.99050  0.54320  0.53750  Biso   1.000  H
  H30      1.0000 0.99050  0.45680  0.03750  Biso   1.000  H
  H31      1.0000 0.49050  0.04320  0.53750  Biso   1.000  H
  H32      1.0000 0.49050  0.95680  0.03750  Biso   1.000  H
  C85      1.0000 0.90700  0.68910  0.57771  Biso   1.000  C
  C86      1.0000 0.90700  0.31090  0.07771  Biso   1.000  C
  C87      1.0000 0.40700  0.18910  0.57771  Biso   1.000  C
  C88      1.0000 0.40700  0.81090  0.07771  Biso   1.000  C
  H33      1.0000 0.96050  0.67720  0.61980  Biso   1.000  H
  H34      1.0000 0.96050  0.32280  0.11980  Biso   1.000  H
  H35      1.0000 0.46050  0.17720  0.61980  Biso   1.000  H
  H36      1.0000 0.46050  0.82280  0.11980  Biso   1.000  H
  C89      1.0000 0.77570  0.69260  0.76373  Biso   1.000  C
  C90      1.0000 0.77570  0.30740  0.26373  Biso   1.000  C
  C91      1.0000 0.27570  0.19260  0.76373  Biso   1.000  C
  C92      1.0000 0.27570  0.80740  0.26373  Biso   1.000  C
  H37      1.0000 0.71370  0.63560  0.77920  Biso   1.000  H
  H38      1.0000 0.71370  0.36440  0.27920  Biso   1.000  H
  H39      1.0000 0.21370  0.13560  0.77920  Biso   1.000  H
  H40      1.0000 0.21370  0.86440  0.27920  Biso   1.000  H
