data_image0
_cell_length_a       8.4509
_cell_length_b       16.1974
_cell_length_c       9.8423
_cell_angle_alpha    90
_cell_angle_beta     106.324
_cell_angle_gamma    90

_symmetry_space_group_name_H-M    "P 1"
_symmetry_int_tables_number       1

loop_
  _symmetry_equiv_pos_as_xyz
  'x, y, z'

loop_
  _atom_site_label
  _atom_site_occupancy
  _atom_site_fract_x
  _atom_site_fract_y
  _atom_site_fract_z
  _atom_site_thermal_displace_type
  _atom_site_B_iso_or_equiv
  _atom_site_type_symbol
  Cu1      1.0000 0.57245  0.02879  0.63561  Biso   1.000  Cu
  Cu2      1.0000 0.42755  0.52879  0.86439  Biso   1.000  Cu
  Cu3      1.0000 0.42755  0.97121  0.36439  Biso   1.000  Cu
  Cu4      1.0000 0.57245  0.47121  0.13561  Biso   1.000  Cu
  I1       1.0000 0.25297  0.04555  0.51166  Biso   1.000  I
  I2       1.0000 0.74703  0.54555  0.98834  Biso   1.000  I
  I3       1.0000 0.74703  0.95445  0.48834  Biso   1.000  I
  I4       1.0000 0.25297  0.45445  0.01166  Biso   1.000  I
  C1       1.0000 0.71440  0.99620  0.93840  Biso   1.000  C
  C2       1.0000 0.28560  0.49620  0.56160  Biso   1.000  C
  C3       1.0000 0.28560  0.00380  0.06160  Biso   1.000  C
  C4       1.0000 0.71440  0.50380  0.43840  Biso   1.000  C
  H1       1.0000 0.75140  0.04960  0.93050  Biso   1.000  H
  H2       1.0000 0.24860  0.54960  0.56950  Biso   1.000  H
  H3       1.0000 0.24860  0.95040  0.06950  Biso   1.000  H
  H4       1.0000 0.75140  0.45040  0.43050  Biso   1.000  H
  C5       1.0000 0.76160  0.95990  0.06890  Biso   1.000  C
  C6       1.0000 0.23840  0.45990  0.43110  Biso   1.000  C
  C7       1.0000 0.23840  0.04010  0.93110  Biso   1.000  C
  C8       1.0000 0.76160  0.54010  0.56890  Biso   1.000  C
  H5       1.0000 0.82940  0.98730  0.14670  Biso   1.000  H
  H6       1.0000 0.17060  0.48730  0.35330  Biso   1.000  H
  H7       1.0000 0.17060  0.01270  0.85330  Biso   1.000  H
  H8       1.0000 0.82940  0.51270  0.64670  Biso   1.000  H
  C9       1.0000 0.70510  0.88140  0.08080  Biso   1.000  C
  C10      1.0000 0.29490  0.38140  0.41920  Biso   1.000  C
  C11      1.0000 0.29490  0.11860  0.91920  Biso   1.000  C
  C12      1.0000 0.70510  0.61860  0.58080  Biso   1.000  C
  H9       1.0000 0.73220  0.85480  0.16800  Biso   1.000  H
  H10      1.0000 0.26780  0.35480  0.33200  Biso   1.000  H
  H11      1.0000 0.26780  0.14520  0.83200  Biso   1.000  H
  H12      1.0000 0.73220  0.64520  0.66800  Biso   1.000  H
  C13      1.0000 0.61010  0.84330  0.96470  Biso   1.000  C
  C14      1.0000 0.38990  0.34330  0.53530  Biso   1.000  C
  C15      1.0000 0.38990  0.15670  0.03530  Biso   1.000  C
  C16      1.0000 0.61010  0.65670  0.46470  Biso   1.000  C
  H13      1.0000 0.57200  0.79000  0.97150  Biso   1.000  H
  H14      1.0000 0.42800  0.29000  0.52850  Biso   1.000  H
  H15      1.0000 0.42800  0.21000  0.02850  Biso   1.000  H
  H16      1.0000 0.57200  0.71000  0.47150  Biso   1.000  H
  C17      1.0000 0.56960  0.88293  0.83670  Biso   1.000  C
  C18      1.0000 0.43040  0.38293  0.66330  Biso   1.000  C
  C19      1.0000 0.43040  0.11707  0.16330  Biso   1.000  C
  C20      1.0000 0.56960  0.61707  0.33670  Biso   1.000  C
  C21      1.0000 0.47060  0.84203  0.70330  Biso   1.000  C
  C22      1.0000 0.52940  0.34203  0.79670  Biso   1.000  C
  C23      1.0000 0.52940  0.15797  0.29670  Biso   1.000  C
  C24      1.0000 0.47060  0.65797  0.20330  Biso   1.000  C
  H17      1.0000 0.39620  0.88220  0.64550  Biso   1.000  H
  H18      1.0000 0.60380  0.38220  0.85450  Biso   1.000  H
  H19      1.0000 0.60380  0.11780  0.35450  Biso   1.000  H
  H20      1.0000 0.39620  0.61780  0.14550  Biso   1.000  H
  H21      1.0000 0.54430  0.82280  0.65020  Biso   1.000  H
  H22      1.0000 0.45570  0.32280  0.84980  Biso   1.000  H
  H23      1.0000 0.45570  0.17720  0.34980  Biso   1.000  H
  H24      1.0000 0.54430  0.67720  0.15020  Biso   1.000  H
  C25      1.0000 0.23570  0.77454  0.77270  Biso   1.000  C
  C26      1.0000 0.76430  0.27454  0.72730  Biso   1.000  C
  C27      1.0000 0.76430  0.22546  0.22730  Biso   1.000  C
  C28      1.0000 0.23570  0.72546  0.27270  Biso   1.000  C
  C29      1.0000 0.12170  0.83700  0.77080  Biso   1.000  C
  C30      1.0000 0.87830  0.33700  0.72920  Biso   1.000  C
  C31      1.0000 0.87830  0.16300  0.22920  Biso   1.000  C
  C32      1.0000 0.12170  0.66300  0.27080  Biso   1.000  C
  H25      1.0000 0.13090  0.88920  0.73420  Biso   1.000  H
  H26      1.0000 0.86910  0.38920  0.76580  Biso   1.000  H
  H27      1.0000 0.86910  0.11080  0.26580  Biso   1.000  H
  H28      1.0000 0.13090  0.61080  0.23420  Biso   1.000  H
  C33      1.0000 0.99600  0.81670  0.82590  Biso   1.000  C
  C34      1.0000 0.00400  0.31670  0.67410  Biso   1.000  C
  C35      1.0000 0.00400  0.18330  0.17410  Biso   1.000  C
  C36      1.0000 0.99600  0.68330  0.32590  Biso   1.000  C
  H29      1.0000 0.91760  0.85660  0.82800  Biso   1.000  H
  H30      1.0000 0.08240  0.35660  0.67200  Biso   1.000  H
  H31      1.0000 0.08240  0.14340  0.17200  Biso   1.000  H
  H32      1.0000 0.91760  0.64340  0.32800  Biso   1.000  H
  C37      1.0000 0.98040  0.73720  0.87990  Biso   1.000  C
  C38      1.0000 0.01960  0.23720  0.62010  Biso   1.000  C
  C39      1.0000 0.01960  0.26280  0.12010  Biso   1.000  C
  C40      1.0000 0.98040  0.76280  0.37990  Biso   1.000  C
  H33      1.0000 0.89480  0.72670  0.91980  Biso   1.000  H
  H34      1.0000 0.10520  0.22670  0.58020  Biso   1.000  H
  H35      1.0000 0.10520  0.27330  0.08020  Biso   1.000  H
  H36      1.0000 0.89480  0.77330  0.41980  Biso   1.000  H
  C41      1.0000 0.08870  0.67540  0.87460  Biso   1.000  C
  C42      1.0000 0.91130  0.17540  0.62540  Biso   1.000  C
  C43      1.0000 0.91130  0.32460  0.12540  Biso   1.000  C
  C44      1.0000 0.08870  0.82460  0.37460  Biso   1.000  C
  H37      1.0000 0.07540  0.62230  0.90560  Biso   1.000  H
  H38      1.0000 0.92460  0.12230  0.59440  Biso   1.000  H
  H39      1.0000 0.92460  0.37770  0.09440  Biso   1.000  H
  H40      1.0000 0.07540  0.87770  0.40560  Biso   1.000  H
  C45      1.0000 0.22030  0.69551  0.82070  Biso   1.000  C
  C46      1.0000 0.77970  0.19551  0.67930  Biso   1.000  C
  C47      1.0000 0.77970  0.30449  0.17930  Biso   1.000  C
  C48      1.0000 0.22030  0.80449  0.32070  Biso   1.000  C
  N1       1.0000 0.61920  0.96089  0.82140  Biso   1.000  N
  N2       1.0000 0.38080  0.46089  0.67860  Biso   1.000  N
  N3       1.0000 0.38080  0.03911  0.17860  Biso   1.000  N
  N4       1.0000 0.61920  0.53911  0.32140  Biso   1.000  N
  N5       1.0000 0.37550  0.77259  0.73160  Biso   1.000  N
  N6       1.0000 0.62450  0.27259  0.76840  Biso   1.000  N
  N7       1.0000 0.62450  0.22741  0.26840  Biso   1.000  N
  N8       1.0000 0.37550  0.72741  0.23160  Biso   1.000  N
  N9       1.0000 0.44500  0.69672  0.75470  Biso   1.000  N
  N10      1.0000 0.55500  0.19672  0.74530  Biso   1.000  N
  N11      1.0000 0.55500  0.30328  0.24530  Biso   1.000  N
  N12      1.0000 0.44500  0.80328  0.25470  Biso   1.000  N
  N13      1.0000 0.35080  0.64939  0.80630  Biso   1.000  N
  N14      1.0000 0.64920  0.14939  0.69370  Biso   1.000  N
  N15      1.0000 0.64920  0.35061  0.19370  Biso   1.000  N
  N16      1.0000 0.35080  0.85061  0.30630  Biso   1.000  N
