data_image0
_cell_length_a       11.8984
_cell_length_b       16.3498
_cell_length_c       15.6505
_cell_angle_alpha    90
_cell_angle_beta     95.531
_cell_angle_gamma    90

_symmetry_space_group_name_H-M    "P 1"
_symmetry_int_tables_number       1

loop_
  _symmetry_equiv_pos_as_xyz
  'x, y, z'

loop_
  _atom_site_label
  _atom_site_occupancy
  _atom_site_fract_x
  _atom_site_fract_y
  _atom_site_fract_z
  _atom_site_thermal_displace_type
  _atom_site_B_iso_or_equiv
  _atom_site_type_symbol
  Cu1      1.0000 0.27192  0.79264  0.08381  Biso   1.000  Cu
  Cu2      1.0000 0.72808  0.79264  0.41619  Biso   1.000  Cu
  Cu3      1.0000 0.77192  0.29264  0.08381  Biso   1.000  Cu
  Cu4      1.0000 0.22808  0.29264  0.41619  Biso   1.000  Cu
  Cu5      1.0000 0.72808  0.20736  0.91619  Biso   1.000  Cu
  Cu6      1.0000 0.27192  0.20736  0.58381  Biso   1.000  Cu
  Cu7      1.0000 0.22808  0.70736  0.91619  Biso   1.000  Cu
  Cu8      1.0000 0.77192  0.70736  0.58381  Biso   1.000  Cu
  Cu9      1.0000 0.09179  0.95458  0.01718  Biso   1.000  Cu
  Cu10     1.0000 0.90821  0.95458  0.48282  Biso   1.000  Cu
  Cu11     1.0000 0.59179  0.45458  0.01718  Biso   1.000  Cu
  Cu12     1.0000 0.40821  0.45458  0.48282  Biso   1.000  Cu
  Cu13     1.0000 0.90821  0.04542  0.98282  Biso   1.000  Cu
  Cu14     1.0000 0.09179  0.04542  0.51718  Biso   1.000  Cu
  Cu15     1.0000 0.40821  0.54542  0.98282  Biso   1.000  Cu
  Cu16     1.0000 0.59179  0.54542  0.51718  Biso   1.000  Cu
  I1       1.0000 0.07170  0.78970  0.99369  Biso   1.000  I
  I2       1.0000 0.92830  0.78970  0.50631  Biso   1.000  I
  I3       1.0000 0.57170  0.28970  0.99369  Biso   1.000  I
  I4       1.0000 0.42830  0.28970  0.50631  Biso   1.000  I
  I5       1.0000 0.92830  0.21030  0.00631  Biso   1.000  I
  I6       1.0000 0.07170  0.21030  0.49369  Biso   1.000  I
  I7       1.0000 0.42830  0.71030  0.00631  Biso   1.000  I
  I8       1.0000 0.57170  0.71030  0.49369  Biso   1.000  I
  I9       1.0000 0.94543  0.97200  0.13041  Biso   1.000  I
  I10      1.0000 0.05457  0.97200  0.36959  Biso   1.000  I
  I11      1.0000 0.44543  0.47200  0.13041  Biso   1.000  I
  I12      1.0000 0.55457  0.47200  0.36959  Biso   1.000  I
  I13      1.0000 0.05457  0.02800  0.86959  Biso   1.000  I
  I14      1.0000 0.94543  0.02800  0.63041  Biso   1.000  I
  I15      1.0000 0.55457  0.52800  0.86959  Biso   1.000  I
  I16      1.0000 0.44543  0.52800  0.63041  Biso   1.000  I
  C1       1.0000 0.43140  0.93990  0.11040  Biso   1.000  C
  C2       1.0000 0.56860  0.93990  0.38960  Biso   1.000  C
  C3       1.0000 0.93140  0.43990  0.11040  Biso   1.000  C
  C4       1.0000 0.06860  0.43990  0.38960  Biso   1.000  C
  C5       1.0000 0.56860  0.06010  0.88960  Biso   1.000  C
  C6       1.0000 0.43140  0.06010  0.61040  Biso   1.000  C
  C7       1.0000 0.06860  0.56010  0.88960  Biso   1.000  C
  C8       1.0000 0.93140  0.56010  0.61040  Biso   1.000  C
  C9       1.0000 0.53200  0.89840  0.14110  Biso   1.000  C
  C10      1.0000 0.46800  0.89840  0.35890  Biso   1.000  C
  C11      1.0000 0.03200  0.39840  0.14110  Biso   1.000  C
  C12      1.0000 0.96800  0.39840  0.35890  Biso   1.000  C
  C13      1.0000 0.46800  0.10160  0.85890  Biso   1.000  C
  C14      1.0000 0.53200  0.10160  0.64110  Biso   1.000  C
  C15      1.0000 0.96800  0.60160  0.85890  Biso   1.000  C
  C16      1.0000 0.03200  0.60160  0.64110  Biso   1.000  C
  H1       1.0000 0.53310  0.84230  0.15110  Biso   1.000  H
  H2       1.0000 0.46690  0.84230  0.34890  Biso   1.000  H
  H3       1.0000 0.03310  0.34230  0.15110  Biso   1.000  H
  H4       1.0000 0.96690  0.34230  0.34890  Biso   1.000  H
  H5       1.0000 0.46690  0.15770  0.84890  Biso   1.000  H
  H6       1.0000 0.53310  0.15770  0.65110  Biso   1.000  H
  H7       1.0000 0.96690  0.65770  0.84890  Biso   1.000  H
  H8       1.0000 0.03310  0.65770  0.65110  Biso   1.000  H
  C17      1.0000 0.62660  0.94490  0.15510  Biso   1.000  C
  C18      1.0000 0.37340  0.94490  0.34490  Biso   1.000  C
  C19      1.0000 0.12660  0.44490  0.15510  Biso   1.000  C
  C20      1.0000 0.87340  0.44490  0.34490  Biso   1.000  C
  C21      1.0000 0.37340  0.05510  0.84490  Biso   1.000  C
  C22      1.0000 0.62660  0.05510  0.65510  Biso   1.000  C
  C23      1.0000 0.87340  0.55510  0.84490  Biso   1.000  C
  C24      1.0000 0.12660  0.55510  0.65510  Biso   1.000  C
  H9       1.0000 0.69420  0.91970  0.17500  Biso   1.000  H
  H10      1.0000 0.30580  0.91970  0.32500  Biso   1.000  H
  H11      1.0000 0.19420  0.41970  0.17500  Biso   1.000  H
  H12      1.0000 0.80580  0.41970  0.32500  Biso   1.000  H
  H13      1.0000 0.30580  0.08030  0.82500  Biso   1.000  H
  H14      1.0000 0.69420  0.08030  0.67500  Biso   1.000  H
  H15      1.0000 0.80580  0.58030  0.82500  Biso   1.000  H
  H16      1.0000 0.19420  0.58030  0.67500  Biso   1.000  H
  C25      1.0000 0.62570  0.02990  0.14050  Biso   1.000  C
  C26      1.0000 0.37430  0.02990  0.35950  Biso   1.000  C
  C27      1.0000 0.12570  0.52990  0.14050  Biso   1.000  C
  C28      1.0000 0.87430  0.52990  0.35950  Biso   1.000  C
  C29      1.0000 0.37430  0.97010  0.85950  Biso   1.000  C
  C30      1.0000 0.62570  0.97010  0.64050  Biso   1.000  C
  C31      1.0000 0.87430  0.47010  0.85950  Biso   1.000  C
  C32      1.0000 0.12570  0.47010  0.64050  Biso   1.000  C
  H17      1.0000 0.69310  0.05870  0.15010  Biso   1.000  H
  H18      1.0000 0.30690  0.05870  0.34990  Biso   1.000  H
  H19      1.0000 0.19310  0.55870  0.15010  Biso   1.000  H
  H20      1.0000 0.80690  0.55870  0.34990  Biso   1.000  H
  H21      1.0000 0.30690  0.94130  0.84990  Biso   1.000  H
  H22      1.0000 0.69310  0.94130  0.65010  Biso   1.000  H
  H23      1.0000 0.80690  0.44130  0.84990  Biso   1.000  H
  H24      1.0000 0.19310  0.44130  0.65010  Biso   1.000  H
  C33      1.0000 0.52900  0.07180  0.11270  Biso   1.000  C
  C34      1.0000 0.47100  0.07180  0.38730  Biso   1.000  C
  C35      1.0000 0.02900  0.57180  0.11270  Biso   1.000  C
  C36      1.0000 0.97100  0.57180  0.38730  Biso   1.000  C
  C37      1.0000 0.47100  0.92820  0.88730  Biso   1.000  C
  C38      1.0000 0.52900  0.92820  0.61270  Biso   1.000  C
  C39      1.0000 0.97100  0.42820  0.88730  Biso   1.000  C
  C40      1.0000 0.02900  0.42820  0.61270  Biso   1.000  C
  H25      1.0000 0.52850  0.12810  0.10380  Biso   1.000  H
  H26      1.0000 0.47150  0.12810  0.39620  Biso   1.000  H
  H27      1.0000 0.02850  0.62810  0.10380  Biso   1.000  H
  H28      1.0000 0.97150  0.62810  0.39620  Biso   1.000  H
  H29      1.0000 0.47150  0.87190  0.89620  Biso   1.000  H
  H30      1.0000 0.52850  0.87190  0.60380  Biso   1.000  H
  H31      1.0000 0.97150  0.37190  0.89620  Biso   1.000  H
  H32      1.0000 0.02850  0.37190  0.60380  Biso   1.000  H
  C41      1.0000 0.43150  0.02430  0.09870  Biso   1.000  C
  C42      1.0000 0.56850  0.02430  0.40130  Biso   1.000  C
  C43      1.0000 0.93150  0.52430  0.09870  Biso   1.000  C
  C44      1.0000 0.06850  0.52430  0.40130  Biso   1.000  C
  C45      1.0000 0.56850  0.97570  0.90130  Biso   1.000  C
  C46      1.0000 0.43150  0.97570  0.59870  Biso   1.000  C
  C47      1.0000 0.06850  0.47570  0.90130  Biso   1.000  C
  C48      1.0000 0.93150  0.47570  0.59870  Biso   1.000  C
  C49      1.0000 0.27240  0.12390  0.05480  Biso   1.000  C
  C50      1.0000 0.72760  0.12390  0.44520  Biso   1.000  C
  C51      1.0000 0.77240  0.62390  0.05480  Biso   1.000  C
  C52      1.0000 0.22760  0.62390  0.44520  Biso   1.000  C
  C53      1.0000 0.72760  0.87610  0.94520  Biso   1.000  C
  C54      1.0000 0.27240  0.87610  0.55480  Biso   1.000  C
  C55      1.0000 0.22760  0.37610  0.94520  Biso   1.000  C
  C56      1.0000 0.77240  0.37610  0.55480  Biso   1.000  C
  H33      1.0000 0.19910  0.11820  0.02240  Biso   1.000  H
  H34      1.0000 0.80090  0.11820  0.47760  Biso   1.000  H
  H35      1.0000 0.69910  0.61820  0.02240  Biso   1.000  H
  H36      1.0000 0.30090  0.61820  0.47760  Biso   1.000  H
  H37      1.0000 0.80090  0.88180  0.97760  Biso   1.000  H
  H38      1.0000 0.19910  0.88180  0.52240  Biso   1.000  H
  H39      1.0000 0.30090  0.38180  0.97760  Biso   1.000  H
  H40      1.0000 0.69910  0.38180  0.52240  Biso   1.000  H
  H41      1.0000 0.32010  0.15620  0.02080  Biso   1.000  H
  H42      1.0000 0.67990  0.15620  0.47920  Biso   1.000  H
  H43      1.0000 0.82010  0.65620  0.02080  Biso   1.000  H
  H44      1.0000 0.17990  0.65620  0.47920  Biso   1.000  H
  H45      1.0000 0.67990  0.84380  0.97920  Biso   1.000  H
  H46      1.0000 0.32010  0.84380  0.52080  Biso   1.000  H
  H47      1.0000 0.17990  0.34380  0.97920  Biso   1.000  H
  H48      1.0000 0.82010  0.34380  0.52080  Biso   1.000  H
  C57      1.0000 0.25890  0.16780  0.13870  Biso   1.000  C
  C58      1.0000 0.74110  0.16780  0.36130  Biso   1.000  C
  C59      1.0000 0.75890  0.66780  0.13870  Biso   1.000  C
  C60      1.0000 0.24110  0.66780  0.36130  Biso   1.000  C
  C61      1.0000 0.74110  0.83220  0.86130  Biso   1.000  C
  C62      1.0000 0.25890  0.83220  0.63870  Biso   1.000  C
  C63      1.0000 0.24110  0.33220  0.86130  Biso   1.000  C
  C64      1.0000 0.75890  0.33220  0.63870  Biso   1.000  C
  C65      1.0000 0.17710  0.14280  0.19010  Biso   1.000  C
  C66      1.0000 0.82290  0.14280  0.30990  Biso   1.000  C
  C67      1.0000 0.67710  0.64280  0.19010  Biso   1.000  C
  C68      1.0000 0.32290  0.64280  0.30990  Biso   1.000  C
  C69      1.0000 0.82290  0.85720  0.80990  Biso   1.000  C
  C70      1.0000 0.17710  0.85720  0.69010  Biso   1.000  C
  C71      1.0000 0.32290  0.35720  0.80990  Biso   1.000  C
  C72      1.0000 0.67710  0.35720  0.69010  Biso   1.000  C
  H49      1.0000 0.12810  0.10030  0.17270  Biso   1.000  H
  H50      1.0000 0.87190  0.10030  0.32730  Biso   1.000  H
  H51      1.0000 0.62810  0.60030  0.17270  Biso   1.000  H
  H52      1.0000 0.37190  0.60030  0.32730  Biso   1.000  H
  H53      1.0000 0.87190  0.89970  0.82730  Biso   1.000  H
  H54      1.0000 0.12810  0.89970  0.67270  Biso   1.000  H
  H55      1.0000 0.37190  0.39970  0.82730  Biso   1.000  H
  H56      1.0000 0.62810  0.39970  0.67270  Biso   1.000  H
  C73      1.0000 0.16910  0.18140  0.26700  Biso   1.000  C
  C74      1.0000 0.83090  0.18140  0.23300  Biso   1.000  C
  C75      1.0000 0.66910  0.68140  0.26700  Biso   1.000  C
  C76      1.0000 0.33090  0.68140  0.23300  Biso   1.000  C
  C77      1.0000 0.83090  0.81860  0.73300  Biso   1.000  C
  C78      1.0000 0.16910  0.81860  0.76700  Biso   1.000  C
  C79      1.0000 0.33090  0.31860  0.73300  Biso   1.000  C
  C80      1.0000 0.66910  0.31860  0.76700  Biso   1.000  C
  H57      1.0000 0.11230  0.16480  0.30000  Biso   1.000  H
  H58      1.0000 0.88770  0.16480  0.20000  Biso   1.000  H
  H59      1.0000 0.61230  0.66480  0.30000  Biso   1.000  H
  H60      1.0000 0.38770  0.66480  0.20000  Biso   1.000  H
  H61      1.0000 0.88770  0.83520  0.70000  Biso   1.000  H
  H62      1.0000 0.11230  0.83520  0.80000  Biso   1.000  H
  H63      1.0000 0.38770  0.33520  0.70000  Biso   1.000  H
  H64      1.0000 0.61230  0.33520  0.80000  Biso   1.000  H
  C81      1.0000 0.31510  0.26760  0.24740  Biso   1.000  C
  C82      1.0000 0.68490  0.26760  0.25260  Biso   1.000  C
  C83      1.0000 0.81510  0.76760  0.24740  Biso   1.000  C
  C84      1.0000 0.18490  0.76760  0.25260  Biso   1.000  C
  C85      1.0000 0.68490  0.73240  0.75260  Biso   1.000  C
  C86      1.0000 0.31510  0.73240  0.74740  Biso   1.000  C
  C87      1.0000 0.18490  0.23240  0.75260  Biso   1.000  C
  C88      1.0000 0.81510  0.23240  0.74740  Biso   1.000  C
  H65      1.0000 0.36240  0.31060  0.26600  Biso   1.000  H
  H66      1.0000 0.63760  0.31060  0.23400  Biso   1.000  H
  H67      1.0000 0.86240  0.81060  0.26600  Biso   1.000  H
  H68      1.0000 0.13760  0.81060  0.23400  Biso   1.000  H
  H69      1.0000 0.63760  0.68940  0.73400  Biso   1.000  H
  H70      1.0000 0.36240  0.68940  0.76600  Biso   1.000  H
  H71      1.0000 0.13760  0.18940  0.73400  Biso   1.000  H
  H72      1.0000 0.86240  0.18940  0.76600  Biso   1.000  H
  C89      1.0000 0.32770  0.23250  0.16730  Biso   1.000  C
  C90      1.0000 0.67230  0.23250  0.33270  Biso   1.000  C
  C91      1.0000 0.82770  0.73250  0.16730  Biso   1.000  C
  C92      1.0000 0.17230  0.73250  0.33270  Biso   1.000  C
  C93      1.0000 0.67230  0.76750  0.83270  Biso   1.000  C
  C94      1.0000 0.32770  0.76750  0.66730  Biso   1.000  C
  C95      1.0000 0.17230  0.26750  0.83270  Biso   1.000  C
  C96      1.0000 0.82770  0.26750  0.66730  Biso   1.000  C
  H73      1.0000 0.38180  0.25240  0.13360  Biso   1.000  H
  H74      1.0000 0.61820  0.25240  0.36640  Biso   1.000  H
  H75      1.0000 0.88180  0.75240  0.13360  Biso   1.000  H
  H76      1.0000 0.11820  0.75240  0.36640  Biso   1.000  H
  H77      1.0000 0.61820  0.74760  0.86640  Biso   1.000  H
  H78      1.0000 0.38180  0.74760  0.63360  Biso   1.000  H
  H79      1.0000 0.11820  0.24760  0.86640  Biso   1.000  H
  H80      1.0000 0.88180  0.24760  0.63360  Biso   1.000  H
  N1       1.0000 0.23890  0.24230  0.29780  Biso   1.000  N
  N2       1.0000 0.76110  0.24230  0.20220  Biso   1.000  N
  N3       1.0000 0.73890  0.74230  0.29780  Biso   1.000  N
  N4       1.0000 0.26110  0.74230  0.20220  Biso   1.000  N
  N5       1.0000 0.76110  0.75770  0.70220  Biso   1.000  N
  N6       1.0000 0.23890  0.75770  0.79780  Biso   1.000  N
  N7       1.0000 0.26110  0.25770  0.70220  Biso   1.000  N
  N8       1.0000 0.73890  0.25770  0.79780  Biso   1.000  N
  N9       1.0000 0.32440  0.91140  0.09000  Biso   1.000  N
  N10      1.0000 0.67560  0.91140  0.41000  Biso   1.000  N
  N11      1.0000 0.82440  0.41140  0.09000  Biso   1.000  N
  N12      1.0000 0.17560  0.41140  0.41000  Biso   1.000  N
  N13      1.0000 0.67560  0.08860  0.91000  Biso   1.000  N
  N14      1.0000 0.32440  0.08860  0.59000  Biso   1.000  N
  N15      1.0000 0.17560  0.58860  0.91000  Biso   1.000  N
  N16      1.0000 0.82440  0.58860  0.59000  Biso   1.000  N
  N17      1.0000 0.25910  0.97410  0.06640  Biso   1.000  N
  N18      1.0000 0.74090  0.97410  0.43360  Biso   1.000  N
  N19      1.0000 0.75910  0.47410  0.06640  Biso   1.000  N
  N20      1.0000 0.24090  0.47410  0.43360  Biso   1.000  N
  N21      1.0000 0.74090  0.02590  0.93360  Biso   1.000  N
  N22      1.0000 0.25910  0.02590  0.56640  Biso   1.000  N
  N23      1.0000 0.24090  0.52590  0.93360  Biso   1.000  N
  N24      1.0000 0.75910  0.52590  0.56640  Biso   1.000  N
  N25      1.0000 0.32280  0.04270  0.07060  Biso   1.000  N
  N26      1.0000 0.67720  0.04270  0.42940  Biso   1.000  N
  N27      1.0000 0.82280  0.54270  0.07060  Biso   1.000  N
  N28      1.0000 0.17720  0.54270  0.42940  Biso   1.000  N
  N29      1.0000 0.67720  0.95730  0.92940  Biso   1.000  N
  N30      1.0000 0.32280  0.95730  0.57060  Biso   1.000  N
  N31      1.0000 0.17720  0.45730  0.92940  Biso   1.000  N
  N32      1.0000 0.82280  0.45730  0.57060  Biso   1.000  N
