data_image0
_cell_length_a       7.5406
_cell_length_b       12.2655
_cell_length_c       18.374
_cell_angle_alpha    90
_cell_angle_beta     90
_cell_angle_gamma    90

_symmetry_space_group_name_H-M    "P 1"
_symmetry_int_tables_number       1

loop_
  _symmetry_equiv_pos_as_xyz
  'x, y, z'

loop_
  _atom_site_label
  _atom_site_occupancy
  _atom_site_fract_x
  _atom_site_fract_y
  _atom_site_fract_z
  _atom_site_thermal_displace_type
  _atom_site_B_iso_or_equiv
  _atom_site_type_symbol
  Cu1      1.0000 0.56930  0.72363  0.27236  Biso   1.000  Cu
  Cu2      1.0000 0.93070  0.27637  0.77236  Biso   1.000  Cu
  Cu3      1.0000 0.43070  0.22363  0.22764  Biso   1.000  Cu
  Cu4      1.0000 0.06930  0.77637  0.72764  Biso   1.000  Cu
  Cu5      1.0000 0.57640  0.00287  0.27993  Biso   1.000  Cu
  Cu6      1.0000 0.92360  0.99713  0.77993  Biso   1.000  Cu
  Cu7      1.0000 0.42360  0.50287  0.22007  Biso   1.000  Cu
  Cu8      1.0000 0.07640  0.49713  0.72007  Biso   1.000  Cu
  Cu9      1.0000 0.41560  0.87079  0.17895  Biso   1.000  Cu
  Cu10     1.0000 0.08440  0.12921  0.67895  Biso   1.000  Cu
  Cu11     1.0000 0.58440  0.37079  0.32105  Biso   1.000  Cu
  Cu12     1.0000 0.91560  0.62921  0.82105  Biso   1.000  Cu
  C1       1.0000 0.58000  0.04490  0.47090  Biso   1.000  C
  C2       1.0000 0.92000  0.95510  0.97090  Biso   1.000  C
  C3       1.0000 0.42000  0.54490  0.02910  Biso   1.000  C
  C4       1.0000 0.08000  0.45510  0.52910  Biso   1.000  C
  H1       1.0000 0.63400  0.08970  0.43340  Biso   1.000  H
  H2       1.0000 0.86600  0.91030  0.93340  Biso   1.000  H
  H3       1.0000 0.36600  0.58970  0.06660  Biso   1.000  H
  H4       1.0000 0.13400  0.41030  0.56660  Biso   1.000  H
  H5       1.0000 0.65170  0.05090  0.51450  Biso   1.000  H
  H6       1.0000 0.84830  0.94910  0.01450  Biso   1.000  H
  H7       1.0000 0.34830  0.55090  0.98550  Biso   1.000  H
  H8       1.0000 0.15170  0.44910  0.48550  Biso   1.000  H
  C5       1.0000 0.39300  0.08640  0.48660  Biso   1.000  C
  C6       1.0000 0.10700  0.91360  0.98660  Biso   1.000  C
  C7       1.0000 0.60700  0.58640  0.01340  Biso   1.000  C
  C8       1.0000 0.89300  0.41360  0.51340  Biso   1.000  C
  C9       1.0000 0.28500  0.12390  0.43100  Biso   1.000  C
  C10      1.0000 0.21500  0.87610  0.93100  Biso   1.000  C
  C11      1.0000 0.71500  0.62390  0.06900  Biso   1.000  C
  C12      1.0000 0.78500  0.37610  0.56900  Biso   1.000  C
  H9       1.0000 0.32640  0.12710  0.38340  Biso   1.000  H
  H10      1.0000 0.17360  0.87290  0.88340  Biso   1.000  H
  H11      1.0000 0.67360  0.62710  0.11660  Biso   1.000  H
  H12      1.0000 0.82640  0.37290  0.61660  Biso   1.000  H
  C13      1.0000 0.11900  0.15560  0.44670  Biso   1.000  C
  C14      1.0000 0.38100  0.84440  0.94670  Biso   1.000  C
  C15      1.0000 0.88100  0.65560  0.05330  Biso   1.000  C
  C16      1.0000 0.61900  0.34440  0.55330  Biso   1.000  C
  H13      1.0000 0.04370  0.17940  0.40990  Biso   1.000  H
  H14      1.0000 0.45630  0.82060  0.90990  Biso   1.000  H
  H15      1.0000 0.95630  0.67940  0.09010  Biso   1.000  H
  H16      1.0000 0.54370  0.32060  0.59010  Biso   1.000  H
  C17      1.0000 0.05900  0.15270  0.51940  Biso   1.000  C
  C18      1.0000 0.44100  0.84730  0.01940  Biso   1.000  C
  C19      1.0000 0.94100  0.65270  0.98060  Biso   1.000  C
  C20      1.0000 0.55900  0.34730  0.48060  Biso   1.000  C
  H17      1.0000 0.94340  0.17330  0.52960  Biso   1.000  H
  H18      1.0000 0.55660  0.82670  0.02960  Biso   1.000  H
  H19      1.0000 0.05660  0.67330  0.97040  Biso   1.000  H
  H20      1.0000 0.44340  0.32670  0.47040  Biso   1.000  H
  C21      1.0000 0.32800  0.08960  0.55740  Biso   1.000  C
  C22      1.0000 0.17200  0.91040  0.05740  Biso   1.000  C
  C23      1.0000 0.67200  0.58960  0.94260  Biso   1.000  C
  C24      1.0000 0.82800  0.41040  0.44260  Biso   1.000  C
  H21      1.0000 0.40190  0.06840  0.59530  Biso   1.000  H
  H22      1.0000 0.09810  0.93160  0.09530  Biso   1.000  H
  H23      1.0000 0.59810  0.56840  0.90470  Biso   1.000  H
  H24      1.0000 0.90190  0.43160  0.40470  Biso   1.000  H
  C25      1.0000 0.55800  0.84090  0.48830  Biso   1.000  C
  C26      1.0000 0.94200  0.15910  0.98830  Biso   1.000  C
  C27      1.0000 0.44200  0.34090  0.01170  Biso   1.000  C
  C28      1.0000 0.05800  0.65910  0.51170  Biso   1.000  C
  C29      1.0000 0.55300  0.82200  0.56410  Biso   1.000  C
  C30      1.0000 0.94700  0.17800  0.06410  Biso   1.000  C
  C31      1.0000 0.44700  0.32200  0.93590  Biso   1.000  C
  C32      1.0000 0.05300  0.67800  0.43590  Biso   1.000  C
  H25      1.0000 0.56570  0.87860  0.59740  Biso   1.000  H
  H26      1.0000 0.93430  0.12140  0.09740  Biso   1.000  H
  H27      1.0000 0.43430  0.37860  0.90260  Biso   1.000  H
  H28      1.0000 0.06570  0.62140  0.40260  Biso   1.000  H
  C33      1.0000 0.52900  0.71700  0.58640  Biso   1.000  C
  C34      1.0000 0.97100  0.28300  0.08640  Biso   1.000  C
  C35      1.0000 0.47100  0.21700  0.91360  Biso   1.000  C
  C36      1.0000 0.02900  0.78300  0.41360  Biso   1.000  C
  H29      1.0000 0.51630  0.70180  0.63570  Biso   1.000  H
  H30      1.0000 0.98370  0.29820  0.13570  Biso   1.000  H
  H31      1.0000 0.48370  0.20180  0.86430  Biso   1.000  H
  H32      1.0000 0.01630  0.79820  0.36430  Biso   1.000  H
  C37      1.0000 0.52200  0.63280  0.53610  Biso   1.000  C
  C38      1.0000 0.97800  0.36720  0.03610  Biso   1.000  C
  C39      1.0000 0.47800  0.13280  0.96390  Biso   1.000  C
  C40      1.0000 0.02200  0.86720  0.46390  Biso   1.000  C
  H33      1.0000 0.51400  0.56160  0.55320  Biso   1.000  H
  H34      1.0000 0.98600  0.43840  0.05320  Biso   1.000  H
  H35      1.0000 0.48600  0.06160  0.94680  Biso   1.000  H
  H36      1.0000 0.01400  0.93840  0.44680  Biso   1.000  H
  C41      1.0000 0.52700  0.64910  0.46520  Biso   1.000  C
  C42      1.0000 0.97300  0.35090  0.96520  Biso   1.000  C
  C43      1.0000 0.47300  0.14910  0.03480  Biso   1.000  C
  C44      1.0000 0.02700  0.85090  0.53480  Biso   1.000  C
  H37      1.0000 0.51660  0.59100  0.43300  Biso   1.000  H
  H38      1.0000 0.98340  0.40900  0.93300  Biso   1.000  H
  H39      1.0000 0.48340  0.09100  0.06700  Biso   1.000  H
  H40      1.0000 0.01660  0.90900  0.56700  Biso   1.000  H
  C45      1.0000 0.54700  0.75700  0.43910  Biso   1.000  C
  C46      1.0000 0.95300  0.24300  0.93910  Biso   1.000  C
  C47      1.0000 0.45300  0.25700  0.06090  Biso   1.000  C
  C48      1.0000 0.04700  0.74300  0.56090  Biso   1.000  C
  N1       1.0000 0.57600  0.93080  0.44670  Biso   1.000  N
  N2       1.0000 0.92400  0.06920  0.94670  Biso   1.000  N
  N3       1.0000 0.42400  0.43080  0.05330  Biso   1.000  N
  N4       1.0000 0.07600  0.56920  0.55330  Biso   1.000  N
  N5       1.0000 0.57240  0.90570  0.37640  Biso   1.000  N
  N6       1.0000 0.92760  0.09430  0.87640  Biso   1.000  N
  N7       1.0000 0.42760  0.40570  0.12360  Biso   1.000  N
  N8       1.0000 0.07240  0.59430  0.62360  Biso   1.000  N
  N9       1.0000 0.56100  0.79930  0.37040  Biso   1.000  N
  N10      1.0000 0.93900  0.20070  0.87040  Biso   1.000  N
  N11      1.0000 0.43900  0.29930  0.12960  Biso   1.000  N
  N12      1.0000 0.06100  0.70070  0.62960  Biso   1.000  N
  N13      1.0000 0.16210  0.12200  0.57320  Biso   1.000  N
  N14      1.0000 0.33790  0.87800  0.07320  Biso   1.000  N
  N15      1.0000 0.83790  0.62200  0.92680  Biso   1.000  N
  N16      1.0000 0.66210  0.37800  0.42680  Biso   1.000  N
  I1       1.0000 0.75897  0.87261  0.19190  Biso   1.000  I
  I2       1.0000 0.74103  0.12739  0.69190  Biso   1.000  I
  I3       1.0000 0.24103  0.37261  0.30810  Biso   1.000  I
  I4       1.0000 0.25897  0.62739  0.80810  Biso   1.000  I
  I5       1.0000 0.24490  0.04060  0.23668  Biso   1.000  I
  I6       1.0000 0.25510  0.95940  0.73668  Biso   1.000  I
  I7       1.0000 0.75510  0.54060  0.26332  Biso   1.000  I
  I8       1.0000 0.74490  0.45940  0.76332  Biso   1.000  I
  I9       1.0000 0.24730  0.68753  0.21917  Biso   1.000  I
  I10      1.0000 0.25270  0.31247  0.71917  Biso   1.000  I
  I11      1.0000 0.75270  0.18753  0.28083  Biso   1.000  I
  I12      1.0000 0.74730  0.81247  0.78083  Biso   1.000  I
