data_image0
_cell_length_a       19.183
_cell_length_b       10.025
_cell_length_c       6.6486
_cell_angle_alpha    90
_cell_angle_beta     105.274
_cell_angle_gamma    90

_symmetry_space_group_name_H-M    "P 1"
_symmetry_int_tables_number       1

loop_
  _symmetry_equiv_pos_as_xyz
  'x, y, z'

loop_
  _atom_site_label
  _atom_site_occupancy
  _atom_site_fract_x
  _atom_site_fract_y
  _atom_site_fract_z
  _atom_site_thermal_displace_type
  _atom_site_B_iso_or_equiv
  _atom_site_type_symbol
  Cu1      1.0000 0.00000  0.22672  0.25000  Biso   1.000  Cu
  Cu2      1.0000 0.50000  0.72672  0.25000  Biso   1.000  Cu
  Cu3      1.0000 0.00000  0.77328  0.75000  Biso   1.000  Cu
  Cu4      1.0000 0.50000  0.27328  0.75000  Biso   1.000  Cu
  Cu5      1.0000 0.00000  0.00000  0.00000  Biso   1.000  Cu
  Cu6      1.0000 0.00000  0.00000  0.50000  Biso   1.000  Cu
  Cu7      1.0000 0.50000  0.50000  0.00000  Biso   1.000  Cu
  Cu8      1.0000 0.50000  0.50000  0.50000  Biso   1.000  Cu
  O1       1.0000 0.08719  0.24913  0.18550  Biso   1.000  O
  O2       1.0000 0.91281  0.24913  0.31450  Biso   1.000  O
  O3       1.0000 0.58719  0.74913  0.18550  Biso   1.000  O
  O4       1.0000 0.41281  0.74913  0.31450  Biso   1.000  O
  O5       1.0000 0.91281  0.75087  0.81450  Biso   1.000  O
  O6       1.0000 0.08719  0.75087  0.68550  Biso   1.000  O
  O7       1.0000 0.41281  0.25087  0.81450  Biso   1.000  O
  O8       1.0000 0.58719  0.25087  0.68550  Biso   1.000  O
  O9       1.0000 0.08478  0.07620  0.97640  Biso   1.000  O
  O10      1.0000 0.91522  0.07620  0.52360  Biso   1.000  O
  O11      1.0000 0.58478  0.57620  0.97640  Biso   1.000  O
  O12      1.0000 0.41522  0.57620  0.52360  Biso   1.000  O
  O13      1.0000 0.91522  0.92380  0.02360  Biso   1.000  O
  O14      1.0000 0.08478  0.92380  0.47640  Biso   1.000  O
  O15      1.0000 0.41522  0.42380  0.02360  Biso   1.000  O
  O16      1.0000 0.58478  0.42380  0.47640  Biso   1.000  O
  C1       1.0000 0.11357  0.17790  0.06840  Biso   1.000  C
  C2       1.0000 0.88643  0.17790  0.43160  Biso   1.000  C
  C3       1.0000 0.61357  0.67790  0.06840  Biso   1.000  C
  C4       1.0000 0.38643  0.67790  0.43160  Biso   1.000  C
  C5       1.0000 0.88643  0.82210  0.93160  Biso   1.000  C
  C6       1.0000 0.11357  0.82210  0.56840  Biso   1.000  C
  C7       1.0000 0.38643  0.32210  0.93160  Biso   1.000  C
  C8       1.0000 0.61357  0.32210  0.56840  Biso   1.000  C
  C9       1.0000 0.18486  0.21830  0.03500  Biso   1.000  C
  C10      1.0000 0.81514  0.21830  0.46500  Biso   1.000  C
  C11      1.0000 0.68486  0.71830  0.03500  Biso   1.000  C
  C12      1.0000 0.31514  0.71830  0.46500  Biso   1.000  C
  C13      1.0000 0.81514  0.78170  0.96500  Biso   1.000  C
  C14      1.0000 0.18486  0.78170  0.53500  Biso   1.000  C
  C15      1.0000 0.31514  0.28170  0.96500  Biso   1.000  C
  C16      1.0000 0.68486  0.28170  0.53500  Biso   1.000  C
  C17      1.0000 0.24794  0.17310  0.17600  Biso   1.000  C
  C18      1.0000 0.75206  0.17310  0.32400  Biso   1.000  C
  C19      1.0000 0.74794  0.67310  0.17600  Biso   1.000  C
  C20      1.0000 0.25206  0.67310  0.32400  Biso   1.000  C
  C21      1.0000 0.75206  0.82690  0.82400  Biso   1.000  C
  C22      1.0000 0.24794  0.82690  0.67600  Biso   1.000  C
  C23      1.0000 0.25206  0.32690  0.82400  Biso   1.000  C
  C24      1.0000 0.74794  0.32690  0.67600  Biso   1.000  C
  C25      1.0000 0.24456  0.08720  0.35800  Biso   1.000  C
  C26      1.0000 0.75544  0.08720  0.14200  Biso   1.000  C
  C27      1.0000 0.74456  0.58720  0.35800  Biso   1.000  C
  C28      1.0000 0.25544  0.58720  0.14200  Biso   1.000  C
  C29      1.0000 0.75544  0.91280  0.64200  Biso   1.000  C
  C30      1.0000 0.24456  0.91280  0.85800  Biso   1.000  C
  C31      1.0000 0.25544  0.41280  0.64200  Biso   1.000  C
  C32      1.0000 0.74456  0.41280  0.85800  Biso   1.000  C
  H1       1.0000 0.19870  0.08800  0.38300  Biso   1.000  H
  H2       1.0000 0.80130  0.08800  0.11700  Biso   1.000  H
  H3       1.0000 0.69870  0.58800  0.38300  Biso   1.000  H
  H4       1.0000 0.30130  0.58800  0.11700  Biso   1.000  H
  H5       1.0000 0.80130  0.91200  0.61700  Biso   1.000  H
  H6       1.0000 0.19870  0.91200  0.88300  Biso   1.000  H
  H7       1.0000 0.30130  0.41200  0.61700  Biso   1.000  H
  H8       1.0000 0.69870  0.41200  0.88300  Biso   1.000  H
  H9       1.0000 0.25900  0.00500  0.34500  Biso   1.000  H
  H10      1.0000 0.74100  0.00500  0.15500  Biso   1.000  H
  H11      1.0000 0.75900  0.50500  0.34500  Biso   1.000  H
  H12      1.0000 0.24100  0.50500  0.15500  Biso   1.000  H
  H13      1.0000 0.74100  0.99500  0.65500  Biso   1.000  H
  H14      1.0000 0.25900  0.99500  0.84500  Biso   1.000  H
  H15      1.0000 0.24100  0.49500  0.65500  Biso   1.000  H
  H16      1.0000 0.75900  0.49500  0.84500  Biso   1.000  H
  H17      1.0000 0.28300  0.11400  0.48400  Biso   1.000  H
  H18      1.0000 0.71700  0.11400  0.01600  Biso   1.000  H
  H19      1.0000 0.78300  0.61400  0.48400  Biso   1.000  H
  H20      1.0000 0.21700  0.61400  0.01600  Biso   1.000  H
  H21      1.0000 0.71700  0.88600  0.51600  Biso   1.000  H
  H22      1.0000 0.28300  0.88600  0.98400  Biso   1.000  H
  H23      1.0000 0.21700  0.38600  0.51600  Biso   1.000  H
  H24      1.0000 0.78300  0.38600  0.98400  Biso   1.000  H
  C33      1.0000 0.18554  0.29470  0.86060  Biso   1.000  C
  C34      1.0000 0.81446  0.29470  0.63940  Biso   1.000  C
  C35      1.0000 0.68554  0.79470  0.86060  Biso   1.000  C
  C36      1.0000 0.31446  0.79470  0.63940  Biso   1.000  C
  C37      1.0000 0.81446  0.70530  0.13940  Biso   1.000  C
  C38      1.0000 0.18554  0.70530  0.36060  Biso   1.000  C
  C39      1.0000 0.31446  0.20530  0.13940  Biso   1.000  C
  C40      1.0000 0.68554  0.20530  0.36060  Biso   1.000  C
  C41      1.0000 0.11603  0.34590  0.71890  Biso   1.000  C
  C42      1.0000 0.88397  0.34590  0.78110  Biso   1.000  C
  C43      1.0000 0.61603  0.84590  0.71890  Biso   1.000  C
  C44      1.0000 0.38397  0.84590  0.78110  Biso   1.000  C
  C45      1.0000 0.88397  0.65410  0.28110  Biso   1.000  C
  C46      1.0000 0.11603  0.65410  0.21890  Biso   1.000  C
  C47      1.0000 0.38397  0.15410  0.28110  Biso   1.000  C
  C48      1.0000 0.61603  0.15410  0.21890  Biso   1.000  C
  H25      1.0000 0.11300  0.34100  0.58700  Biso   1.000  H
  H26      1.0000 0.88700  0.34100  0.91300  Biso   1.000  H
  H27      1.0000 0.61300  0.84100  0.58700  Biso   1.000  H
  H28      1.0000 0.38700  0.84100  0.91300  Biso   1.000  H
  H29      1.0000 0.88700  0.65900  0.41300  Biso   1.000  H
  H30      1.0000 0.11300  0.65900  0.08700  Biso   1.000  H
  H31      1.0000 0.38700  0.15900  0.41300  Biso   1.000  H
  H32      1.0000 0.61300  0.15900  0.08700  Biso   1.000  H
  H33      1.0000 0.07900  0.32700  0.75800  Biso   1.000  H
  H34      1.0000 0.92100  0.32700  0.74200  Biso   1.000  H
  H35      1.0000 0.57900  0.82700  0.75800  Biso   1.000  H
  H36      1.0000 0.42100  0.82700  0.74200  Biso   1.000  H
  H37      1.0000 0.92100  0.67300  0.24200  Biso   1.000  H
  H38      1.0000 0.07900  0.67300  0.25800  Biso   1.000  H
  H39      1.0000 0.42100  0.17300  0.24200  Biso   1.000  H
  H40      1.0000 0.57900  0.17300  0.25800  Biso   1.000  H
  H41      1.0000 0.11400  0.43600  0.70100  Biso   1.000  H
  H42      1.0000 0.88600  0.43600  0.79900  Biso   1.000  H
  H43      1.0000 0.61400  0.93600  0.70100  Biso   1.000  H
  H44      1.0000 0.38600  0.93600  0.79900  Biso   1.000  H
  H45      1.0000 0.88600  0.56400  0.29900  Biso   1.000  H
  H46      1.0000 0.11400  0.56400  0.20100  Biso   1.000  H
  H47      1.0000 0.38600  0.06400  0.29900  Biso   1.000  H
  H48      1.0000 0.61400  0.06400  0.20100  Biso   1.000  H
