data_image0
_cell_length_a       8.519
_cell_length_b       13.576
_cell_length_c       6.076
_cell_angle_alpha    90
_cell_angle_beta     90
_cell_angle_gamma    90

_symmetry_space_group_name_H-M    "P 1"
_symmetry_int_tables_number       1

loop_
  _symmetry_equiv_pos_as_xyz
  'x, y, z'

loop_
  _atom_site_label
  _atom_site_occupancy
  _atom_site_fract_x
  _atom_site_fract_y
  _atom_site_fract_z
  _atom_site_thermal_displace_type
  _atom_site_B_iso_or_equiv
  _atom_site_type_symbol
  Cu1      1.0000 0.38750  0.74820  0.22150  Biso   1.000  Cu
  Cu2      1.0000 0.11250  0.25180  0.72150  Biso   1.000  Cu
  Cu3      1.0000 0.88750  0.75180  0.77850  Biso   1.000  Cu
  Cu4      1.0000 0.61250  0.24820  0.27850  Biso   1.000  Cu
  C1       1.0000 0.19050  0.75610  0.07320  Biso   1.000  C
  C2       1.0000 0.30950  0.24390  0.57320  Biso   1.000  C
  C3       1.0000 0.69050  0.74390  0.92680  Biso   1.000  C
  C4       1.0000 0.80950  0.25610  0.42680  Biso   1.000  C
  C5       1.0000 0.35120  0.62590  0.63410  Biso   1.000  C
  C6       1.0000 0.14880  0.37410  0.13410  Biso   1.000  C
  C7       1.0000 0.85120  0.87410  0.36590  Biso   1.000  C
  C8       1.0000 0.64880  0.12590  0.86590  Biso   1.000  C
  C9       1.0000 0.37910  0.55430  0.79060  Biso   1.000  C
  C10      1.0000 0.12090  0.44570  0.29060  Biso   1.000  C
  C11      1.0000 0.87910  0.94570  0.20940  Biso   1.000  C
  C12      1.0000 0.62090  0.05430  0.70940  Biso   1.000  C
  C13      1.0000 0.49070  0.48300  0.74310  Biso   1.000  C
  C14      1.0000 0.00930  0.51700  0.24310  Biso   1.000  C
  C15      1.0000 0.99070  0.01700  0.25690  Biso   1.000  C
  C16      1.0000 0.50930  0.98300  0.75690  Biso   1.000  C
  C17      1.0000 0.57000  0.48450  0.54380  Biso   1.000  C
  C18      1.0000 0.93000  0.51550  0.04380  Biso   1.000  C
  C19      1.0000 0.07000  0.01550  0.45620  Biso   1.000  C
  C20      1.0000 0.43000  0.98450  0.95620  Biso   1.000  C
  C21      1.0000 0.53410  0.56010  0.39940  Biso   1.000  C
  C22      1.0000 0.96590  0.43990  0.89940  Biso   1.000  C
  C23      1.0000 0.03410  0.93990  0.60060  Biso   1.000  C
  C24      1.0000 0.46590  0.06010  0.10060  Biso   1.000  C
  C25      1.0000 0.52960  0.40880  0.90710  Biso   1.000  C
  C26      1.0000 0.97040  0.59120  0.40710  Biso   1.000  C
  C27      1.0000 0.02960  0.09120  0.09290  Biso   1.000  C
  C28      1.0000 0.47040  0.90880  0.59290  Biso   1.000  C
  H1       1.0000 0.28300  0.67800  0.66500  Biso   1.000  H
  H2       1.0000 0.21700  0.32200  0.16500  Biso   1.000  H
  H3       1.0000 0.78300  0.82200  0.33500  Biso   1.000  H
  H4       1.0000 0.71700  0.17800  0.83500  Biso   1.000  H
  H5       1.0000 0.32000  0.55900  0.93200  Biso   1.000  H
  H6       1.0000 0.18000  0.44100  0.43200  Biso   1.000  H
  H7       1.0000 0.82000  0.94100  0.06800  Biso   1.000  H
  H8       1.0000 0.68000  0.05900  0.56800  Biso   1.000  H
  H9       1.0000 0.64400  0.43200  0.49500  Biso   1.000  H
  H10      1.0000 0.85600  0.56800  0.99500  Biso   1.000  H
  H11      1.0000 0.14400  0.06800  0.50500  Biso   1.000  H
  H12      1.0000 0.35600  0.93200  0.00500  Biso   1.000  H
  H13      1.0000 0.59100  0.55900  0.25200  Biso   1.000  H
  H14      1.0000 0.90900  0.44100  0.75200  Biso   1.000  H
  H15      1.0000 0.09100  0.94100  0.74800  Biso   1.000  H
  H16      1.0000 0.40900  0.05900  0.24800  Biso   1.000  H
  N1       1.0000 0.08050  0.75740  0.96490  Biso   1.000  N
  N2       1.0000 0.41950  0.24260  0.46490  Biso   1.000  N
  N3       1.0000 0.58050  0.74260  0.03510  Biso   1.000  N
  N4       1.0000 0.91950  0.25740  0.53510  Biso   1.000  N
  N5       1.0000 0.42620  0.62900  0.44080  Biso   1.000  N
  N6       1.0000 0.07380  0.37100  0.94080  Biso   1.000  N
  N7       1.0000 0.92620  0.87100  0.55920  Biso   1.000  N
  N8       1.0000 0.57380  0.12900  0.05920  Biso   1.000  N
  N9       1.0000 0.56220  0.35410  0.04190  Biso   1.000  N
  N10      1.0000 0.93780  0.64590  0.54190  Biso   1.000  N
  N11      1.0000 0.06220  0.14590  0.95810  Biso   1.000  N
  N12      1.0000 0.43780  0.85410  0.45810  Biso   1.000  N
