data_image0
_cell_length_a       10.054
_cell_length_b       12.97
_cell_length_c       15.296
_cell_angle_alpha    104.175
_cell_angle_beta     103.337
_cell_angle_gamma    90.791

_symmetry_space_group_name_H-M    "P 1"
_symmetry_int_tables_number       1

loop_
  _symmetry_equiv_pos_as_xyz
  'x, y, z'

loop_
  _atom_site_label
  _atom_site_occupancy
  _atom_site_fract_x
  _atom_site_fract_y
  _atom_site_fract_z
  _atom_site_thermal_displace_type
  _atom_site_B_iso_or_equiv
  _atom_site_type_symbol
  Bi1      1.0000 0.18273  0.92219  0.02052  Biso   1.000  Bi
  Bi2      1.0000 0.81727  0.07781  0.97948  Biso   1.000  Bi
  Bi3      1.0000 0.51954  0.09718  0.10184  Biso   1.000  Bi
  Bi4      1.0000 0.48046  0.90282  0.89816  Biso   1.000  Bi
  O1       1.0000 0.61450  0.03960  0.98733  Biso   1.000  O
  O2       1.0000 0.38550  0.96040  0.01267  Biso   1.000  O
  C1       1.0000 0.08130  0.95420  0.83760  Biso   1.000  C
  C2       1.0000 0.91870  0.04580  0.16240  Biso   1.000  C
  C3       1.0000 0.00870  0.94440  0.73570  Biso   1.000  C
  C4       1.0000 0.99130  0.05560  0.26430  Biso   1.000  C
  O3       1.0000 0.04830  0.02680  0.89670  Biso   1.000  O
  O4       1.0000 0.95170  0.97320  0.10330  Biso   1.000  O
  O5       1.0000 0.16210  0.88490  0.85400  Biso   1.000  O
  O6       1.0000 0.83790  0.11510  0.14600  Biso   1.000  O
  F1       1.0000 0.89080  0.89330  0.71510  Biso   1.000  F
  F2       1.0000 0.10920  0.10670  0.28490  Biso   1.000  F
  F3       1.0000 0.99160  0.03660  0.71710  Biso   1.000  F
  F4       1.0000 0.00840  0.96340  0.28290  Biso   1.000  F
  F5       1.0000 0.07850  0.89360  0.67910  Biso   1.000  F
  F6       1.0000 0.92150  0.10640  0.32090  Biso   1.000  F
  C5       1.0000 0.37080  0.94640  0.23630  Biso   1.000  C
  C6       1.0000 0.62920  0.05360  0.76370  Biso   1.000  C
  C7       1.0000 0.39850  0.90100  0.32270  Biso   1.000  C
  C8       1.0000 0.60150  0.09900  0.67730  Biso   1.000  C
  O7       1.0000 0.43610  0.03060  0.24490  Biso   1.000  O
  O8       1.0000 0.56390  0.96940  0.75510  Biso   1.000  O
  O9       1.0000 0.28520  0.89170  0.16830  Biso   1.000  O
  O10      1.0000 0.71480  0.10830  0.83170  Biso   1.000  O
  F7       1.0000 0.50830  0.85020  0.32800  Biso   1.000  F
  F8       1.0000 0.49170  0.14980  0.67200  Biso   1.000  F
  F9       1.0000 0.29940  0.83790  0.32480  Biso   1.000  F
  F10      1.0000 0.70060  0.16210  0.67520  Biso   1.000  F
  F11      1.0000 0.42490  0.97450  0.40020  Biso   1.000  F
  F12      1.0000 0.57510  0.02550  0.59980  Biso   1.000  F
  C9       1.0000 0.70950  0.30550  0.06270  Biso   1.000  C
  C10      1.0000 0.29050  0.69450  0.93730  Biso   1.000  C
  C11      1.0000 0.72200  0.42610  0.06959  Biso   1.000  C
  C12      1.0000 0.27800  0.57390  0.93041  Biso   1.000  C
  O11      1.0000 0.76620  0.25110  0.00350  Biso   1.000  O
  O12      1.0000 0.23380  0.74890  0.99650  Biso   1.000  O
  O13      1.0000 0.64950  0.27780  0.11510  Biso   1.000  O
  O14      1.0000 0.35050  0.72220  0.88490  Biso   1.000  O
  F13      1.0000 0.70720  0.44540  0.99020  Biso   1.000  F
  F14      1.0000 0.29280  0.55460  0.00980  Biso   1.000  F
  F15      1.0000 0.63230  0.47580  0.10670  Biso   1.000  F
  F16      1.0000 0.36770  0.52420  0.89330  Biso   1.000  F
  F17      1.0000 0.83860  0.47010  0.11840  Biso   1.000  F
  F18      1.0000 0.16140  0.52990  0.88160  Biso   1.000  F
  C13      1.0000 0.36240  0.14580  0.90620  Biso   1.000  C
  C14      1.0000 0.63760  0.85420  0.09380  Biso   1.000  C
  C15      1.0000 0.30960  0.23140  0.85660  Biso   1.000  C
  C16      1.0000 0.69040  0.76860  0.14340  Biso   1.000  C
  O15      1.0000 0.36340  0.05530  0.85560  Biso   1.000  O
  O16      1.0000 0.63660  0.94470  0.14440  Biso   1.000  O
  O17      1.0000 0.40120  0.18070  0.99250  Biso   1.000  O
  O18      1.0000 0.59880  0.81930  0.00750  Biso   1.000  O
  F19      1.0000 0.24330  0.19250  0.77030  Biso   1.000  F
  F20      1.0000 0.75670  0.80750  0.22970  Biso   1.000  F
  F21      1.0000 0.41520  0.29530  0.85810  Biso   1.000  F
  F22      1.0000 0.58480  0.70470  0.14190  Biso   1.000  F
  F23      1.0000 0.22980  0.29390  0.89830  Biso   1.000  F
  F24      1.0000 0.77020  0.70610  0.10170  Biso   1.000  F
  C17      1.0000 0.17600  0.19110  0.10810  Biso   1.000  C
  C18      1.0000 0.82400  0.80890  0.89190  Biso   1.000  C
  C19      1.0000 0.24960  0.30040  0.16230  Biso   1.000  C
  C20      1.0000 0.75040  0.69960  0.83770  Biso   1.000  C
  O19      1.0000 0.24910  0.11410  0.10610  Biso   1.000  O
  O20      1.0000 0.75090  0.88590  0.89390  Biso   1.000  O
  O21      1.0000 0.05290  0.19330  0.07490  Biso   1.000  O
  O22      1.0000 0.94710  0.80670  0.92510  Biso   1.000  O
  F25      1.0000 0.38370  0.30050  0.18540  Biso   1.000  F
  F26      1.0000 0.61630  0.69950  0.81460  Biso   1.000  F
  F27      1.0000 0.22350  0.37320  0.11450  Biso   1.000  F
  F28      1.0000 0.77650  0.62680  0.88550  Biso   1.000  F
  F29      1.0000 0.21030  0.33760  0.23790  Biso   1.000  F
  F30      1.0000 0.78970  0.66240  0.76210  Biso   1.000  F
  F31      1.0000 0.61360  0.45720  0.02480  Biso   1.000  F
  F32      1.0000 0.38640  0.54280  0.97520  Biso   1.000  F
  F33      1.0000 0.74420  0.48220  0.15320  Biso   1.000  F
  F34      1.0000 0.25580  0.51780  0.84680  Biso   1.000  F
  F35      1.0000 0.82000  0.45180  0.03720  Biso   1.000  F
  F36      1.0000 0.18000  0.54820  0.96280  Biso   1.000  F
  C21      1.0000 0.57920  0.25720  0.38120  Biso   1.000  C
  C22      1.0000 0.42080  0.74280  0.61880  Biso   1.000  C
  C23      1.0000 0.61240  0.35120  0.46420  Biso   1.000  C
  C24      1.0000 0.38760  0.64880  0.53580  Biso   1.000  C
  O23      1.0000 0.50130  0.18520  0.39420  Biso   1.000  O
  O24      1.0000 0.49870  0.81480  0.60580  Biso   1.000  O
  H1       1.0000 0.48420  0.13440  0.34820  Biso   1.000  H
  H2       1.0000 0.51580  0.86560  0.65180  Biso   1.000  H
  O25      1.0000 0.62750  0.24930  0.31740  Biso   1.000  O
  O26      1.0000 0.37250  0.75070  0.68260  Biso   1.000  O
  F37      1.0000 0.68920  0.32700  0.53880  Biso   1.000  F
  F38      1.0000 0.31080  0.67300  0.46120  Biso   1.000  F
  F39      1.0000 0.50140  0.38540  0.48890  Biso   1.000  F
  F40      1.0000 0.49860  0.61460  0.51110  Biso   1.000  F
  F41      1.0000 0.67900  0.43040  0.45010  Biso   1.000  F
  F42      1.0000 0.32100  0.56960  0.54990  Biso   1.000  F
  Cu1      1.0000 0.91478  0.70901  0.41287  Biso   1.000  Cu
  Cu2      1.0000 0.08522  0.29099  0.58713  Biso   1.000  Cu
  N1       1.0000 0.01150  0.68310  0.31050  Biso   1.000  N
  N2       1.0000 0.98850  0.31690  0.68950  Biso   1.000  N
  C25      1.0000 0.04810  0.67000  0.24470  Biso   1.000  C
  C26      1.0000 0.95190  0.33000  0.75530  Biso   1.000  C
  C27      1.0000 0.09020  0.65600  0.15750  Biso   1.000  C
  C28      1.0000 0.90980  0.34400  0.84250  Biso   1.000  C
  H3       1.0000 0.07090  0.71780  0.13400  Biso   1.000  H
  H4       1.0000 0.92910  0.28220  0.86600  Biso   1.000  H
  H5       1.0000 0.04060  0.59410  0.11290  Biso   1.000  H
  H6       1.0000 0.95940  0.40590  0.88710  Biso   1.000  H
  H7       1.0000 0.18670  0.64700  0.16820  Biso   1.000  H
  H8       1.0000 0.81330  0.35300  0.83180  Biso   1.000  H
  N3       1.0000 0.87550  0.86450  0.44660  Biso   1.000  N
  N4       1.0000 0.12450  0.13550  0.55340  Biso   1.000  N
  C29      1.0000 0.83440  0.94590  0.45510  Biso   1.000  C
  C30      1.0000 0.16560  0.05410  0.54490  Biso   1.000  C
  C31      1.0000 0.78120  0.04970  0.46350  Biso   1.000  C
  C32      1.0000 0.21880  0.95030  0.53650  Biso   1.000  C
  H9       1.0000 0.78930  0.07580  0.41130  Biso   1.000  H
  H10      1.0000 0.21070  0.92420  0.58870  Biso   1.000  H
  H11      1.0000 0.83240  0.09800  0.51990  Biso   1.000  H
  H12      1.0000 0.16760  0.90200  0.48010  Biso   1.000  H
  H13      1.0000 0.68650  0.04430  0.46510  Biso   1.000  H
  H14      1.0000 0.31350  0.95570  0.53490  Biso   1.000  H
  N5       1.0000 0.99760  0.66120  0.52510  Biso   1.000  N
  N6       1.0000 0.00240  0.33880  0.47490  Biso   1.000  N
  C33      1.0000 0.03520  0.64020  0.59360  Biso   1.000  C
  C34      1.0000 0.96480  0.35980  0.40640  Biso   1.000  C
  C35      1.0000 0.08370  0.61420  0.68150  Biso   1.000  C
  C36      1.0000 0.91630  0.38580  0.31850  Biso   1.000  C
  H15      1.0000 0.16860  0.58100  0.68230  Biso   1.000  H
  H16      1.0000 0.83140  0.41900  0.31770  Biso   1.000  H
  H17      1.0000 0.01690  0.56620  0.68970  Biso   1.000  H
  H18      1.0000 0.98310  0.43380  0.31030  Biso   1.000  H
  H19      1.0000 0.09800  0.67830  0.73100  Biso   1.000  H
  H20      1.0000 0.90200  0.32170  0.26900  Biso   1.000  H
  N7       1.0000 0.72680  0.63440  0.35440  Biso   1.000  N
  N8       1.0000 0.27320  0.36560  0.64560  Biso   1.000  N
  C37      1.0000 0.61990  0.59880  0.31730  Biso   1.000  C
  C38      1.0000 0.38010  0.40120  0.68270  Biso   1.000  C
  C39      1.0000 0.47920  0.55730  0.26750  Biso   1.000  C
  C40      1.0000 0.52080  0.44270  0.73250  Biso   1.000  C
  H21      1.0000 0.47190  0.54040  0.20170  Biso   1.000  H
  H22      1.0000 0.52810  0.45960  0.79830  Biso   1.000  H
  H23      1.0000 0.41690  0.61030  0.28320  Biso   1.000  H
  H24      1.0000 0.58310  0.38970  0.71680  Biso   1.000  H
  H25      1.0000 0.45670  0.49420  0.28490  Biso   1.000  H
  H26      1.0000 0.54330  0.50580  0.71510  Biso   1.000  H
