data_image0
_cell_length_a       9.19811
_cell_length_b       9.53801
_cell_length_c       13.1998
_cell_angle_alpha    105.897
_cell_angle_beta     108.234
_cell_angle_gamma    92.7678

_symmetry_space_group_name_H-M    "P 1"
_symmetry_int_tables_number       1

loop_
  _symmetry_equiv_pos_as_xyz
  'x, y, z'

loop_
  _atom_site_label
  _atom_site_occupancy
  _atom_site_fract_x
  _atom_site_fract_y
  _atom_site_fract_z
  _atom_site_thermal_displace_type
  _atom_site_B_iso_or_equiv
  _atom_site_type_symbol
  I1       1.0000 0.79732  0.11487  0.92130  Biso   1.000  I
  I2       1.0000 0.20268  0.88513  0.07870  Biso   1.000  I
  Cu1      1.0000 0.04714  0.98725  0.89604  Biso   1.000  Cu
  Cu2      1.0000 0.95286  0.01275  0.10396  Biso   1.000  Cu
  P1       1.0000 0.00575  0.78798  0.73376  Biso   1.000  P
  P2       1.0000 0.99425  0.21202  0.26624  Biso   1.000  P
  N1       1.0000 0.22180  0.18450  0.93270  Biso   1.000  N
  N2       1.0000 0.77820  0.81550  0.06730  Biso   1.000  N
  C1       1.0000 0.18120  0.30550  0.90450  Biso   1.000  C
  C2       1.0000 0.81880  0.69450  0.09550  Biso   1.000  C
  C3       1.0000 0.28440  0.42840  0.92870  Biso   1.000  C
  C4       1.0000 0.71560  0.57160  0.07130  Biso   1.000  C
  C5       1.0000 0.44150  0.43550  0.98570  Biso   1.000  C
  C6       1.0000 0.55850  0.56450  0.01430  Biso   1.000  C
  C7       1.0000 0.48220  0.30860  0.01370  Biso   1.000  C
  C8       1.0000 0.51780  0.69140  0.98630  Biso   1.000  C
  C9       1.0000 0.37170  0.19040  0.98690  Biso   1.000  C
  C10      1.0000 0.62830  0.80960  0.01310  Biso   1.000  C
  C11      1.0000 0.18670  0.72690  0.72190  Biso   1.000  C
  C12      1.0000 0.81330  0.27310  0.27810  Biso   1.000  C
  C13      1.0000 0.31030  0.83590  0.74550  Biso   1.000  C
  C14      1.0000 0.68970  0.16410  0.25450  Biso   1.000  C
  C15      1.0000 0.44900  0.80000  0.73490  Biso   1.000  C
  C16      1.0000 0.55100  0.20000  0.26510  Biso   1.000  C
  C17      1.0000 0.46730  0.65020  0.70130  Biso   1.000  C
  C18      1.0000 0.53270  0.34980  0.29870  Biso   1.000  C
  C19      1.0000 0.34930  0.54300  0.68130  Biso   1.000  C
  C20      1.0000 0.65070  0.45700  0.31870  Biso   1.000  C
  C21      1.0000 0.20740  0.57950  0.69080  Biso   1.000  C
  C22      1.0000 0.79260  0.42050  0.30920  Biso   1.000  C
  C23      1.0000 0.88870  0.61880  0.71820  Biso   1.000  C
  C24      1.0000 0.11130  0.38120  0.28180  Biso   1.000  C
  C25      1.0000 0.88380  0.58850  0.81650  Biso   1.000  C
  C26      1.0000 0.11620  0.41150  0.18350  Biso   1.000  C
  C27      1.0000 0.80250  0.45720  0.80840  Biso   1.000  C
  C28      1.0000 0.19750  0.54280  0.19160  Biso   1.000  C
  C29      1.0000 0.72490  0.35670  0.70500  Biso   1.000  C
  C30      1.0000 0.27510  0.64330  0.29500  Biso   1.000  C
  C31      1.0000 0.72670  0.38580  0.60740  Biso   1.000  C
  C32      1.0000 0.27330  0.61420  0.39260  Biso   1.000  C
  C33      1.0000 0.80720  0.51540  0.61500  Biso   1.000  C
  C34      1.0000 0.19280  0.48460  0.38500  Biso   1.000  C
  C35      1.0000 0.91430  0.82060  0.60060  Biso   1.000  C
  C36      1.0000 0.08570  0.17940  0.39940  Biso   1.000  C
  C37      1.0000 0.77460  0.88010  0.58440  Biso   1.000  C
  C38      1.0000 0.22540  0.11990  0.41560  Biso   1.000  C
  C39      1.0000 0.69750  0.90280  0.48340  Biso   1.000  C
  C40      1.0000 0.30250  0.09720  0.51660  Biso   1.000  C
  C41      1.0000 0.75970  0.87120  0.39780  Biso   1.000  C
  C42      1.0000 0.24030  0.12880  0.60220  Biso   1.000  C
  C43      1.0000 0.89750  0.81710  0.41290  Biso   1.000  C
  C44      1.0000 0.10250  0.18290  0.58710  Biso   1.000  C
  C45      1.0000 0.97240  0.79240  0.51330  Biso   1.000  C
  C46      1.0000 0.02760  0.20760  0.48670  Biso   1.000  C
  H1       1.0000 0.07520  0.30600  0.86580  Biso   1.000  H
  H2       1.0000 0.92480  0.69400  0.13420  Biso   1.000  H
  H3       1.0000 0.24830  0.51040  0.90610  Biso   1.000  H
  H4       1.0000 0.75170  0.48960  0.09390  Biso   1.000  H
  H5       1.0000 0.58750  0.30410  0.05150  Biso   1.000  H
  H6       1.0000 0.41250  0.69590  0.94850  Biso   1.000  H
  H7       1.0000 0.40430  0.10680  0.00860  Biso   1.000  H
  H8       1.0000 0.59570  0.89320  0.99140  Biso   1.000  H
  H9       1.0000 0.29820  0.93670  0.76930  Biso   1.000  H
  H10      1.0000 0.70180  0.06330  0.23070  Biso   1.000  H
  H11      1.0000 0.53140  0.87520  0.75000  Biso   1.000  H
  H12      1.0000 0.46860  0.12480  0.25000  Biso   1.000  H
  H13      1.0000 0.56200  0.62400  0.69250  Biso   1.000  H
  H14      1.0000 0.43800  0.37600  0.30750  Biso   1.000  H
  H15      1.0000 0.36350  0.44240  0.66080  Biso   1.000  H
  H16      1.0000 0.63650  0.55760  0.33920  Biso   1.000  H
  H17      1.0000 0.12550  0.50390  0.67600  Biso   1.000  H
  H18      1.0000 0.87450  0.49610  0.32400  Biso   1.000  H
  H19      1.0000 0.93620  0.65800  0.88790  Biso   1.000  H
  H20      1.0000 0.06380  0.34200  0.11210  Biso   1.000  H
  H21      1.0000 0.80040  0.43660  0.87440  Biso   1.000  H
  H22      1.0000 0.19960  0.56340  0.12560  Biso   1.000  H
  H23      1.0000 0.66970  0.26690  0.70010  Biso   1.000  H
  H24      1.0000 0.33030  0.73310  0.29990  Biso   1.000  H
  H25      1.0000 0.67270  0.31640  0.53620  Biso   1.000  H
  H26      1.0000 0.32730  0.68360  0.46380  Biso   1.000  H
  H27      1.0000 0.80730  0.53510  0.54830  Biso   1.000  H
  H28      1.0000 0.19270  0.46490  0.45170  Biso   1.000  H
  H29      1.0000 0.73300  0.90480  0.64340  Biso   1.000  H
  H30      1.0000 0.26700  0.09520  0.35660  Biso   1.000  H
  H31      1.0000 0.60170  0.94010  0.47240  Biso   1.000  H
  H32      1.0000 0.39830  0.05990  0.52760  Biso   1.000  H
  H33      1.0000 0.70630  0.88720  0.32860  Biso   1.000  H
  H34      1.0000 0.29370  0.11280  0.67140  Biso   1.000  H
  H35      1.0000 0.94100  0.79690  0.35480  Biso   1.000  H
  H36      1.0000 0.05900  0.20310  0.64520  Biso   1.000  H
  H37      1.0000 0.06770  0.75440  0.52300  Biso   1.000  H
  H38      1.0000 0.93230  0.24560  0.47700  Biso   1.000  H
