data_image0
_cell_length_a       9.1739
_cell_length_b       9.3642
_cell_length_c       13.2335
_cell_angle_alpha    107.238
_cell_angle_beta     107.103
_cell_angle_gamma    92.989

_symmetry_space_group_name_H-M    "P 1"
_symmetry_int_tables_number       1

loop_
  _symmetry_equiv_pos_as_xyz
  'x, y, z'

loop_
  _atom_site_label
  _atom_site_occupancy
  _atom_site_fract_x
  _atom_site_fract_y
  _atom_site_fract_z
  _atom_site_thermal_displace_type
  _atom_site_B_iso_or_equiv
  _atom_site_type_symbol
  I1       1.0000 0.81038  0.11218  0.92750  Biso   1.000  I
  I2       1.0000 0.18962  0.88782  0.07250  Biso   1.000  I
  Cu1      1.0000 0.05767  0.99238  0.89981  Biso   1.000  Cu
  Cu2      1.0000 0.94233  0.00762  0.10019  Biso   1.000  Cu
  P1       1.0000 0.01031  0.79661  0.74249  Biso   1.000  P
  P2       1.0000 0.98969  0.20339  0.25751  Biso   1.000  P
  N1       1.0000 0.21900  0.17920  0.93450  Biso   1.000  N
  N2       1.0000 0.78100  0.82080  0.06550  Biso   1.000  N
  C1       1.0000 0.18170  0.30060  0.90490  Biso   1.000  C
  C2       1.0000 0.81830  0.69940  0.09510  Biso   1.000  C
  C3       1.0000 0.28550  0.42740  0.92680  Biso   1.000  C
  C4       1.0000 0.71450  0.57260  0.07320  Biso   1.000  C
  C5       1.0000 0.44240  0.43350  0.98630  Biso   1.000  C
  C6       1.0000 0.55760  0.56650  0.01370  Biso   1.000  C
  C7       1.0000 0.48040  0.30600  0.01640  Biso   1.000  C
  C8       1.0000 0.51960  0.69400  0.98360  Biso   1.000  C
  C9       1.0000 0.36850  0.18610  0.98940  Biso   1.000  C
  C10      1.0000 0.63150  0.81390  0.01060  Biso   1.000  C
  C11      1.0000 0.19120  0.73360  0.72640  Biso   1.000  C
  C12      1.0000 0.80880  0.26640  0.27360  Biso   1.000  C
  C13      1.0000 0.31120  0.84410  0.74760  Biso   1.000  C
  C14      1.0000 0.68880  0.15590  0.25240  Biso   1.000  C
  C15      1.0000 0.45030  0.80780  0.73280  Biso   1.000  C
  C16      1.0000 0.54970  0.19220  0.26720  Biso   1.000  C
  C17      1.0000 0.46940  0.65570  0.69840  Biso   1.000  C
  C18      1.0000 0.53060  0.34430  0.30160  Biso   1.000  C
  C19      1.0000 0.34950  0.54320  0.68080  Biso   1.000  C
  C20      1.0000 0.65050  0.45680  0.31920  Biso   1.000  C
  C21      1.0000 0.21040  0.58180  0.69160  Biso   1.000  C
  C22      1.0000 0.78960  0.41820  0.30840  Biso   1.000  C
  C23      1.0000 0.89150  0.62410  0.72310  Biso   1.000  C
  C24      1.0000 0.10850  0.37590  0.27690  Biso   1.000  C
  C25      1.0000 0.88080  0.58900  0.81750  Biso   1.000  C
  C26      1.0000 0.11920  0.41100  0.18250  Biso   1.000  C
  C27      1.0000 0.79770  0.45280  0.80510  Biso   1.000  C
  C28      1.0000 0.20230  0.54720  0.19490  Biso   1.000  C
  C29      1.0000 0.72080  0.34960  0.69950  Biso   1.000  C
  C30      1.0000 0.27920  0.65040  0.30050  Biso   1.000  C
  C31      1.0000 0.72860  0.38410  0.60610  Biso   1.000  C
  C32      1.0000 0.27140  0.61590  0.39390  Biso   1.000  C
  C33      1.0000 0.81140  0.51660  0.61730  Biso   1.000  C
  C34      1.0000 0.18860  0.48340  0.38270  Biso   1.000  C
  C35      1.0000 0.92110  0.83070  0.60990  Biso   1.000  C
  C36      1.0000 0.07890  0.16930  0.39010  Biso   1.000  C
  C37      1.0000 0.78620  0.89760  0.60000  Biso   1.000  C
  C38      1.0000 0.21380  0.10240  0.40000  Biso   1.000  C
  C39      1.0000 0.71010  0.91880  0.49920  Biso   1.000  C
  C40      1.0000 0.28990  0.08120  0.50080  Biso   1.000  C
  C41      1.0000 0.76730  0.88030  0.41090  Biso   1.000  C
  C42      1.0000 0.23270  0.11970  0.58910  Biso   1.000  C
  C43      1.0000 0.90030  0.81650  0.42150  Biso   1.000  C
  C44      1.0000 0.09970  0.18350  0.57850  Biso   1.000  C
  C45      1.0000 0.97830  0.79400  0.52080  Biso   1.000  C
  C46      1.0000 0.02170  0.20600  0.47920  Biso   1.000  C
  H1       1.0000 0.07640  0.29970  0.86590  Biso   1.000  H
  H2       1.0000 0.92360  0.70030  0.13410  Biso   1.000  H
  H3       1.0000 0.25160  0.50920  0.90230  Biso   1.000  H
  H4       1.0000 0.74840  0.49080  0.09770  Biso   1.000  H
  H5       1.0000 0.58430  0.30260  0.05580  Biso   1.000  H
  H6       1.0000 0.41570  0.69740  0.94420  Biso   1.000  H
  H7       1.0000 0.39910  0.10140  0.01130  Biso   1.000  H
  H8       1.0000 0.60090  0.89860  0.98870  Biso   1.000  H
  H9       1.0000 0.29890  0.94740  0.77290  Biso   1.000  H
  H10      1.0000 0.70110  0.05260  0.22710  Biso   1.000  H
  H11      1.0000 0.53130  0.88530  0.74600  Biso   1.000  H
  H12      1.0000 0.46870  0.11470  0.25400  Biso   1.000  H
  H13      1.0000 0.56320  0.62890  0.68700  Biso   1.000  H
  H14      1.0000 0.43680  0.37110  0.31300  Biso   1.000  H
  H15      1.0000 0.36390  0.44000  0.66140  Biso   1.000  H
  H16      1.0000 0.63610  0.56000  0.33860  Biso   1.000  H
  H17      1.0000 0.12730  0.50470  0.67530  Biso   1.000  H
  H18      1.0000 0.87270  0.49530  0.32470  Biso   1.000  H
  H19      1.0000 0.93070  0.65910  0.89020  Biso   1.000  H
  H20      1.0000 0.06930  0.34090  0.10980  Biso   1.000  H
  H21      1.0000 0.79340  0.43000  0.86960  Biso   1.000  H
  H22      1.0000 0.20660  0.57000  0.13040  Biso   1.000  H
  H23      1.0000 0.66380  0.25690  0.69140  Biso   1.000  H
  H24      1.0000 0.33620  0.74310  0.30860  Biso   1.000  H
  H25      1.0000 0.67580  0.31470  0.53350  Biso   1.000  H
  H26      1.0000 0.32420  0.68530  0.46650  Biso   1.000  H
  H27      1.0000 0.81530  0.53710  0.55190  Biso   1.000  H
  H28      1.0000 0.18470  0.46290  0.44810  Biso   1.000  H
  H29      1.0000 0.74770  0.92790  0.66110  Biso   1.000  H
  H30      1.0000 0.25230  0.07210  0.33890  Biso   1.000  H
  H31      1.0000 0.61690  0.96070  0.49100  Biso   1.000  H
  H32      1.0000 0.38310  0.03930  0.50900  Biso   1.000  H
  H33      1.0000 0.71510  0.89770  0.34310  Biso   1.000  H
  H34      1.0000 0.28490  0.10230  0.65690  Biso   1.000  H
  H35      1.0000 0.93880  0.78780  0.36030  Biso   1.000  H
  H36      1.0000 0.06120  0.21220  0.63970  Biso   1.000  H
  H37      1.0000 0.07190  0.75300  0.52810  Biso   1.000  H
  H38      1.0000 0.92810  0.24700  0.47190  Biso   1.000  H
