data_image0
_cell_length_a       9.9318
_cell_length_b       10.998
_cell_length_c       14.451
_cell_angle_alpha    99.617
_cell_angle_beta     107.067
_cell_angle_gamma    103.331

_symmetry_space_group_name_H-M    "P 1"
_symmetry_int_tables_number       1

loop_
  _symmetry_equiv_pos_as_xyz
  'x, y, z'

loop_
  _atom_site_label
  _atom_site_occupancy
  _atom_site_fract_x
  _atom_site_fract_y
  _atom_site_fract_z
  _atom_site_thermal_displace_type
  _atom_site_B_iso_or_equiv
  _atom_site_type_symbol
  Cu1      1.0000 0.99158  0.28134  0.14651  Biso   1.000  Cu
  Cu2      1.0000 0.00842  0.71866  0.85349  Biso   1.000  Cu
  N1       1.0000 0.99180  0.41068  0.05769  Biso   1.000  N
  N2       1.0000 0.00820  0.58932  0.94231  Biso   1.000  N
  C1       1.0000 0.03750  0.39310  0.97974  Biso   1.000  C
  C2       1.0000 0.96250  0.60690  0.02026  Biso   1.000  C
  H1       1.0000 0.06530  0.31850  0.96340  Biso   1.000  H
  H2       1.0000 0.93470  0.68150  0.03660  Biso   1.000  H
  C3       1.0000 0.95480  0.51870  0.07744  Biso   1.000  C
  C4       1.0000 0.04520  0.48130  0.92256  Biso   1.000  C
  H3       1.0000 0.92260  0.53520  0.13200  Biso   1.000  H
  H4       1.0000 0.07740  0.46480  0.86800  Biso   1.000  H
  N3       1.0000 0.99786  0.11573  0.05567  Biso   1.000  N
  N4       1.0000 0.00214  0.88427  0.94433  Biso   1.000  N
  C5       1.0000 0.12210  0.08288  0.06771  Biso   1.000  C
  C6       1.0000 0.87790  0.91712  0.93229  Biso   1.000  C
  H5       1.0000 0.21090  0.13950  0.11500  Biso   1.000  H
  H6       1.0000 0.78910  0.86050  0.88500  Biso   1.000  H
  C7       1.0000 0.87620  0.03118  0.98698  Biso   1.000  C
  C8       1.0000 0.12380  0.96882  0.01302  Biso   1.000  C
  H7       1.0000 0.78610  0.05030  0.97560  Biso   1.000  H
  H8       1.0000 0.21390  0.94970  0.02440  Biso   1.000  H
  N5       1.0000 0.77391  0.21765  0.13606  Biso   1.000  N
  N6       1.0000 0.22609  0.78235  0.86394  Biso   1.000  N
  C9       1.0000 0.73490  0.12540  0.18030  Biso   1.000  C
  C10      1.0000 0.26510  0.87460  0.81970  Biso   1.000  C
  H9       1.0000 0.80870  0.09980  0.22290  Biso   1.000  H
  H10      1.0000 0.19130  0.90020  0.77710  Biso   1.000  H
  C11      1.0000 0.58930  0.06620  0.16540  Biso   1.000  C
  C12      1.0000 0.41070  0.93380  0.83460  Biso   1.000  C
  H11      1.0000 0.56720  0.00110  0.19800  Biso   1.000  H
  H12      1.0000 0.43280  0.99890  0.80200  Biso   1.000  H
  N7       1.0000 0.47960  0.09730  0.10740  Biso   1.000  N
  N8       1.0000 0.52040  0.90270  0.89260  Biso   1.000  N
  C13      1.0000 0.51780  0.18860  0.06330  Biso   1.000  C
  C14      1.0000 0.48220  0.81140  0.93670  Biso   1.000  C
  H13      1.0000 0.44340  0.21390  0.02100  Biso   1.000  H
  H14      1.0000 0.55660  0.78610  0.97900  Biso   1.000  H
  C15      1.0000 0.66330  0.24850  0.07692  Biso   1.000  C
  C16      1.0000 0.33670  0.75150  0.92308  Biso   1.000  C
  H15      1.0000 0.68460  0.31280  0.04350  Biso   1.000  H
  H16      1.0000 0.31540  0.68720  0.95650  Biso   1.000  H
  C17      1.0000 0.17490  0.50761  0.36277  Biso   1.000  C
  C18      1.0000 0.82510  0.49239  0.63723  Biso   1.000  C
  C19      1.0000 0.04270  0.51330  0.37380  Biso   1.000  C
  C20      1.0000 0.95730  0.48670  0.62620  Biso   1.000  C
  H17      1.0000 0.95860  0.44120  0.34270  Biso   1.000  H
  H18      1.0000 0.04140  0.55880  0.65730  Biso   1.000  H
  C21      1.0000 0.03210  0.62290  0.42970  Biso   1.000  C
  C22      1.0000 0.96790  0.37710  0.57030  Biso   1.000  C
  H19      1.0000 0.94140  0.62480  0.43660  Biso   1.000  H
  H20      1.0000 0.05860  0.37520  0.56340  Biso   1.000  H
  C23      1.0000 0.15250  0.72820  0.47500  Biso   1.000  C
  C24      1.0000 0.84750  0.27180  0.52500  Biso   1.000  C
  H21      1.0000 0.14530  0.80260  0.51370  Biso   1.000  H
  H22      1.0000 0.85470  0.19740  0.48630  Biso   1.000  H
  C25      1.0000 0.28430  0.72550  0.46420  Biso   1.000  C
  C26      1.0000 0.71570  0.27450  0.53580  Biso   1.000  C
  H23      1.0000 0.36710  0.79880  0.49490  Biso   1.000  H
  H24      1.0000 0.63290  0.20120  0.50510  Biso   1.000  H
  C27      1.0000 0.29720  0.61500  0.40816  Biso   1.000  C
  C28      1.0000 0.70280  0.38500  0.59184  Biso   1.000  C
  H25      1.0000 0.38820  0.61360  0.40140  Biso   1.000  H
  H26      1.0000 0.61180  0.38640  0.59860  Biso   1.000  H
  C29      1.0000 0.35590  0.39531  0.27572  Biso   1.000  C
  C30      1.0000 0.64410  0.60469  0.72428  Biso   1.000  C
  C31      1.0000 0.37620  0.47080  0.21029  Biso   1.000  C
  C32      1.0000 0.62380  0.52920  0.78971  Biso   1.000  C
  H27      1.0000 0.29670  0.49570  0.17340  Biso   1.000  H
  H28      1.0000 0.70330  0.50430  0.82660  Biso   1.000  H
  C33      1.0000 0.51110  0.51000  0.19840  Biso   1.000  C
  C34      1.0000 0.48890  0.49000  0.80160  Biso   1.000  C
  H29      1.0000 0.52370  0.56270  0.15480  Biso   1.000  H
  H30      1.0000 0.47630  0.43730  0.84520  Biso   1.000  H
  C35      1.0000 0.62710  0.47190  0.25071  Biso   1.000  C
  C36      1.0000 0.37290  0.52810  0.74929  Biso   1.000  C
  H31      1.0000 0.71950  0.49890  0.24330  Biso   1.000  H
  H32      1.0000 0.28050  0.50110  0.75670  Biso   1.000  H
  C37      1.0000 0.60760  0.39430  0.31362  Biso   1.000  C
  C38      1.0000 0.39240  0.60570  0.68638  Biso   1.000  C
  H33      1.0000 0.68650  0.36710  0.34840  Biso   1.000  H
  H34      1.0000 0.31350  0.63290  0.65160  Biso   1.000  H
  C39      1.0000 0.47240  0.35550  0.32647  Biso   1.000  C
  C40      1.0000 0.52760  0.64450  0.67353  Biso   1.000  C
  H35      1.0000 0.46010  0.30210  0.36970  Biso   1.000  H
  H36      1.0000 0.53990  0.69790  0.63030  Biso   1.000  H
  C41      1.0000 0.18920  0.25727  0.37943  Biso   1.000  C
  C42      1.0000 0.81080  0.74273  0.62057  Biso   1.000  C
  C43      1.0000 0.27170  0.30820  0.48049  Biso   1.000  C
  C44      1.0000 0.72830  0.69180  0.51951  Biso   1.000  C
  H37      1.0000 0.32570  0.39620  0.50410  Biso   1.000  H
  H38      1.0000 0.67430  0.60380  0.49590  Biso   1.000  H
  C45      1.0000 0.27510  0.23050  0.54655  Biso   1.000  C
  C46      1.0000 0.72490  0.76950  0.45345  Biso   1.000  C
  H39      1.0000 0.33160  0.26560  0.61480  Biso   1.000  H
  H40      1.0000 0.66840  0.73440  0.38520  Biso   1.000  H
  C47      1.0000 0.19540  0.10170  0.51229  Biso   1.000  C
  C48      1.0000 0.80460  0.89830  0.48771  Biso   1.000  C
  H41      1.0000 0.19680  0.04910  0.55740  Biso   1.000  H
  H42      1.0000 0.80320  0.95090  0.44260  Biso   1.000  H
  C49      1.0000 0.11380  0.04940  0.41231  Biso   1.000  C
  C50      1.0000 0.88620  0.95060  0.58769  Biso   1.000  C
  H43      1.0000 0.06010  0.96130  0.38910  Biso   1.000  H
  H44      1.0000 0.93990  0.03870  0.61090  Biso   1.000  H
  C51      1.0000 0.11110  0.12700  0.34604  Biso   1.000  C
  C52      1.0000 0.88890  0.87300  0.65396  Biso   1.000  C
  H45      1.0000 0.05570  0.09110  0.27770  Biso   1.000  H
  H46      1.0000 0.94430  0.90890  0.72230  Biso   1.000  H
  P1       1.0000 0.17608  0.35620  0.29019  Biso   1.000  P
  P2       1.0000 0.82392  0.64380  0.70981  Biso   1.000  P
  B1       1.0000 0.17850  0.20700  0.82000  Biso   1.000  B
  B2       1.0000 0.82150  0.79300  0.18000  Biso   1.000  B
  F1       1.0000 0.09730  0.27041  0.76318  Biso   1.000  F
  F2       1.0000 0.90270  0.72959  0.23682  Biso   1.000  F
  F3       1.0000 0.24040  0.14150  0.76431  Biso   1.000  F
  F4       1.0000 0.75960  0.85850  0.23569  Biso   1.000  F
  F5       1.0000 0.28220  0.29760  0.90247  Biso   1.000  F
  F6       1.0000 0.71780  0.70240  0.09753  Biso   1.000  F
  F7       1.0000 0.08530  0.12307  0.85039  Biso   1.000  F
  F8       1.0000 0.91470  0.87693  0.14961  Biso   1.000  F
  C53      1.0000 0.72930  0.12470  0.73930  Biso   1.000  C
  C54      1.0000 0.27070  0.87530  0.26070  Biso   1.000  C
  H47      1.0000 0.79080  0.17900  0.71090  Biso   1.000  H
  H48      1.0000 0.20920  0.82100  0.28910  Biso   1.000  H
  H49      1.0000 0.78720  0.07410  0.77390  Biso   1.000  H
  H50      1.0000 0.21280  0.92590  0.22610  Biso   1.000  H
  Cl1      1.0000 0.68334  0.22250  0.82505  Biso   1.000  Cl
  Cl2      1.0000 0.31666  0.77750  0.17495  Biso   1.000  Cl
  Cl3      1.0000 0.57441  0.02059  0.64351  Biso   1.000  Cl
  Cl4      1.0000 0.42559  0.97941  0.35649  Biso   1.000  Cl
