data_image0
_cell_length_a       27.99
_cell_length_b       11.112
_cell_length_c       17.2816
_cell_angle_alpha    90
_cell_angle_beta     102.175
_cell_angle_gamma    90

_symmetry_space_group_name_H-M    "P 1"
_symmetry_int_tables_number       1

loop_
  _symmetry_equiv_pos_as_xyz
  'x, y, z'

loop_
  _atom_site_label
  _atom_site_occupancy
  _atom_site_fract_x
  _atom_site_fract_y
  _atom_site_fract_z
  _atom_site_thermal_displace_type
  _atom_site_B_iso_or_equiv
  _atom_site_type_symbol
  Cu1      1.0000 0.20394  0.00020  0.07393  Biso   1.000  Cu
  Cu2      1.0000 0.79606  0.00020  0.42607  Biso   1.000  Cu
  Cu3      1.0000 0.70394  0.50020  0.07393  Biso   1.000  Cu
  Cu4      1.0000 0.29606  0.50020  0.42607  Biso   1.000  Cu
  Cu5      1.0000 0.79606  0.99980  0.92607  Biso   1.000  Cu
  Cu6      1.0000 0.20394  0.99980  0.57393  Biso   1.000  Cu
  Cu7      1.0000 0.29606  0.49980  0.92607  Biso   1.000  Cu
  Cu8      1.0000 0.70394  0.49980  0.57393  Biso   1.000  Cu
  N1       1.0000 0.23110  0.85140  0.03030  Biso   1.000  N
  N2       1.0000 0.76890  0.85140  0.46970  Biso   1.000  N
  N3       1.0000 0.73110  0.35140  0.03030  Biso   1.000  N
  N4       1.0000 0.26890  0.35140  0.46970  Biso   1.000  N
  N5       1.0000 0.76890  0.14860  0.96970  Biso   1.000  N
  N6       1.0000 0.23110  0.14860  0.53030  Biso   1.000  N
  N7       1.0000 0.26890  0.64860  0.96970  Biso   1.000  N
  N8       1.0000 0.73110  0.64860  0.53030  Biso   1.000  N
  C1       1.0000 0.26270  0.77830  0.07630  Biso   1.000  C
  C2       1.0000 0.73730  0.77830  0.42370  Biso   1.000  C
  C3       1.0000 0.76270  0.27830  0.07630  Biso   1.000  C
  C4       1.0000 0.23730  0.27830  0.42370  Biso   1.000  C
  C5       1.0000 0.73730  0.22170  0.92370  Biso   1.000  C
  C6       1.0000 0.26270  0.22170  0.57630  Biso   1.000  C
  C7       1.0000 0.23730  0.72170  0.92370  Biso   1.000  C
  C8       1.0000 0.76270  0.72170  0.57630  Biso   1.000  C
  H1       1.0000 0.27280  0.79550  0.13050  Biso   1.000  H
  H2       1.0000 0.72720  0.79550  0.36950  Biso   1.000  H
  H3       1.0000 0.77280  0.29550  0.13050  Biso   1.000  H
  H4       1.0000 0.22720  0.29550  0.36950  Biso   1.000  H
  H5       1.0000 0.72720  0.20450  0.86950  Biso   1.000  H
  H6       1.0000 0.27280  0.20450  0.63050  Biso   1.000  H
  H7       1.0000 0.22720  0.70450  0.86950  Biso   1.000  H
  H8       1.0000 0.77280  0.70450  0.63050  Biso   1.000  H
  C9       1.0000 0.21930  0.82280  0.95470  Biso   1.000  C
  C10      1.0000 0.78070  0.82280  0.54530  Biso   1.000  C
  C11      1.0000 0.71930  0.32280  0.95470  Biso   1.000  C
  C12      1.0000 0.28070  0.32280  0.54530  Biso   1.000  C
  C13      1.0000 0.78070  0.17720  0.04530  Biso   1.000  C
  C14      1.0000 0.21930  0.17720  0.45470  Biso   1.000  C
  C15      1.0000 0.28070  0.67720  0.04530  Biso   1.000  C
  C16      1.0000 0.71930  0.67720  0.45470  Biso   1.000  C
  H9       1.0000 0.19760  0.87320  0.92020  Biso   1.000  H
  H10      1.0000 0.80240  0.87320  0.57980  Biso   1.000  H
  H11      1.0000 0.69760  0.37320  0.92020  Biso   1.000  H
  H12      1.0000 0.30240  0.37320  0.57980  Biso   1.000  H
  H13      1.0000 0.80240  0.12680  0.07980  Biso   1.000  H
  H14      1.0000 0.19760  0.12680  0.42020  Biso   1.000  H
  H15      1.0000 0.30240  0.62680  0.07980  Biso   1.000  H
  H16      1.0000 0.69760  0.62680  0.42020  Biso   1.000  H
  N9       1.0000 0.23300  0.14700  0.03060  Biso   1.000  N
  N10      1.0000 0.76700  0.14700  0.46940  Biso   1.000  N
  N11      1.0000 0.73300  0.64700  0.03060  Biso   1.000  N
  N12      1.0000 0.26700  0.64700  0.46940  Biso   1.000  N
  N13      1.0000 0.76700  0.85300  0.96940  Biso   1.000  N
  N14      1.0000 0.23300  0.85300  0.53060  Biso   1.000  N
  N15      1.0000 0.26700  0.35300  0.96940  Biso   1.000  N
  N16      1.0000 0.73300  0.35300  0.53060  Biso   1.000  N
  C17      1.0000 0.24130  0.24910  0.07230  Biso   1.000  C
  C18      1.0000 0.75870  0.24910  0.42770  Biso   1.000  C
  C19      1.0000 0.74130  0.74910  0.07230  Biso   1.000  C
  C20      1.0000 0.25870  0.74910  0.42770  Biso   1.000  C
  C21      1.0000 0.75870  0.75090  0.92770  Biso   1.000  C
  C22      1.0000 0.24130  0.75090  0.57230  Biso   1.000  C
  C23      1.0000 0.25870  0.25090  0.92770  Biso   1.000  C
  C24      1.0000 0.74130  0.25090  0.57230  Biso   1.000  C
  H17      1.0000 0.23550  0.25140  0.12400  Biso   1.000  H
  H18      1.0000 0.76450  0.25140  0.37600  Biso   1.000  H
  H19      1.0000 0.73550  0.75140  0.12400  Biso   1.000  H
  H20      1.0000 0.26450  0.75140  0.37600  Biso   1.000  H
  H21      1.0000 0.76450  0.74860  0.87600  Biso   1.000  H
  H22      1.0000 0.23550  0.74860  0.62400  Biso   1.000  H
  H23      1.0000 0.26450  0.24860  0.87600  Biso   1.000  H
  H24      1.0000 0.73550  0.24860  0.62400  Biso   1.000  H
  C25      1.0000 0.24210  0.15070  0.95840  Biso   1.000  C
  C26      1.0000 0.75790  0.15070  0.54160  Biso   1.000  C
  C27      1.0000 0.74210  0.65070  0.95840  Biso   1.000  C
  C28      1.0000 0.25790  0.65070  0.54160  Biso   1.000  C
  C29      1.0000 0.75790  0.84930  0.04160  Biso   1.000  C
  C30      1.0000 0.24210  0.84930  0.45840  Biso   1.000  C
  C31      1.0000 0.25790  0.34930  0.04160  Biso   1.000  C
  C32      1.0000 0.74210  0.34930  0.45840  Biso   1.000  C
  H25      1.0000 0.23670  0.08080  0.92700  Biso   1.000  H
  H26      1.0000 0.76330  0.08080  0.57300  Biso   1.000  H
  H27      1.0000 0.73670  0.58080  0.92700  Biso   1.000  H
  H28      1.0000 0.26330  0.58080  0.57300  Biso   1.000  H
  H29      1.0000 0.76330  0.91920  0.07300  Biso   1.000  H
  H30      1.0000 0.23670  0.91920  0.42700  Biso   1.000  H
  H31      1.0000 0.26330  0.41920  0.07300  Biso   1.000  H
  H32      1.0000 0.73670  0.41920  0.42700  Biso   1.000  H
  P1       1.0000 0.12536  0.00391  0.06519  Biso   1.000  P
  P2       1.0000 0.87464  0.00391  0.43481  Biso   1.000  P
  P3       1.0000 0.62536  0.50391  0.06519  Biso   1.000  P
  P4       1.0000 0.37464  0.50391  0.43481  Biso   1.000  P
  P5       1.0000 0.87464  0.99609  0.93481  Biso   1.000  P
  P6       1.0000 0.12536  0.99609  0.56519  Biso   1.000  P
  P7       1.0000 0.37464  0.49609  0.93481  Biso   1.000  P
  P8       1.0000 0.62536  0.49609  0.56519  Biso   1.000  P
  C33      1.0000 0.09710  0.89260  0.11790  Biso   1.000  C
  C34      1.0000 0.90290  0.89260  0.38210  Biso   1.000  C
  C35      1.0000 0.59710  0.39260  0.11790  Biso   1.000  C
  C36      1.0000 0.40290  0.39260  0.38210  Biso   1.000  C
  C37      1.0000 0.90290  0.10740  0.88210  Biso   1.000  C
  C38      1.0000 0.09710  0.10740  0.61790  Biso   1.000  C
  C39      1.0000 0.40290  0.60740  0.88210  Biso   1.000  C
  C40      1.0000 0.59710  0.60740  0.61790  Biso   1.000  C
  C41      1.0000 0.12470  0.79460  0.14920  Biso   1.000  C
  C42      1.0000 0.87530  0.79460  0.35080  Biso   1.000  C
  C43      1.0000 0.62470  0.29460  0.14920  Biso   1.000  C
  C44      1.0000 0.37530  0.29460  0.35080  Biso   1.000  C
  C45      1.0000 0.87530  0.20540  0.85080  Biso   1.000  C
  C46      1.0000 0.12470  0.20540  0.64920  Biso   1.000  C
  C47      1.0000 0.37530  0.70540  0.85080  Biso   1.000  C
  C48      1.0000 0.62470  0.70540  0.64920  Biso   1.000  C
  H33      1.0000 0.15770  0.78980  0.14560  Biso   1.000  H
  H34      1.0000 0.84230  0.78980  0.35440  Biso   1.000  H
  H35      1.0000 0.65770  0.28980  0.14560  Biso   1.000  H
  H36      1.0000 0.34230  0.28980  0.35440  Biso   1.000  H
  H37      1.0000 0.84230  0.21020  0.85440  Biso   1.000  H
  H38      1.0000 0.15770  0.21020  0.64560  Biso   1.000  H
  H39      1.0000 0.34230  0.71020  0.85440  Biso   1.000  H
  H40      1.0000 0.65770  0.71020  0.64560  Biso   1.000  H
  C49      1.0000 0.10450  0.70400  0.18550  Biso   1.000  C
  C50      1.0000 0.89550  0.70400  0.31450  Biso   1.000  C
  C51      1.0000 0.60450  0.20400  0.18550  Biso   1.000  C
  C52      1.0000 0.39550  0.20400  0.31450  Biso   1.000  C
  C53      1.0000 0.89550  0.29600  0.81450  Biso   1.000  C
  C54      1.0000 0.10450  0.29600  0.68550  Biso   1.000  C
  C55      1.0000 0.39550  0.79600  0.81450  Biso   1.000  C
  C56      1.0000 0.60450  0.79600  0.68550  Biso   1.000  C
  H41      1.0000 0.12350  0.63700  0.20600  Biso   1.000  H
  H42      1.0000 0.87650  0.63700  0.29400  Biso   1.000  H
  H43      1.0000 0.62350  0.13700  0.20600  Biso   1.000  H
  H44      1.0000 0.37650  0.13700  0.29400  Biso   1.000  H
  H45      1.0000 0.87650  0.36300  0.79400  Biso   1.000  H
  H46      1.0000 0.12350  0.36300  0.70600  Biso   1.000  H
  H47      1.0000 0.37650  0.86300  0.79400  Biso   1.000  H
  H48      1.0000 0.62350  0.86300  0.70600  Biso   1.000  H
  C57      1.0000 0.05640  0.71100  0.19200  Biso   1.000  C
  C58      1.0000 0.94360  0.71100  0.30800  Biso   1.000  C
  C59      1.0000 0.55640  0.21100  0.19200  Biso   1.000  C
  C60      1.0000 0.44360  0.21100  0.30800  Biso   1.000  C
  C61      1.0000 0.94360  0.28900  0.80800  Biso   1.000  C
  C62      1.0000 0.05640  0.28900  0.69200  Biso   1.000  C
  C63      1.0000 0.44360  0.78900  0.80800  Biso   1.000  C
  C64      1.0000 0.55640  0.78900  0.69200  Biso   1.000  C
  H49      1.0000 0.04270  0.64910  0.21740  Biso   1.000  H
  H50      1.0000 0.95730  0.64910  0.28260  Biso   1.000  H
  H51      1.0000 0.54270  0.14910  0.21740  Biso   1.000  H
  H52      1.0000 0.45730  0.14910  0.28260  Biso   1.000  H
  H53      1.0000 0.95730  0.35090  0.78260  Biso   1.000  H
  H54      1.0000 0.04270  0.35090  0.71740  Biso   1.000  H
  H55      1.0000 0.45730  0.85090  0.78260  Biso   1.000  H
  H56      1.0000 0.54270  0.85090  0.71740  Biso   1.000  H
  C65      1.0000 0.02830  0.80880  0.16120  Biso   1.000  C
  C66      1.0000 0.97170  0.80880  0.33880  Biso   1.000  C
  C67      1.0000 0.52830  0.30880  0.16120  Biso   1.000  C
  C68      1.0000 0.47170  0.30880  0.33880  Biso   1.000  C
  C69      1.0000 0.97170  0.19120  0.83880  Biso   1.000  C
  C70      1.0000 0.02830  0.19120  0.66120  Biso   1.000  C
  C71      1.0000 0.47170  0.69120  0.83880  Biso   1.000  C
  C72      1.0000 0.52830  0.69120  0.66120  Biso   1.000  C
  H57      1.0000 0.99540  0.81380  0.16540  Biso   1.000  H
  H58      1.0000 0.00460  0.81380  0.33460  Biso   1.000  H
  H59      1.0000 0.49540  0.31380  0.16540  Biso   1.000  H
  H60      1.0000 0.50460  0.31380  0.33460  Biso   1.000  H
  H61      1.0000 0.00460  0.18620  0.83460  Biso   1.000  H
  H62      1.0000 0.99540  0.18620  0.66540  Biso   1.000  H
  H63      1.0000 0.50460  0.68620  0.83460  Biso   1.000  H
  H64      1.0000 0.49540  0.68620  0.66540  Biso   1.000  H
  C73      1.0000 0.04870  0.89810  0.12470  Biso   1.000  C
  C74      1.0000 0.95130  0.89810  0.37530  Biso   1.000  C
  C75      1.0000 0.54870  0.39810  0.12470  Biso   1.000  C
  C76      1.0000 0.45130  0.39810  0.37530  Biso   1.000  C
  C77      1.0000 0.95130  0.10190  0.87530  Biso   1.000  C
  C78      1.0000 0.04870  0.10190  0.62470  Biso   1.000  C
  C79      1.0000 0.45130  0.60190  0.87530  Biso   1.000  C
  C80      1.0000 0.54870  0.60190  0.62470  Biso   1.000  C
  H65      1.0000 0.02960  0.96470  0.10370  Biso   1.000  H
  H66      1.0000 0.97040  0.96470  0.39630  Biso   1.000  H
  H67      1.0000 0.52960  0.46470  0.10370  Biso   1.000  H
  H68      1.0000 0.47040  0.46470  0.39630  Biso   1.000  H
  H69      1.0000 0.97040  0.03530  0.89630  Biso   1.000  H
  H70      1.0000 0.02960  0.03530  0.60370  Biso   1.000  H
  H71      1.0000 0.47040  0.53530  0.89630  Biso   1.000  H
  H72      1.0000 0.52960  0.53530  0.60370  Biso   1.000  H
  C81      1.0000 0.09910  0.14730  0.08580  Biso   1.000  C
  C82      1.0000 0.90090  0.14730  0.41420  Biso   1.000  C
  C83      1.0000 0.59910  0.64730  0.08580  Biso   1.000  C
  C84      1.0000 0.40090  0.64730  0.41420  Biso   1.000  C
  C85      1.0000 0.90090  0.85270  0.91420  Biso   1.000  C
  C86      1.0000 0.09910  0.85270  0.58580  Biso   1.000  C
  C87      1.0000 0.40090  0.35270  0.91420  Biso   1.000  C
  C88      1.0000 0.59910  0.35270  0.58580  Biso   1.000  C
  C89      1.0000 0.05590  0.19270  0.03930  Biso   1.000  C
  C90      1.0000 0.94410  0.19270  0.46070  Biso   1.000  C
  C91      1.0000 0.55590  0.69270  0.03930  Biso   1.000  C
  C92      1.0000 0.44410  0.69270  0.46070  Biso   1.000  C
  C93      1.0000 0.94410  0.80730  0.96070  Biso   1.000  C
  C94      1.0000 0.05590  0.80730  0.53930  Biso   1.000  C
  C95      1.0000 0.44410  0.30730  0.96070  Biso   1.000  C
  C96      1.0000 0.55590  0.30730  0.53930  Biso   1.000  C
  H73      1.0000 0.03850  0.14770  0.99650  Biso   1.000  H
  H74      1.0000 0.96150  0.14770  0.50350  Biso   1.000  H
  H75      1.0000 0.53850  0.64770  0.99650  Biso   1.000  H
  H76      1.0000 0.46150  0.64770  0.50350  Biso   1.000  H
  H77      1.0000 0.96150  0.85230  0.00350  Biso   1.000  H
  H78      1.0000 0.03850  0.85230  0.49650  Biso   1.000  H
  H79      1.0000 0.46150  0.35230  0.00350  Biso   1.000  H
  H80      1.0000 0.53850  0.35230  0.49650  Biso   1.000  H
  C97      1.0000 0.03890  0.30390  0.05670  Biso   1.000  C
  C98      1.0000 0.96110  0.30390  0.44330  Biso   1.000  C
  C99      1.0000 0.53890  0.80390  0.05670  Biso   1.000  C
  C100     1.0000 0.46110  0.80390  0.44330  Biso   1.000  C
  C101     1.0000 0.96110  0.69610  0.94330  Biso   1.000  C
  C102     1.0000 0.03890  0.69610  0.55670  Biso   1.000  C
  C103     1.0000 0.46110  0.19610  0.94330  Biso   1.000  C
  C104     1.0000 0.53890  0.19610  0.55670  Biso   1.000  C
  H81      1.0000 0.00980  0.33460  0.02580  Biso   1.000  H
  H82      1.0000 0.99020  0.33460  0.47420  Biso   1.000  H
  H83      1.0000 0.50980  0.83460  0.02580  Biso   1.000  H
  H84      1.0000 0.49020  0.83460  0.47420  Biso   1.000  H
  H85      1.0000 0.99020  0.66540  0.97420  Biso   1.000  H
  H86      1.0000 0.00980  0.66540  0.52580  Biso   1.000  H
  H87      1.0000 0.49020  0.16540  0.97420  Biso   1.000  H
  H88      1.0000 0.50980  0.16540  0.52580  Biso   1.000  H
  C105     1.0000 0.06420  0.36900  0.11860  Biso   1.000  C
  C106     1.0000 0.93580  0.36900  0.38140  Biso   1.000  C
  C107     1.0000 0.56420  0.86900  0.11860  Biso   1.000  C
  C108     1.0000 0.43580  0.86900  0.38140  Biso   1.000  C
  C109     1.0000 0.93580  0.63100  0.88140  Biso   1.000  C
  C110     1.0000 0.06420  0.63100  0.61860  Biso   1.000  C
  C111     1.0000 0.43580  0.13100  0.88140  Biso   1.000  C
  C112     1.0000 0.56420  0.13100  0.61860  Biso   1.000  C
  H89      1.0000 0.05230  0.44470  0.12970  Biso   1.000  H
  H90      1.0000 0.94770  0.44470  0.37030  Biso   1.000  H
  H91      1.0000 0.55230  0.94470  0.12970  Biso   1.000  H
  H92      1.0000 0.44770  0.94470  0.37030  Biso   1.000  H
  H93      1.0000 0.94770  0.55530  0.87030  Biso   1.000  H
  H94      1.0000 0.05230  0.55530  0.62970  Biso   1.000  H
  H95      1.0000 0.44770  0.05530  0.87030  Biso   1.000  H
  H96      1.0000 0.55230  0.05530  0.62970  Biso   1.000  H
  C113     1.0000 0.10640  0.32700  0.16460  Biso   1.000  C
  C114     1.0000 0.89360  0.32700  0.33540  Biso   1.000  C
  C115     1.0000 0.60640  0.82700  0.16460  Biso   1.000  C
  C116     1.0000 0.39360  0.82700  0.33540  Biso   1.000  C
  C117     1.0000 0.89360  0.67300  0.83540  Biso   1.000  C
  C118     1.0000 0.10640  0.67300  0.66460  Biso   1.000  C
  C119     1.0000 0.39360  0.17300  0.83540  Biso   1.000  C
  C120     1.0000 0.60640  0.17300  0.66460  Biso   1.000  C
  H97      1.0000 0.12340  0.37290  0.20730  Biso   1.000  H
  H98      1.0000 0.87660  0.37290  0.29270  Biso   1.000  H
  H99      1.0000 0.62340  0.87290  0.20730  Biso   1.000  H
  H100     1.0000 0.37660  0.87290  0.29270  Biso   1.000  H
  H101     1.0000 0.87660  0.62710  0.79270  Biso   1.000  H
  H102     1.0000 0.12340  0.62710  0.70730  Biso   1.000  H
  H103     1.0000 0.37660  0.12710  0.79270  Biso   1.000  H
  H104     1.0000 0.62340  0.12710  0.70730  Biso   1.000  H
  C121     1.0000 0.12400  0.21540  0.14770  Biso   1.000  C
  C122     1.0000 0.87600  0.21540  0.35230  Biso   1.000  C
  C123     1.0000 0.62400  0.71540  0.14770  Biso   1.000  C
  C124     1.0000 0.37600  0.71540  0.35230  Biso   1.000  C
  C125     1.0000 0.87600  0.78460  0.85230  Biso   1.000  C
  C126     1.0000 0.12400  0.78460  0.64770  Biso   1.000  C
  C127     1.0000 0.37600  0.28460  0.85230  Biso   1.000  C
  C128     1.0000 0.62400  0.28460  0.64770  Biso   1.000  C
  H105     1.0000 0.15330  0.18600  0.17900  Biso   1.000  H
  H106     1.0000 0.84670  0.18600  0.32100  Biso   1.000  H
  H107     1.0000 0.65330  0.68600  0.17900  Biso   1.000  H
  H108     1.0000 0.34670  0.68600  0.32100  Biso   1.000  H
  H109     1.0000 0.84670  0.81400  0.82100  Biso   1.000  H
  H110     1.0000 0.15330  0.81400  0.67900  Biso   1.000  H
  H111     1.0000 0.34670  0.31400  0.82100  Biso   1.000  H
  H112     1.0000 0.65330  0.31400  0.67900  Biso   1.000  H
  C129     1.0000 0.09870  0.97420  0.96220  Biso   1.000  C
  C130     1.0000 0.90130  0.97420  0.53780  Biso   1.000  C
  C131     1.0000 0.59870  0.47420  0.96220  Biso   1.000  C
  C132     1.0000 0.40130  0.47420  0.53780  Biso   1.000  C
  C133     1.0000 0.90130  0.02580  0.03780  Biso   1.000  C
  C134     1.0000 0.09870  0.02580  0.46220  Biso   1.000  C
  C135     1.0000 0.40130  0.52580  0.03780  Biso   1.000  C
  C136     1.0000 0.59870  0.52580  0.46220  Biso   1.000  C
  C137     1.0000 0.11300  0.04700  0.90600  Biso   1.000  C
  C138     1.0000 0.88700  0.04700  0.59400  Biso   1.000  C
  C139     1.0000 0.61300  0.54700  0.90600  Biso   1.000  C
  C140     1.0000 0.38700  0.54700  0.59400  Biso   1.000  C
  C141     1.0000 0.88700  0.95300  0.09400  Biso   1.000  C
  C142     1.0000 0.11300  0.95300  0.40600  Biso   1.000  C
  C143     1.0000 0.38700  0.45300  0.09400  Biso   1.000  C
  C144     1.0000 0.61300  0.45300  0.40600  Biso   1.000  C
  H113     1.0000 0.13340  0.11340  0.92240  Biso   1.000  H
  H114     1.0000 0.86660  0.11340  0.57760  Biso   1.000  H
  H115     1.0000 0.63340  0.61340  0.92240  Biso   1.000  H
  H116     1.0000 0.36660  0.61340  0.57760  Biso   1.000  H
  H117     1.0000 0.86660  0.88660  0.07760  Biso   1.000  H
  H118     1.0000 0.13340  0.88660  0.42240  Biso   1.000  H
  H119     1.0000 0.36660  0.38660  0.07760  Biso   1.000  H
  H120     1.0000 0.63340  0.38660  0.42240  Biso   1.000  H
  C145     1.0000 0.09750  0.02300  0.82600  Biso   1.000  C
  C146     1.0000 0.90250  0.02300  0.67400  Biso   1.000  C
  C147     1.0000 0.59750  0.52300  0.82600  Biso   1.000  C
  C148     1.0000 0.40250  0.52300  0.67400  Biso   1.000  C
  C149     1.0000 0.90250  0.97700  0.17400  Biso   1.000  C
  C150     1.0000 0.09750  0.97700  0.32600  Biso   1.000  C
  C151     1.0000 0.40250  0.47700  0.17400  Biso   1.000  C
  C152     1.0000 0.59750  0.47700  0.32600  Biso   1.000  C
  H121     1.0000 0.10740  0.07290  0.78830  Biso   1.000  H
  H122     1.0000 0.89260  0.07290  0.71170  Biso   1.000  H
  H123     1.0000 0.60740  0.57290  0.78830  Biso   1.000  H
  H124     1.0000 0.39260  0.57290  0.71170  Biso   1.000  H
  H125     1.0000 0.89260  0.92710  0.21170  Biso   1.000  H
  H126     1.0000 0.10740  0.92710  0.28830  Biso   1.000  H
  H127     1.0000 0.39260  0.42710  0.21170  Biso   1.000  H
  H128     1.0000 0.60740  0.42710  0.28830  Biso   1.000  H
  C153     1.0000 0.06800  0.92700  0.80220  Biso   1.000  C
  C154     1.0000 0.93200  0.92700  0.69780  Biso   1.000  C
  C155     1.0000 0.56800  0.42700  0.80220  Biso   1.000  C
  C156     1.0000 0.43200  0.42700  0.69780  Biso   1.000  C
  C157     1.0000 0.93200  0.07300  0.19780  Biso   1.000  C
  C158     1.0000 0.06800  0.07300  0.30220  Biso   1.000  C
  C159     1.0000 0.43200  0.57300  0.19780  Biso   1.000  C
  C160     1.0000 0.56800  0.57300  0.30220  Biso   1.000  C
  H129     1.0000 0.05760  0.91070  0.74780  Biso   1.000  H
  H130     1.0000 0.94240  0.91070  0.75220  Biso   1.000  H
  H131     1.0000 0.55760  0.41070  0.74780  Biso   1.000  H
  H132     1.0000 0.44240  0.41070  0.75220  Biso   1.000  H
  H133     1.0000 0.94240  0.08930  0.25220  Biso   1.000  H
  H134     1.0000 0.05760  0.08930  0.24780  Biso   1.000  H
  H135     1.0000 0.44240  0.58930  0.25220  Biso   1.000  H
  H136     1.0000 0.55760  0.58930  0.24780  Biso   1.000  H
  C161     1.0000 0.05330  0.85460  0.85560  Biso   1.000  C
  C162     1.0000 0.94670  0.85460  0.64440  Biso   1.000  C
  C163     1.0000 0.55330  0.35460  0.85560  Biso   1.000  C
  C164     1.0000 0.44670  0.35460  0.64440  Biso   1.000  C
  C165     1.0000 0.94670  0.14540  0.14440  Biso   1.000  C
  C166     1.0000 0.05330  0.14540  0.35560  Biso   1.000  C
  C167     1.0000 0.44670  0.64540  0.14440  Biso   1.000  C
  C168     1.0000 0.55330  0.64540  0.35560  Biso   1.000  C
  H137     1.0000 0.03300  0.78820  0.83860  Biso   1.000  H
  H138     1.0000 0.96700  0.78820  0.66140  Biso   1.000  H
  H139     1.0000 0.53300  0.28820  0.83860  Biso   1.000  H
  H140     1.0000 0.46700  0.28820  0.66140  Biso   1.000  H
  H141     1.0000 0.96700  0.21180  0.16140  Biso   1.000  H
  H142     1.0000 0.03300  0.21180  0.33860  Biso   1.000  H
  H143     1.0000 0.46700  0.71180  0.16140  Biso   1.000  H
  H144     1.0000 0.53300  0.71180  0.33860  Biso   1.000  H
  C169     1.0000 0.06850  0.87900  0.93590  Biso   1.000  C
  C170     1.0000 0.93150  0.87900  0.56410  Biso   1.000  C
  C171     1.0000 0.56850  0.37900  0.93590  Biso   1.000  C
  C172     1.0000 0.43150  0.37900  0.56410  Biso   1.000  C
  C173     1.0000 0.93150  0.12100  0.06410  Biso   1.000  C
  C174     1.0000 0.06850  0.12100  0.43590  Biso   1.000  C
  C175     1.0000 0.43150  0.62100  0.06410  Biso   1.000  C
  C176     1.0000 0.56850  0.62100  0.43590  Biso   1.000  C
  H145     1.0000 0.05790  0.82930  0.97290  Biso   1.000  H
  H146     1.0000 0.94210  0.82930  0.52710  Biso   1.000  H
  H147     1.0000 0.55790  0.32930  0.97290  Biso   1.000  H
  H148     1.0000 0.44210  0.32930  0.52710  Biso   1.000  H
  H149     1.0000 0.94210  0.17070  0.02710  Biso   1.000  H
  H150     1.0000 0.05790  0.17070  0.47290  Biso   1.000  H
  H151     1.0000 0.44210  0.67070  0.02710  Biso   1.000  H
  H152     1.0000 0.55790  0.67070  0.47290  Biso   1.000  H
  Cl1      1.0000 0.25238  0.02330  0.26234  Biso   1.000  Cl
  Cl2      1.0000 0.74762  0.02330  0.23766  Biso   1.000  Cl
  Cl3      1.0000 0.75238  0.52330  0.26234  Biso   1.000  Cl
  Cl4      1.0000 0.24762  0.52330  0.23766  Biso   1.000  Cl
  Cl5      1.0000 0.74762  0.97670  0.73766  Biso   1.000  Cl
  Cl6      1.0000 0.25238  0.97670  0.76234  Biso   1.000  Cl
  Cl7      1.0000 0.24762  0.47670  0.73766  Biso   1.000  Cl
  Cl8      1.0000 0.75238  0.47670  0.76234  Biso   1.000  Cl
  O1       1.0000 0.25690  0.99890  0.18500  Biso   1.000  O
  O2       1.0000 0.74310  0.99890  0.31500  Biso   1.000  O
  O3       1.0000 0.75690  0.49890  0.18500  Biso   1.000  O
  O4       1.0000 0.24310  0.49890  0.31500  Biso   1.000  O
  O5       1.0000 0.74310  0.00110  0.81500  Biso   1.000  O
  O6       1.0000 0.25690  0.00110  0.68500  Biso   1.000  O
  O7       1.0000 0.24310  0.50110  0.81500  Biso   1.000  O
  O8       1.0000 0.75690  0.50110  0.68500  Biso   1.000  O
  O9       1.0000 0.25020  0.15770  0.26060  Biso   1.000  O
  O10      1.0000 0.74980  0.15770  0.23940  Biso   1.000  O
  O11      1.0000 0.75020  0.65770  0.26060  Biso   1.000  O
  O12      1.0000 0.24980  0.65770  0.23940  Biso   1.000  O
  O13      1.0000 0.74980  0.84230  0.73940  Biso   1.000  O
  O14      1.0000 0.25020  0.84230  0.76060  Biso   1.000  O
  O15      1.0000 0.24980  0.34230  0.73940  Biso   1.000  O
  O16      1.0000 0.75020  0.34230  0.76060  Biso   1.000  O
  O17      1.0000 0.29130  0.00080  0.31950  Biso   1.000  O
  O18      1.0000 0.70870  0.00080  0.18050  Biso   1.000  O
  O19      1.0000 0.79130  0.50080  0.31950  Biso   1.000  O
  O20      1.0000 0.20870  0.50080  0.18050  Biso   1.000  O
  O21      1.0000 0.70870  0.99920  0.68050  Biso   1.000  O
  O22      1.0000 0.29130  0.99920  0.81950  Biso   1.000  O
  O23      1.0000 0.20870  0.49920  0.68050  Biso   1.000  O
  O24      1.0000 0.79130  0.49920  0.81950  Biso   1.000  O
  O25      1.0000 0.20810  0.99710  0.27920  Biso   1.000  O
  O26      1.0000 0.79190  0.99710  0.22080  Biso   1.000  O
  O27      1.0000 0.70810  0.49710  0.27920  Biso   1.000  O
  O28      1.0000 0.29190  0.49710  0.22080  Biso   1.000  O
  O29      1.0000 0.79190  0.00290  0.72080  Biso   1.000  O
  O30      1.0000 0.20810  0.00290  0.77920  Biso   1.000  O
  O31      1.0000 0.29190  0.50290  0.72080  Biso   1.000  O
  O32      1.0000 0.70810  0.50290  0.77920  Biso   1.000  O
  C177     1.0000 0.38800  0.99500  0.58400  Biso   1.000  C
  C178     1.0000 0.61200  0.99500  0.91600  Biso   1.000  C
  C179     1.0000 0.88800  0.49500  0.58400  Biso   1.000  C
  C180     1.0000 0.11200  0.49500  0.91600  Biso   1.000  C
  C181     1.0000 0.61200  0.00500  0.41600  Biso   1.000  C
  C182     1.0000 0.38800  0.00500  0.08400  Biso   1.000  C
  C183     1.0000 0.11200  0.50500  0.41600  Biso   1.000  C
  C184     1.0000 0.88800  0.50500  0.08400  Biso   1.000  C
  H153     1.0000 0.38210  0.06550  0.61580  Biso   1.000  H
  H154     1.0000 0.61790  0.06550  0.88420  Biso   1.000  H
  H155     1.0000 0.88210  0.56550  0.61580  Biso   1.000  H
  H156     1.0000 0.11790  0.56550  0.88420  Biso   1.000  H
  H157     1.0000 0.61790  0.93450  0.38420  Biso   1.000  H
  H158     1.0000 0.38210  0.93450  0.11580  Biso   1.000  H
  H159     1.0000 0.11790  0.43450  0.38420  Biso   1.000  H
  H160     1.0000 0.88210  0.43450  0.11580  Biso   1.000  H
  Cl9      1.0000 0.44460  0.99680  0.61720  Biso   1.000  Cl
  Cl10     1.0000 0.55540  0.99680  0.88280  Biso   1.000  Cl
  Cl11     1.0000 0.94460  0.49680  0.61720  Biso   1.000  Cl
  Cl12     1.0000 0.05540  0.49680  0.88280  Biso   1.000  Cl
  Cl13     1.0000 0.55540  0.00320  0.38280  Biso   1.000  Cl
  Cl14     1.0000 0.44460  0.00320  0.11720  Biso   1.000  Cl
  Cl15     1.0000 0.05540  0.50320  0.38280  Biso   1.000  Cl
  Cl16     1.0000 0.94460  0.50320  0.11720  Biso   1.000  Cl
  Cl17     1.0000 0.36170  0.06530  0.49250  Biso   1.000  Cl
  Cl18     1.0000 0.63830  0.06530  0.00750  Biso   1.000  Cl
  Cl19     1.0000 0.86170  0.56530  0.49250  Biso   1.000  Cl
  Cl20     1.0000 0.13830  0.56530  0.00750  Biso   1.000  Cl
  Cl21     1.0000 0.63830  0.93470  0.50750  Biso   1.000  Cl
  Cl22     1.0000 0.36170  0.93470  0.99250  Biso   1.000  Cl
  Cl23     1.0000 0.13830  0.43470  0.50750  Biso   1.000  Cl
  Cl24     1.0000 0.86170  0.43470  0.99250  Biso   1.000  Cl
  Cl25     1.0000 0.35210  0.91820  0.61250  Biso   1.000  Cl
  Cl26     1.0000 0.64790  0.91820  0.88750  Biso   1.000  Cl
  Cl27     1.0000 0.85210  0.41820  0.61250  Biso   1.000  Cl
  Cl28     1.0000 0.14790  0.41820  0.88750  Biso   1.000  Cl
  Cl29     1.0000 0.64790  0.08180  0.38750  Biso   1.000  Cl
  Cl30     1.0000 0.35210  0.08180  0.11250  Biso   1.000  Cl
  Cl31     1.0000 0.14790  0.58180  0.38750  Biso   1.000  Cl
  Cl32     1.0000 0.85210  0.58180  0.11250  Biso   1.000  Cl
