data_image0
_cell_length_a       10.1515
_cell_length_b       11.1543
_cell_length_c       14.5731
_cell_angle_alpha    101.892
_cell_angle_beta     106.289
_cell_angle_gamma    104.671

_symmetry_space_group_name_H-M    "P 1"
_symmetry_int_tables_number       1

loop_
  _symmetry_equiv_pos_as_xyz
  'x, y, z'

loop_
  _atom_site_label
  _atom_site_occupancy
  _atom_site_fract_x
  _atom_site_fract_y
  _atom_site_fract_z
  _atom_site_thermal_displace_type
  _atom_site_B_iso_or_equiv
  _atom_site_type_symbol
  Cu1      1.0000 0.99009  0.28578  0.14170  Biso   1.000  Cu
  Cu2      1.0000 0.00991  0.71422  0.85830  Biso   1.000  Cu
  N1       1.0000 0.99280  0.41290  0.05615  Biso   1.000  N
  N2       1.0000 0.00720  0.58710  0.94385  Biso   1.000  N
  C1       1.0000 0.01970  0.38760  0.97130  Biso   1.000  C
  C2       1.0000 0.98030  0.61240  0.02870  Biso   1.000  C
  H1       1.0000 0.03420  0.30850  0.94840  Biso   1.000  H
  H2       1.0000 0.96580  0.69150  0.05160  Biso   1.000  H
  C3       1.0000 0.97300  0.52660  0.08410  Biso   1.000  C
  C4       1.0000 0.02700  0.47340  0.91590  Biso   1.000  C
  H3       1.0000 0.95350  0.54880  0.14350  Biso   1.000  H
  H4       1.0000 0.04650  0.45120  0.85650  Biso   1.000  H
  N3       1.0000 0.99680  0.11860  0.05218  Biso   1.000  N
  N4       1.0000 0.00320  0.88140  0.94782  Biso   1.000  N
  C5       1.0000 0.11940  0.09190  0.06300  Biso   1.000  C
  C6       1.0000 0.88060  0.90810  0.93700  Biso   1.000  C
  H5       1.0000 0.20750  0.15530  0.10730  Biso   1.000  H
  H6       1.0000 0.79250  0.84470  0.89270  Biso   1.000  H
  C7       1.0000 0.87740  0.02450  0.98780  Biso   1.000  C
  C8       1.0000 0.12260  0.97550  0.01220  Biso   1.000  C
  H7       1.0000 0.78740  0.03840  0.97680  Biso   1.000  H
  H8       1.0000 0.21260  0.96160  0.02320  Biso   1.000  H
  N5       1.0000 0.77400  0.22450  0.12761  Biso   1.000  N
  N6       1.0000 0.22600  0.77550  0.87239  Biso   1.000  N
  C9       1.0000 0.72690  0.14280  0.17450  Biso   1.000  C
  C10      1.0000 0.27310  0.85720  0.82550  Biso   1.000  C
  H9       1.0000 0.79410  0.12020  0.22080  Biso   1.000  H
  H10      1.0000 0.20590  0.87980  0.77920  Biso   1.000  H
  C11      1.0000 0.58060  0.09040  0.15640  Biso   1.000  C
  C12      1.0000 0.41940  0.90960  0.84360  Biso   1.000  C
  H11      1.0000 0.55200  0.03120  0.19040  Biso   1.000  H
  H12      1.0000 0.44800  0.96880  0.80960  Biso   1.000  H
  N7       1.0000 0.47970  0.11720  0.09570  Biso   1.000  N
  N8       1.0000 0.52030  0.88280  0.90430  Biso   1.000  N
  C13      1.0000 0.52630  0.19720  0.04970  Biso   1.000  C
  C14      1.0000 0.47370  0.80280  0.95030  Biso   1.000  C
  H13      1.0000 0.45780  0.21970  0.00420  Biso   1.000  H
  H14      1.0000 0.54220  0.78030  0.99580  Biso   1.000  H
  C15      1.0000 0.67100  0.25070  0.06400  Biso   1.000  C
  C16      1.0000 0.32900  0.74930  0.93600  Biso   1.000  C
  H15      1.0000 0.69780  0.30740  0.02780  Biso   1.000  H
  H16      1.0000 0.30220  0.69260  0.97220  Biso   1.000  H
  P1       1.0000 0.17097  0.36148  0.28634  Biso   1.000  P
  P2       1.0000 0.82903  0.63852  0.71366  Biso   1.000  P
  C17      1.0000 0.17950  0.51540  0.36420  Biso   1.000  C
  C18      1.0000 0.82050  0.48460  0.63580  Biso   1.000  C
  C19      1.0000 0.34830  0.39570  0.27270  Biso   1.000  C
  C20      1.0000 0.65170  0.60430  0.72730  Biso   1.000  C
  C21      1.0000 0.17500  0.26280  0.37130  Biso   1.000  C
  C22      1.0000 0.82500  0.73720  0.62870  Biso   1.000  C
  C23      1.0000 0.05050  0.52720  0.37200  Biso   1.000  C
  C24      1.0000 0.94950  0.47280  0.62800  Biso   1.000  C
  H17      1.0000 0.96300  0.45790  0.33640  Biso   1.000  H
  H18      1.0000 0.03700  0.54210  0.66360  Biso   1.000  H
  C25      1.0000 0.36950  0.45730  0.20180  Biso   1.000  C
  C26      1.0000 0.63050  0.54270  0.79820  Biso   1.000  C
  H19      1.0000 0.29170  0.47540  0.16120  Biso   1.000  H
  H20      1.0000 0.70830  0.52460  0.83880  Biso   1.000  H
  C27      1.0000 0.25400  0.31550  0.47340  Biso   1.000  C
  C28      1.0000 0.74600  0.68450  0.52660  Biso   1.000  C
  H21      1.0000 0.30970  0.40420  0.49960  Biso   1.000  H
  H22      1.0000 0.69030  0.59580  0.50040  Biso   1.000  H
  C29      1.0000 0.04970  0.64010  0.43160  Biso   1.000  C
  C30      1.0000 0.95030  0.35990  0.56840  Biso   1.000  C
  H23      1.0000 0.96150  0.64690  0.43670  Biso   1.000  H
  H24      1.0000 0.03850  0.35310  0.56330  Biso   1.000  H
  C31      1.0000 0.50210  0.49210  0.19000  Biso   1.000  C
  C32      1.0000 0.49790  0.50790  0.81000  Biso   1.000  C
  H25      1.0000 0.51490  0.53550  0.14260  Biso   1.000  H
  H26      1.0000 0.48510  0.46450  0.85740  Biso   1.000  H
  C33      1.0000 0.25130  0.23910  0.53660  Biso   1.000  C
  C34      1.0000 0.74870  0.76090  0.46340  Biso   1.000  C
  H27      1.0000 0.30470  0.27570  0.60560  Biso   1.000  H
  H28      1.0000 0.69530  0.72430  0.39440  Biso   1.000  H
  C35      1.0000 0.17500  0.74180  0.48320  Biso   1.000  C
  C36      1.0000 0.82500  0.25820  0.51680  Biso   1.000  C
  H29      1.0000 0.17330  0.81810  0.52410  Biso   1.000  H
  H30      1.0000 0.82670  0.18190  0.47590  Biso   1.000  H
  C37      1.0000 0.61600  0.46360  0.24750  Biso   1.000  C
  C38      1.0000 0.38400  0.53640  0.75250  Biso   1.000  C
  H31      1.0000 0.70710  0.48820  0.23990  Biso   1.000  H
  H32      1.0000 0.29290  0.51180  0.76010  Biso   1.000  H
  C39      1.0000 0.17070  0.10930  0.49860  Biso   1.000  C
  C40      1.0000 0.82930  0.89070  0.50140  Biso   1.000  C
  H33      1.0000 0.16900  0.05710  0.54170  Biso   1.000  H
  H34      1.0000 0.83100  0.94290  0.45830  Biso   1.000  H
  C41      1.0000 0.30330  0.73250  0.47540  Biso   1.000  C
  C42      1.0000 0.69670  0.26750  0.52460  Biso   1.000  C
  H35      1.0000 0.38980  0.80310  0.51040  Biso   1.000  H
  H36      1.0000 0.61020  0.19690  0.48960  Biso   1.000  H
  C43      1.0000 0.59650  0.39970  0.31560  Biso   1.000  C
  C44      1.0000 0.40350  0.60030  0.68440  Biso   1.000  C
  H37      1.0000 0.67390  0.37890  0.35400  Biso   1.000  H
  H38      1.0000 0.32610  0.62110  0.64600  Biso   1.000  H
  C45      1.0000 0.09220  0.05550  0.39770  Biso   1.000  C
  C46      1.0000 0.90780  0.94450  0.60230  Biso   1.000  C
  H39      1.0000 0.03740  0.96660  0.37190  Biso   1.000  H
  H40      1.0000 0.96260  0.03340  0.62810  Biso   1.000  H
  C47      1.0000 0.30660  0.61980  0.41620  Biso   1.000  C
  C48      1.0000 0.69340  0.38020  0.58380  Biso   1.000  C
  H41      1.0000 0.39530  0.61400  0.41130  Biso   1.000  H
  H42      1.0000 0.60470  0.38600  0.58870  Biso   1.000  H
  C49      1.0000 0.46250  0.36510  0.32860  Biso   1.000  C
  C50      1.0000 0.53750  0.63490  0.67140  Biso   1.000  C
  H43      1.0000 0.44990  0.32080  0.37560  Biso   1.000  H
  H44      1.0000 0.55010  0.67920  0.62440  Biso   1.000  H
  C51      1.0000 0.09400  0.13180  0.33410  Biso   1.000  C
  C52      1.0000 0.90600  0.86820  0.66590  Biso   1.000  C
  H45      1.0000 0.04000  0.09470  0.26520  Biso   1.000  H
  H46      1.0000 0.96000  0.90530  0.73480  Biso   1.000  H
  B1       1.0000 0.19960  0.21410  0.82630  Biso   1.000  B
  B2       1.0000 0.80040  0.78590  0.17370  Biso   1.000  B
  F1       1.0000 0.25390  0.14030  0.77260  Biso   1.000  F
  F2       1.0000 0.74610  0.85970  0.22740  Biso   1.000  F
  F3       1.0000 0.12340  0.27090  0.76670  Biso   1.000  F
  F4       1.0000 0.87660  0.72910  0.23330  Biso   1.000  F
  F5       1.0000 0.10590  0.13720  0.85830  Biso   1.000  F
  F6       1.0000 0.89410  0.86280  0.14170  Biso   1.000  F
  F7       1.0000 0.30280  0.31040  0.90600  Biso   1.000  F
  F8       1.0000 0.69720  0.68960  0.09400  Biso   1.000  F
  O1       1.0000 0.69460  0.17650  0.82490  Biso   1.000  O
  O2       1.0000 0.30540  0.82350  0.17510  Biso   1.000  O
  C53      1.0000 0.57520  0.19360  0.75850  Biso   1.000  C
  C54      1.0000 0.42480  0.80640  0.24150  Biso   1.000  C
  H47      1.0000 0.60690  0.27320  0.74050  Biso   1.000  H
  H48      1.0000 0.39310  0.72680  0.25950  Biso   1.000  H
  H49      1.0000 0.50280  0.20070  0.79000  Biso   1.000  H
  H50      1.0000 0.49720  0.79930  0.21000  Biso   1.000  H
  C55      1.0000 0.51100  0.07840  0.66740  Biso   1.000  C
  C56      1.0000 0.48900  0.92160  0.33260  Biso   1.000  C
  H51      1.0000 0.42630  0.01520  0.67000  Biso   1.000  H
  H52      1.0000 0.57370  0.98480  0.33000  Biso   1.000  H
  H53      1.0000 0.48160  0.10430  0.60650  Biso   1.000  H
  H54      1.0000 0.51840  0.89570  0.39350  Biso   1.000  H
  C57      1.0000 0.62890  0.02490  0.67050  Biso   1.000  C
  C58      1.0000 0.37110  0.97510  0.32950  Biso   1.000  C
  H55      1.0000 0.60320  0.93830  0.67930  Biso   1.000  H
  H56      1.0000 0.39680  0.06170  0.32070  Biso   1.000  H
  H57      1.0000 0.65110  0.01910  0.60880  Biso   1.000  H
  H58      1.0000 0.34890  0.98090  0.39120  Biso   1.000  H
  C59      1.0000 0.75130  0.11600  0.75610  Biso   1.000  C
  C60      1.0000 0.24870  0.88400  0.24390  Biso   1.000  C
  H59      1.0000 0.81300  0.07040  0.78790  Biso   1.000  H
  H60      1.0000 0.18700  0.92960  0.21210  Biso   1.000  H
  H61      1.0000 0.81010  0.18150  0.73490  Biso   1.000  H
  H62      1.0000 0.18990  0.81850  0.26510  Biso   1.000  H
