data_image0
_cell_length_a       9.9525
_cell_length_b       11.0093
_cell_length_c       14.5265
_cell_angle_alpha    99.609
_cell_angle_beta     107.635
_cell_angle_gamma    103.227

_symmetry_space_group_name_H-M    "P 1"
_symmetry_int_tables_number       1

loop_
  _symmetry_equiv_pos_as_xyz
  'x, y, z'

loop_
  _atom_site_label
  _atom_site_occupancy
  _atom_site_fract_x
  _atom_site_fract_y
  _atom_site_fract_z
  _atom_site_thermal_displace_type
  _atom_site_B_iso_or_equiv
  _atom_site_type_symbol
  Cu1      1.0000 0.99032  0.28101  0.14553  Biso   1.000  Cu
  Cu2      1.0000 0.00968  0.71899  0.85447  Biso   1.000  Cu
  P1       1.0000 0.17498  0.35594  0.28993  Biso   1.000  P
  P2       1.0000 0.82502  0.64406  0.71007  Biso   1.000  P
  N1       1.0000 0.99040  0.41060  0.05701  Biso   1.000  N
  N2       1.0000 0.00960  0.58940  0.94299  Biso   1.000  N
  C1       1.0000 0.95590  0.51910  0.07700  Biso   1.000  C
  C2       1.0000 0.04410  0.48090  0.92300  Biso   1.000  C
  H1       1.0000 0.92370  0.53590  0.13100  Biso   1.000  H
  H2       1.0000 0.07630  0.46410  0.86900  Biso   1.000  H
  C3       1.0000 0.03400  0.39220  0.97910  Biso   1.000  C
  C4       1.0000 0.96600  0.60780  0.02090  Biso   1.000  C
  H3       1.0000 0.05870  0.31630  0.96170  Biso   1.000  H
  H4       1.0000 0.94130  0.68370  0.03830  Biso   1.000  H
  N3       1.0000 0.99760  0.11580  0.05509  Biso   1.000  N
  N4       1.0000 0.00240  0.88420  0.94491  Biso   1.000  N
  C5       1.0000 0.12090  0.08230  0.06850  Biso   1.000  C
  C6       1.0000 0.87910  0.91770  0.93150  Biso   1.000  C
  H5       1.0000 0.20960  0.13870  0.11660  Biso   1.000  H
  H6       1.0000 0.79040  0.86130  0.88340  Biso   1.000  H
  C7       1.0000 0.87640  0.03160  0.98540  Biso   1.000  C
  C8       1.0000 0.12360  0.96840  0.01460  Biso   1.000  C
  H7       1.0000 0.78620  0.05060  0.97270  Biso   1.000  H
  H8       1.0000 0.21380  0.94940  0.02730  Biso   1.000  H
  N5       1.0000 0.77320  0.21730  0.13418  Biso   1.000  N
  N6       1.0000 0.22680  0.78270  0.86582  Biso   1.000  N
  C9       1.0000 0.73440  0.12780  0.17970  Biso   1.000  C
  C10      1.0000 0.26560  0.87220  0.82030  Biso   1.000  C
  H9       1.0000 0.80860  0.10320  0.22320  Biso   1.000  H
  H10      1.0000 0.19140  0.89680  0.77680  Biso   1.000  H
  C11      1.0000 0.58960  0.06980  0.16570  Biso   1.000  C
  C12      1.0000 0.41040  0.93020  0.83430  Biso   1.000  C
  H11      1.0000 0.56830  0.00610  0.19930  Biso   1.000  H
  H12      1.0000 0.43170  0.99390  0.80070  Biso   1.000  H
  N7       1.0000 0.47920  0.10000  0.10690  Biso   1.000  N
  N8       1.0000 0.52080  0.90000  0.89310  Biso   1.000  N
  C13      1.0000 0.51750  0.18880  0.06160  Biso   1.000  C
  C14      1.0000 0.48250  0.81120  0.93840  Biso   1.000  C
  H13      1.0000 0.44290  0.21350  0.01860  Biso   1.000  H
  H14      1.0000 0.55710  0.78650  0.98140  Biso   1.000  H
  C15      1.0000 0.66190  0.24690  0.07450  Biso   1.000  C
  C16      1.0000 0.33810  0.75310  0.92550  Biso   1.000  C
  H15      1.0000 0.68250  0.30960  0.03990  Biso   1.000  H
  H16      1.0000 0.31750  0.69040  0.96010  Biso   1.000  H
  C17      1.0000 0.17570  0.50830  0.36180  Biso   1.000  C
  C18      1.0000 0.82430  0.49170  0.63820  Biso   1.000  C
  C19      1.0000 0.04550  0.51400  0.37540  Biso   1.000  C
  C20      1.0000 0.95450  0.48600  0.62460  Biso   1.000  C
  H17      1.0000 0.96130  0.44160  0.34610  Biso   1.000  H
  H18      1.0000 0.03870  0.55840  0.65390  Biso   1.000  H
  C21      1.0000 0.03780  0.62420  0.43130  Biso   1.000  C
  C22      1.0000 0.96220  0.37580  0.56870  Biso   1.000  C
  H19      1.0000 0.94860  0.62650  0.44020  Biso   1.000  H
  H20      1.0000 0.05140  0.37350  0.55980  Biso   1.000  H
  C23      1.0000 0.15800  0.72960  0.47380  Biso   1.000  C
  C24      1.0000 0.84200  0.27040  0.52620  Biso   1.000  C
  H21      1.0000 0.15220  0.80450  0.51230  Biso   1.000  H
  H22      1.0000 0.84780  0.19550  0.48770  Biso   1.000  H
  C25      1.0000 0.28740  0.72690  0.46060  Biso   1.000  C
  C26      1.0000 0.71260  0.27310  0.53940  Biso   1.000  C
  H23      1.0000 0.37020  0.80060  0.48960  Biso   1.000  H
  H24      1.0000 0.62980  0.19940  0.51040  Biso   1.000  H
  C27      1.0000 0.29820  0.61610  0.40470  Biso   1.000  C
  C28      1.0000 0.70180  0.38390  0.59530  Biso   1.000  C
  H25      1.0000 0.38780  0.61460  0.39620  Biso   1.000  H
  H26      1.0000 0.61220  0.38540  0.60380  Biso   1.000  H
  C29      1.0000 0.35430  0.39290  0.27590  Biso   1.000  C
  C30      1.0000 0.64570  0.60710  0.72410  Biso   1.000  C
  C31      1.0000 0.37310  0.46360  0.20810  Biso   1.000  C
  C32      1.0000 0.62690  0.53640  0.79190  Biso   1.000  C
  H27      1.0000 0.29300  0.48670  0.16970  Biso   1.000  H
  H28      1.0000 0.70700  0.51330  0.83030  Biso   1.000  H
  C33      1.0000 0.50730  0.50070  0.19600  Biso   1.000  C
  C34      1.0000 0.49270  0.49930  0.80400  Biso   1.000  C
  H29      1.0000 0.51890  0.55020  0.15050  Biso   1.000  H
  H30      1.0000 0.48110  0.44980  0.84950  Biso   1.000  H
  C35      1.0000 0.62380  0.46530  0.25030  Biso   1.000  C
  C36      1.0000 0.37620  0.53470  0.74970  Biso   1.000  C
  H31      1.0000 0.71580  0.49120  0.24280  Biso   1.000  H
  H32      1.0000 0.28420  0.50880  0.75720  Biso   1.000  H
  C37      1.0000 0.60620  0.39230  0.31550  Biso   1.000  C
  C38      1.0000 0.39380  0.60770  0.68450  Biso   1.000  C
  H33      1.0000 0.68590  0.36660  0.35150  Biso   1.000  H
  H34      1.0000 0.31410  0.63340  0.64850  Biso   1.000  H
  C39      1.0000 0.47200  0.35560  0.32920  Biso   1.000  C
  C40      1.0000 0.52800  0.64440  0.67080  Biso   1.000  C
  H35      1.0000 0.46100  0.30560  0.37440  Biso   1.000  H
  H36      1.0000 0.53900  0.69440  0.62560  Biso   1.000  H
  C41      1.0000 0.18790  0.25830  0.37957  Biso   1.000  C
  C42      1.0000 0.81210  0.74170  0.62043  Biso   1.000  C
  C43      1.0000 0.26990  0.31040  0.48080  Biso   1.000  C
  C44      1.0000 0.73010  0.68960  0.51920  Biso   1.000  C
  H37      1.0000 0.32280  0.39870  0.50420  Biso   1.000  H
  H38      1.0000 0.67720  0.60130  0.49580  Biso   1.000  H
  C45      1.0000 0.27450  0.23440  0.54700  Biso   1.000  C
  C46      1.0000 0.72550  0.76560  0.45300  Biso   1.000  C
  H39      1.0000 0.33100  0.27050  0.61510  Biso   1.000  H
  H40      1.0000 0.66900  0.72950  0.38490  Biso   1.000  H
  C47      1.0000 0.19620  0.10540  0.51340  Biso   1.000  C
  C48      1.0000 0.80380  0.89460  0.48660  Biso   1.000  C
  H41      1.0000 0.19820  0.05360  0.55880  Biso   1.000  H
  H42      1.0000 0.80180  0.94640  0.44120  Biso   1.000  H
  C49      1.0000 0.11520  0.05230  0.41350  Biso   1.000  C
  C50      1.0000 0.88480  0.94770  0.58650  Biso   1.000  C
  H43      1.0000 0.06220  0.96410  0.39060  Biso   1.000  H
  H44      1.0000 0.93780  0.03590  0.60940  Biso   1.000  H
  C51      1.0000 0.11140  0.12840  0.34680  Biso   1.000  C
  C52      1.0000 0.88860  0.87160  0.65320  Biso   1.000  C
  H45      1.0000 0.05640  0.09150  0.27850  Biso   1.000  H
  H46      1.0000 0.94360  0.90850  0.72150  Biso   1.000  H
  Cl1      1.0000 0.18393  0.21186  0.81943  Biso   1.000  Cl
  Cl2      1.0000 0.81607  0.78814  0.18057  Biso   1.000  Cl
  O1       1.0000 0.09440  0.12190  0.85240  Biso   1.000  O
  O2       1.0000 0.90560  0.87810  0.14760  Biso   1.000  O
  O3       1.0000 0.25760  0.14840  0.76680  Biso   1.000  O
  O4       1.0000 0.74240  0.85160  0.23320  Biso   1.000  O
  O5       1.0000 0.09230  0.26790  0.75500  Biso   1.000  O
  O6       1.0000 0.90770  0.73210  0.24500  Biso   1.000  O
  O7       1.0000 0.28660  0.31160  0.90370  Biso   1.000  O
  O8       1.0000 0.71340  0.68840  0.09630  Biso   1.000  O
  C53      1.0000 0.72790  0.12380  0.73960  Biso   1.000  C
  C54      1.0000 0.27210  0.87620  0.26040  Biso   1.000  C
  H47      1.0000 0.78820  0.17670  0.71030  Biso   1.000  H
  H48      1.0000 0.21180  0.82330  0.28970  Biso   1.000  H
  H49      1.0000 0.78780  0.07650  0.77700  Biso   1.000  H
  H50      1.0000 0.21220  0.92350  0.22300  Biso   1.000  H
  Cl3      1.0000 0.67847  0.22328  0.82092  Biso   1.000  Cl
  Cl4      1.0000 0.32153  0.77672  0.17908  Biso   1.000  Cl
  Cl5      1.0000 0.57496  0.01485  0.64515  Biso   1.000  Cl
  Cl6      1.0000 0.42504  0.98515  0.35485  Biso   1.000  Cl
