data_image0
_cell_length_a       12.882
_cell_length_b       15.9637
_cell_length_c       16.7495
_cell_angle_alpha    67.131
_cell_angle_beta     89.524
_cell_angle_gamma    72.358

_symmetry_space_group_name_H-M    "P 1"
_symmetry_int_tables_number       1

loop_
  _symmetry_equiv_pos_as_xyz
  'x, y, z'

loop_
  _atom_site_label
  _atom_site_occupancy
  _atom_site_fract_x
  _atom_site_fract_y
  _atom_site_fract_z
  _atom_site_thermal_displace_type
  _atom_site_B_iso_or_equiv
  _atom_site_type_symbol
  Cu1      1.0000 0.19240  0.10563  0.21266  Biso   1.000  Cu
  Cu2      1.0000 0.80760  0.89437  0.78734  Biso   1.000  Cu
  C1       1.0000 0.31760  0.98700  0.11800  Biso   1.000  C
  C2       1.0000 0.68240  0.01300  0.88200  Biso   1.000  C
  H1       1.0000 0.27750  0.94620  0.14720  Biso   1.000  H
  H2       1.0000 0.72250  0.05380  0.85280  Biso   1.000  H
  C3       1.0000 0.39250  0.95820  0.06830  Biso   1.000  C
  C4       1.0000 0.60750  0.04180  0.93170  Biso   1.000  C
  H3       1.0000 0.40100  0.90050  0.06220  Biso   1.000  H
  H4       1.0000 0.59900  0.09950  0.93780  Biso   1.000  H
  C5       1.0000 0.45710  0.01550  0.02630  Biso   1.000  C
  C6       1.0000 0.54290  0.98450  0.97370  Biso   1.000  C
  C7       1.0000 0.43720  0.09950  0.03710  Biso   1.000  C
  C8       1.0000 0.56280  0.90050  0.96290  Biso   1.000  C
  H5       1.0000 0.47760  0.14090  0.01020  Biso   1.000  H
  H6       1.0000 0.52240  0.85910  0.98980  Biso   1.000  H
  C9       1.0000 0.35800  0.12320  0.08720  Biso   1.000  C
  C10      1.0000 0.64200  0.87680  0.91280  Biso   1.000  C
  H7       1.0000 0.34580  0.18150  0.09310  Biso   1.000  H
  H8       1.0000 0.65420  0.81850  0.90690  Biso   1.000  H
  C11      1.0000 0.09860  0.28330  0.05210  Biso   1.000  C
  C12      1.0000 0.90140  0.71670  0.94790  Biso   1.000  C
  H9       1.0000 0.11300  0.23710  0.02820  Biso   1.000  H
  H10      1.0000 0.88700  0.76290  0.97180  Biso   1.000  H
  C13      1.0000 0.04910  0.37710  0.99820  Biso   1.000  C
  C14      1.0000 0.95090  0.62290  0.00180  Biso   1.000  C
  H11      1.0000 0.02990  0.39370  0.93870  Biso   1.000  H
  H12      1.0000 0.97010  0.60630  0.06130  Biso   1.000  H
  C15      1.0000 0.02630  0.44870  0.02900  Biso   1.000  C
  C16      1.0000 0.97370  0.55130  0.97100  Biso   1.000  C
  C17      1.0000 0.05630  0.41750  0.11730  Biso   1.000  C
  C18      1.0000 0.94370  0.58250  0.88270  Biso   1.000  C
  H13      1.0000 0.04300  0.46240  0.14260  Biso   1.000  H
  H14      1.0000 0.95700  0.53760  0.85740  Biso   1.000  H
  C19      1.0000 0.10540  0.32120  0.16880  Biso   1.000  C
  C20      1.0000 0.89460  0.67880  0.83120  Biso   1.000  C
  H15      1.0000 0.12400  0.30230  0.22880  Biso   1.000  H
  H16      1.0000 0.87600  0.69770  0.77120  Biso   1.000  H
  C21      1.0000 0.25590  0.12830  0.40460  Biso   1.000  C
  C22      1.0000 0.74410  0.87170  0.59540  Biso   1.000  C
  C23      1.0000 0.14420  0.15150  0.41100  Biso   1.000  C
  C24      1.0000 0.85580  0.84850  0.58900  Biso   1.000  C
  H17      1.0000 0.09830  0.13920  0.37650  Biso   1.000  H
  H18      1.0000 0.90170  0.86080  0.62350  Biso   1.000  H
  C25      1.0000 0.10050  0.19230  0.46750  Biso   1.000  C
  C26      1.0000 0.89950  0.80770  0.53250  Biso   1.000  C
  H19      1.0000 0.02520  0.20560  0.47300  Biso   1.000  H
  H20      1.0000 0.97480  0.79440  0.52700  Biso   1.000  H
  C27      1.0000 0.16540  0.21390  0.51600  Biso   1.000  C
  C28      1.0000 0.83460  0.78610  0.48400  Biso   1.000  C
  H21      1.0000 0.13470  0.24290  0.55370  Biso   1.000  H
  H22      1.0000 0.86530  0.75710  0.44630  Biso   1.000  H
  C29      1.0000 0.27590  0.19250  0.50890  Biso   1.000  C
  C30      1.0000 0.72410  0.80750  0.49110  Biso   1.000  C
  H23      1.0000 0.32080  0.20770  0.54140  Biso   1.000  H
  H24      1.0000 0.67920  0.79230  0.45860  Biso   1.000  H
  C31      1.0000 0.32130  0.14880  0.45420  Biso   1.000  C
  C32      1.0000 0.67870  0.85120  0.54580  Biso   1.000  C
  H25      1.0000 0.39720  0.13300  0.45080  Biso   1.000  H
  H26      1.0000 0.60280  0.86700  0.54920  Biso   1.000  H
  C33      1.0000 0.42760  0.11520  0.29590  Biso   1.000  C
  C34      1.0000 0.57240  0.88480  0.70410  Biso   1.000  C
  C35      1.0000 0.53530  0.05410  0.31550  Biso   1.000  C
  C36      1.0000 0.46470  0.94590  0.68450  Biso   1.000  C
  H27      1.0000 0.55090  0.98780  0.34810  Biso   1.000  H
  H28      1.0000 0.44910  0.01220  0.65190  Biso   1.000  H
  C37      1.0000 0.62150  0.09160  0.28660  Biso   1.000  C
  C38      1.0000 0.37850  0.90840  0.71340  Biso   1.000  C
  H29      1.0000 0.69450  0.05010  0.29920  Biso   1.000  H
  H30      1.0000 0.30550  0.94990  0.70080  Biso   1.000  H
  C39      1.0000 0.59870  0.18780  0.24030  Biso   1.000  C
  C40      1.0000 0.40130  0.81220  0.75970  Biso   1.000  C
  H31      1.0000 0.65620  0.21220  0.22020  Biso   1.000  H
  H32      1.0000 0.34380  0.78780  0.77980  Biso   1.000  H
  C41      1.0000 0.49310  0.24950  0.22250  Biso   1.000  C
  C42      1.0000 0.50690  0.75050  0.77750  Biso   1.000  C
  H33      1.0000 0.47820  0.31600  0.19160  Biso   1.000  H
  H34      1.0000 0.52180  0.68400  0.80840  Biso   1.000  H
  C43      1.0000 0.40850  0.21270  0.25060  Biso   1.000  C
  C44      1.0000 0.59150  0.78730  0.74940  Biso   1.000  C
  H35      1.0000 0.33610  0.25520  0.23850  Biso   1.000  H
  H36      1.0000 0.66390  0.74480  0.76150  Biso   1.000  H
  C45      1.0000 0.37460  0.94540  0.39690  Biso   1.000  C
  C46      1.0000 0.62540  0.05460  0.60310  Biso   1.000  C
  C47      1.0000 0.37650  0.90680  0.48600  Biso   1.000  C
  C48      1.0000 0.62350  0.09320  0.51400  Biso   1.000  C
  H37      1.0000 0.34580  0.94750  0.51430  Biso   1.000  H
  H38      1.0000 0.65420  0.05250  0.48570  Biso   1.000  H
  C49      1.0000 0.42250  0.81030  0.53400  Biso   1.000  C
  C50      1.0000 0.57750  0.18970  0.46600  Biso   1.000  C
  H39      1.0000 0.42460  0.78510  0.59510  Biso   1.000  H
  H40      1.0000 0.57540  0.21490  0.40490  Biso   1.000  H
  C51      1.0000 0.46580  0.74960  0.49300  Biso   1.000  C
  C52      1.0000 0.53420  0.25040  0.50700  Biso   1.000  C
  H41      1.0000 0.49680  0.68300  0.52590  Biso   1.000  H
  H42      1.0000 0.50320  0.31700  0.47410  Biso   1.000  H
  C53      1.0000 0.46340  0.78750  0.40290  Biso   1.000  C
  C54      1.0000 0.53660  0.21250  0.59710  Biso   1.000  C
  H43      1.0000 0.49280  0.74630  0.37480  Biso   1.000  H
  H44      1.0000 0.50720  0.25370  0.62520  Biso   1.000  H
  C55      1.0000 0.41860  0.88460  0.35430  Biso   1.000  C
  C56      1.0000 0.58140  0.11540  0.64570  Biso   1.000  C
  H45      1.0000 0.41730  0.91010  0.29330  Biso   1.000  H
  H46      1.0000 0.58270  0.08990  0.70670  Biso   1.000  H
  C57      1.0000 0.06350  0.93060  0.26960  Biso   1.000  C
  C58      1.0000 0.93650  0.06940  0.73040  Biso   1.000  C
  C59      1.0000 0.15710  0.87130  0.32350  Biso   1.000  C
  C60      1.0000 0.84290  0.12870  0.67650  Biso   1.000  C
  H47      1.0000 0.21020  0.89740  0.33220  Biso   1.000  H
  H48      1.0000 0.78980  0.10260  0.66780  Biso   1.000  H
  C61      1.0000 0.17700  0.77370  0.36590  Biso   1.000  C
  C62      1.0000 0.82300  0.22630  0.63410  Biso   1.000  C
  H49      1.0000 0.24170  0.73450  0.40460  Biso   1.000  H
  H50      1.0000 0.75830  0.26550  0.59540  Biso   1.000  H
  C63      1.0000 0.10290  0.73430  0.35160  Biso   1.000  C
  C64      1.0000 0.89710  0.26570  0.64840  Biso   1.000  C
  H51      1.0000 0.11690  0.66760  0.37910  Biso   1.000  H
  H52      1.0000 0.88310  0.33240  0.62090  Biso   1.000  H
  C65      1.0000 0.01030  0.79100  0.29850  Biso   1.000  C
  C66      1.0000 0.98970  0.20900  0.70150  Biso   1.000  C
  H53      1.0000 0.95930  0.76340  0.28900  Biso   1.000  H
  H54      1.0000 0.04070  0.23660  0.71100  Biso   1.000  H
  C67      1.0000 0.98710  0.88900  0.25720  Biso   1.000  C
  C68      1.0000 0.01290  0.11100  0.74280  Biso   1.000  C
  H55      1.0000 0.92040  0.92770  0.22080  Biso   1.000  H
  H56      1.0000 0.07960  0.07230  0.77920  Biso   1.000  H
  C69      1.0000 0.95600  0.10100  0.11730  Biso   1.000  C
  C70      1.0000 0.04400  0.89900  0.88270  Biso   1.000  C
  C71      1.0000 0.00830  0.09790  0.04500  Biso   1.000  C
  C72      1.0000 0.99170  0.90210  0.95500  Biso   1.000  C
  H57      1.0000 0.08530  0.07430  0.05010  Biso   1.000  H
  H58      1.0000 0.91470  0.92570  0.94990  Biso   1.000  H
  C73      1.0000 0.94580  0.13000  0.96540  Biso   1.000  C
  C74      1.0000 0.05420  0.87000  0.03460  Biso   1.000  C
  H59      1.0000 0.98180  0.12490  0.91760  Biso   1.000  H
  H60      1.0000 0.01820  0.87510  0.08240  Biso   1.000  H
  C75      1.0000 0.83760  0.16730  0.95410  Biso   1.000  C
  C76      1.0000 0.16240  0.83270  0.04590  Biso   1.000  C
  H61      1.0000 0.79800  0.19210  0.89850  Biso   1.000  H
  H62      1.0000 0.20200  0.80790  0.10150  Biso   1.000  H
  C77      1.0000 0.78340  0.16930  0.02590  Biso   1.000  C
  C78      1.0000 0.21660  0.83070  0.97410  Biso   1.000  C
  H63      1.0000 0.70630  0.19250  0.02000  Biso   1.000  H
  H64      1.0000 0.29370  0.80750  0.98000  Biso   1.000  H
  C79      1.0000 0.84370  0.13720  0.10540  Biso   1.000  C
  C80      1.0000 0.15630  0.86280  0.89460  Biso   1.000  C
  H65      1.0000 0.80670  0.14010  0.15330  Biso   1.000  H
  H66      1.0000 0.19330  0.85990  0.84670  Biso   1.000  H
  C81      1.0000 0.94980  0.10640  0.28620  Biso   1.000  C
  C82      1.0000 0.05020  0.89360  0.71380  Biso   1.000  C
  C83      1.0000 0.93280  0.04900  0.36840  Biso   1.000  C
  C84      1.0000 0.06720  0.95100  0.63160  Biso   1.000  C
  H67      1.0000 0.96220  0.98180  0.38830  Biso   1.000  H
  H68      1.0000 0.03780  0.01820  0.61170  Biso   1.000  H
  C85      1.0000 0.87390  0.08800  0.42170  Biso   1.000  C
  C86      1.0000 0.12610  0.91200  0.57830  Biso   1.000  C
  H69      1.0000 0.86250  0.04750  0.47690  Biso   1.000  H
  H70      1.0000 0.13750  0.95250  0.52310  Biso   1.000  H
  C87      1.0000 0.83220  0.18500  0.39440  Biso   1.000  C
  C88      1.0000 0.16780  0.81500  0.60560  Biso   1.000  C
  H71      1.0000 0.79340  0.21150  0.43140  Biso   1.000  H
  H72      1.0000 0.20660  0.78850  0.56860  Biso   1.000  H
  C89      1.0000 0.84650  0.24500  0.31280  Biso   1.000  C
  C90      1.0000 0.15350  0.75500  0.68720  Biso   1.000  C
  H73      1.0000 0.81780  0.31210  0.29420  Biso   1.000  H
  H74      1.0000 0.18220  0.68790  0.70580  Biso   1.000  H
  C91      1.0000 0.90420  0.20500  0.25820  Biso   1.000  C
  C92      1.0000 0.09580  0.79500  0.74180  Biso   1.000  C
  H75      1.0000 0.91200  0.24550  0.20180  Biso   1.000  H
  H76      1.0000 0.08800  0.75450  0.79820  Biso   1.000  H
  N1       1.0000 0.29730  0.06850  0.12810  Biso   1.000  N
  N2       1.0000 0.70270  0.93150  0.87190  Biso   1.000  N
  N3       1.0000 0.12780  0.25370  0.13730  Biso   1.000  N
  N4       1.0000 0.87220  0.74630  0.86270  Biso   1.000  N
  P1       1.0000 0.31076  0.07357  0.32841  Biso   1.000  P
  P2       1.0000 0.68924  0.92643  0.67159  Biso   1.000  P
  P3       1.0000 0.04196  0.05884  0.21999  Biso   1.000  P
  P4       1.0000 0.95804  0.94116  0.78001  Biso   1.000  P
  B1       1.0000 0.46240  0.69190  0.20220  Biso   1.000  B
  B2       1.0000 0.53760  0.30810  0.79780  Biso   1.000  B
  F1       1.0000 0.47860  0.72600  0.11550  Biso   1.000  F
  F2       1.0000 0.52140  0.27400  0.88450  Biso   1.000  F
  F3       1.0000 0.46800  0.60180  0.22370  Biso   1.000  F
  F4       1.0000 0.53200  0.39820  0.77630  Biso   1.000  F
  F5       1.0000 0.36590  0.74160  0.21280  Biso   1.000  F
  F6       1.0000 0.63410  0.25840  0.78720  Biso   1.000  F
  F7       1.0000 0.53970  0.69280  0.24830  Biso   1.000  F
  F8       1.0000 0.46030  0.30720  0.75170  Biso   1.000  F
  C93      1.0000 0.75180  0.46460  0.76920  Biso   1.000  C
  C94      1.0000 0.24820  0.53540  0.23080  Biso   1.000  C
  H77      1.0000 0.71100  0.42640  0.75720  Biso   1.000  H
  H78      1.0000 0.28900  0.57360  0.24280  Biso   1.000  H
  Cl1      1.0000 0.88930  0.40640  0.77800  Biso   1.000  Cl
  Cl2      1.0000 0.11070  0.59360  0.22200  Biso   1.000  Cl
  Cl3      1.0000 0.72180  0.47110  0.87020  Biso   1.000  Cl
  Cl4      1.0000 0.27820  0.52890  0.12980  Biso   1.000  Cl
  Cl5      1.0000 0.71050  0.57640  0.68840  Biso   1.000  Cl
  Cl6      1.0000 0.28950  0.42360  0.31160  Biso   1.000  Cl
  C95      1.0000 0.35890  0.45970  0.90440  Biso   1.000  C
  C96      1.0000 0.64110  0.54030  0.09560  Biso   1.000  C
  H79      1.0000 0.42510  0.43750  0.87800  Biso   1.000  H
  H80      1.0000 0.57490  0.56250  0.12200  Biso   1.000  H
  Cl7      1.0000 0.36980  0.37670  0.00970  Biso   1.000  Cl
  Cl8      1.0000 0.63020  0.62330  0.99030  Biso   1.000  Cl
  Cl9      1.0000 0.24160  0.46840  0.84300  Biso   1.000  Cl
  Cl10     1.0000 0.75840  0.53160  0.15700  Biso   1.000  Cl
  Cl11     1.0000 0.34790  0.56950  0.90110  Biso   1.000  Cl
  Cl12     1.0000 0.65210  0.43050  0.09890  Biso   1.000  Cl
  C97      1.0000 0.71720  0.79260  0.19330  Biso   1.000  C
  C98      1.0000 0.28280  0.20740  0.80670  Biso   1.000  C
  H81      1.0000 0.65370  0.78300  0.16950  Biso   1.000  H
  H82      1.0000 0.34630  0.21700  0.83050  Biso   1.000  H
  Cl13     1.0000 0.81150  0.79980  0.12440  Biso   1.000  Cl
  Cl14     1.0000 0.18850  0.20020  0.87560  Biso   1.000  Cl
  Cl15     1.0000 0.77800  0.69600  0.29550  Biso   1.000  Cl
  Cl16     1.0000 0.22200  0.30400  0.70450  Biso   1.000  Cl
  Cl17     1.0000 0.67570  0.88180  0.22500  Biso   1.000  Cl
  Cl18     1.0000 0.32430  0.11820  0.77500  Biso   1.000  Cl
  C99      1.0000 0.72550  0.50820  0.39820  Biso   1.000  C
  C100     1.0000 0.27450  0.49180  0.60180  Biso   1.000  C
  H83      1.0000 0.69250  0.56570  0.34350  Biso   1.000  H
  H84      1.0000 0.30750  0.43430  0.65650  Biso   1.000  H
  Cl19     1.0000 0.68090  0.41730  0.40390  Biso   1.000  Cl
  Cl20     1.0000 0.31910  0.58270  0.59610  Biso   1.000  Cl
  Cl21     1.0000 0.86370  0.44760  0.39070  Biso   1.000  Cl
  Cl22     1.0000 0.13630  0.55240  0.60930  Biso   1.000  Cl
  Cl23     1.0000 0.72410  0.53910  0.48320  Biso   1.000  Cl
  Cl24     1.0000 0.27590  0.46090  0.51680  Biso   1.000  Cl
