data_image0
_cell_length_a       11.0271
_cell_length_b       17.337
_cell_length_c       19.9735
_cell_angle_alpha    90
_cell_angle_beta     102.459
_cell_angle_gamma    90

_symmetry_space_group_name_H-M    "P 1"
_symmetry_int_tables_number       1

loop_
  _symmetry_equiv_pos_as_xyz
  'x, y, z'

loop_
  _atom_site_label
  _atom_site_occupancy
  _atom_site_fract_x
  _atom_site_fract_y
  _atom_site_fract_z
  _atom_site_thermal_displace_type
  _atom_site_B_iso_or_equiv
  _atom_site_type_symbol
  Cu1      1.0000 0.19857  0.99757  0.28034  Biso   1.000  Cu
  Cu2      1.0000 0.80143  0.49757  0.21966  Biso   1.000  Cu
  Cu3      1.0000 0.80143  0.00243  0.71966  Biso   1.000  Cu
  Cu4      1.0000 0.19857  0.50243  0.78034  Biso   1.000  Cu
  C1       1.0000 0.41790  0.91570  0.25234  Biso   1.000  C
  C2       1.0000 0.58210  0.41570  0.24766  Biso   1.000  C
  C3       1.0000 0.58210  0.08430  0.74766  Biso   1.000  C
  C4       1.0000 0.41790  0.58430  0.75234  Biso   1.000  C
  H1       1.0000 0.43130  0.96350  0.23290  Biso   1.000  H
  H2       1.0000 0.56870  0.46350  0.26710  Biso   1.000  H
  H3       1.0000 0.56870  0.03650  0.76710  Biso   1.000  H
  H4       1.0000 0.43130  0.53650  0.73290  Biso   1.000  H
  C5       1.0000 0.49050  0.85450  0.24229  Biso   1.000  C
  C6       1.0000 0.50950  0.35450  0.25771  Biso   1.000  C
  C7       1.0000 0.50950  0.14550  0.75771  Biso   1.000  C
  C8       1.0000 0.49050  0.64550  0.74229  Biso   1.000  C
  H5       1.0000 0.54970  0.86040  0.21510  Biso   1.000  H
  H6       1.0000 0.45030  0.36040  0.28490  Biso   1.000  H
  H7       1.0000 0.45030  0.13960  0.78490  Biso   1.000  H
  H8       1.0000 0.54970  0.63960  0.71510  Biso   1.000  H
  C9       1.0000 0.47640  0.78430  0.27224  Biso   1.000  C
  C10      1.0000 0.52360  0.28430  0.22776  Biso   1.000  C
  C11      1.0000 0.52360  0.21570  0.72776  Biso   1.000  C
  C12      1.0000 0.47640  0.71570  0.77224  Biso   1.000  C
  C13      1.0000 0.38890  0.77940  0.31254  Biso   1.000  C
  C14      1.0000 0.61110  0.27940  0.18746  Biso   1.000  C
  C15      1.0000 0.61110  0.22060  0.68746  Biso   1.000  C
  C16      1.0000 0.38890  0.72060  0.81254  Biso   1.000  C
  H9       1.0000 0.37890  0.73340  0.33570  Biso   1.000  H
  H10      1.0000 0.62110  0.23340  0.16430  Biso   1.000  H
  H11      1.0000 0.62110  0.26660  0.66430  Biso   1.000  H
  H12      1.0000 0.37890  0.76660  0.83570  Biso   1.000  H
  C17      1.0000 0.31640  0.84320  0.31821  Biso   1.000  C
  C18      1.0000 0.68360  0.34320  0.18179  Biso   1.000  C
  C19      1.0000 0.68360  0.15680  0.68179  Biso   1.000  C
  C20      1.0000 0.31640  0.65680  0.81821  Biso   1.000  C
  H13      1.0000 0.25540  0.83870  0.34440  Biso   1.000  H
  H14      1.0000 0.74460  0.33870  0.15560  Biso   1.000  H
  H15      1.0000 0.74460  0.16130  0.65560  Biso   1.000  H
  H16      1.0000 0.25540  0.66130  0.84440  Biso   1.000  H
  C21      1.0000 0.55160  0.71710  0.26110  Biso   1.000  C
  C22      1.0000 0.44840  0.21710  0.23890  Biso   1.000  C
  C23      1.0000 0.44840  0.28290  0.73890  Biso   1.000  C
  C24      1.0000 0.55160  0.78290  0.76110  Biso   1.000  C
  C25      1.0000 0.57150  0.70000  0.19640  Biso   1.000  C
  C26      1.0000 0.42850  0.20000  0.30360  Biso   1.000  C
  C27      1.0000 0.42850  0.30000  0.80360  Biso   1.000  C
  C28      1.0000 0.57150  0.80000  0.69640  Biso   1.000  C
  H17      1.0000 0.53600  0.73090  0.15860  Biso   1.000  H
  H18      1.0000 0.46400  0.23090  0.34140  Biso   1.000  H
  H19      1.0000 0.46400  0.26910  0.84140  Biso   1.000  H
  H20      1.0000 0.53600  0.76910  0.65860  Biso   1.000  H
  C29      1.0000 0.64370  0.63760  0.18808  Biso   1.000  C
  C30      1.0000 0.35630  0.13760  0.31192  Biso   1.000  C
  C31      1.0000 0.35630  0.36240  0.81192  Biso   1.000  C
  C32      1.0000 0.64370  0.86240  0.68808  Biso   1.000  C
  H21      1.0000 0.65540  0.62650  0.14380  Biso   1.000  H
  H22      1.0000 0.34460  0.12650  0.35620  Biso   1.000  H
  H23      1.0000 0.34460  0.37350  0.85620  Biso   1.000  H
  H24      1.0000 0.65540  0.87350  0.64380  Biso   1.000  H
  C33      1.0000 0.67780  0.60860  0.30165  Biso   1.000  C
  C34      1.0000 0.32220  0.10860  0.19835  Biso   1.000  C
  C35      1.0000 0.32220  0.39140  0.69835  Biso   1.000  C
  C36      1.0000 0.67780  0.89140  0.80165  Biso   1.000  C
  H25      1.0000 0.71530  0.57700  0.33860  Biso   1.000  H
  H26      1.0000 0.28470  0.07700  0.16140  Biso   1.000  H
  H27      1.0000 0.28470  0.42300  0.66140  Biso   1.000  H
  H28      1.0000 0.71530  0.92300  0.83860  Biso   1.000  H
  C37      1.0000 0.60530  0.66900  0.31449  Biso   1.000  C
  C38      1.0000 0.39470  0.16900  0.18551  Biso   1.000  C
  C39      1.0000 0.39470  0.33100  0.68551  Biso   1.000  C
  C40      1.0000 0.60530  0.83100  0.81449  Biso   1.000  C
  H29      1.0000 0.59250  0.67750  0.35890  Biso   1.000  H
  H30      1.0000 0.40750  0.17750  0.14110  Biso   1.000  H
  H31      1.0000 0.40750  0.32250  0.64110  Biso   1.000  H
  H32      1.0000 0.59250  0.82250  0.85890  Biso   1.000  H
  C41      1.0000 0.01520  0.03350  0.15228  Biso   1.000  C
  C42      1.0000 0.98480  0.53350  0.34772  Biso   1.000  C
  C43      1.0000 0.98480  0.96650  0.84772  Biso   1.000  C
  C44      1.0000 0.01520  0.46650  0.65228  Biso   1.000  C
  H33      1.0000 0.98260  0.06610  0.18170  Biso   1.000  H
  H34      1.0000 0.01740  0.56610  0.31830  Biso   1.000  H
  H35      1.0000 0.01740  0.93390  0.81830  Biso   1.000  H
  H36      1.0000 0.98260  0.43390  0.68170  Biso   1.000  H
  C45      1.0000 0.97370  0.04300  0.08265  Biso   1.000  C
  C46      1.0000 0.02630  0.54300  0.41735  Biso   1.000  C
  C47      1.0000 0.02630  0.95700  0.91735  Biso   1.000  C
  C48      1.0000 0.97370  0.45700  0.58265  Biso   1.000  C
  H37      1.0000 0.91510  0.08140  0.06550  Biso   1.000  H
  H38      1.0000 0.08490  0.58140  0.43450  Biso   1.000  H
  H39      1.0000 0.08490  0.91860  0.93450  Biso   1.000  H
  H40      1.0000 0.91510  0.41860  0.56550  Biso   1.000  H
  C49      1.0000 0.01920  0.99510  0.03791  Biso   1.000  C
  C50      1.0000 0.98080  0.49510  0.46209  Biso   1.000  C
  C51      1.0000 0.98080  0.00490  0.96209  Biso   1.000  C
  C52      1.0000 0.01920  0.50490  0.53791  Biso   1.000  C
  C53      1.0000 0.10280  0.93900  0.06682  Biso   1.000  C
  C54      1.0000 0.89720  0.43900  0.43318  Biso   1.000  C
  C55      1.0000 0.89720  0.06100  0.93318  Biso   1.000  C
  C56      1.0000 0.10280  0.56100  0.56682  Biso   1.000  C
  H41      1.0000 0.13470  0.90430  0.03870  Biso   1.000  H
  H42      1.0000 0.86530  0.40430  0.46130  Biso   1.000  H
  H43      1.0000 0.86530  0.09570  0.96130  Biso   1.000  H
  H44      1.0000 0.13470  0.59570  0.53870  Biso   1.000  H
  C57      1.0000 0.13940  0.93390  0.13723  Biso   1.000  C
  C58      1.0000 0.86060  0.43390  0.36277  Biso   1.000  C
  C59      1.0000 0.86060  0.06610  0.86277  Biso   1.000  C
  C60      1.0000 0.13940  0.56610  0.63723  Biso   1.000  C
  H45      1.0000 0.19630  0.89500  0.15570  Biso   1.000  H
  H46      1.0000 0.80370  0.39500  0.34430  Biso   1.000  H
  H47      1.0000 0.80370  0.10500  0.84430  Biso   1.000  H
  H48      1.0000 0.19630  0.60500  0.65570  Biso   1.000  H
  C61      1.0000 0.97620  0.07960  0.35297  Biso   1.000  C
  C62      1.0000 0.02380  0.57960  0.14703  Biso   1.000  C
  C63      1.0000 0.02380  0.92040  0.64703  Biso   1.000  C
  C64      1.0000 0.97620  0.42040  0.85297  Biso   1.000  C
  C65      1.0000 0.99150  0.14620  0.31750  Biso   1.000  C
  C66      1.0000 0.00850  0.64620  0.18250  Biso   1.000  C
  C67      1.0000 0.00850  0.85380  0.68250  Biso   1.000  C
  C68      1.0000 0.99150  0.35380  0.81750  Biso   1.000  C
  H49      1.0000 0.05900  0.15020  0.29590  Biso   1.000  H
  H50      1.0000 0.94100  0.65020  0.20410  Biso   1.000  H
  H51      1.0000 0.94100  0.84980  0.70410  Biso   1.000  H
  H52      1.0000 0.05900  0.34980  0.79590  Biso   1.000  H
  C69      1.0000 0.90920  0.20680  0.31340  Biso   1.000  C
  C70      1.0000 0.09080  0.70680  0.18660  Biso   1.000  C
  C71      1.0000 0.09080  0.79320  0.68660  Biso   1.000  C
  C72      1.0000 0.90920  0.29320  0.81340  Biso   1.000  C
  H53      1.0000 0.92090  0.25190  0.28950  Biso   1.000  H
  H54      1.0000 0.07910  0.75190  0.21050  Biso   1.000  H
  H55      1.0000 0.07910  0.74810  0.71050  Biso   1.000  H
  H56      1.0000 0.92090  0.24810  0.78950  Biso   1.000  H
  C73      1.0000 0.80930  0.20080  0.34480  Biso   1.000  C
  C74      1.0000 0.19070  0.70080  0.15520  Biso   1.000  C
  C75      1.0000 0.19070  0.79920  0.65520  Biso   1.000  C
  C76      1.0000 0.80930  0.29920  0.84480  Biso   1.000  C
  H57      1.0000 0.75340  0.24210  0.34270  Biso   1.000  H
  H58      1.0000 0.24660  0.74210  0.15730  Biso   1.000  H
  H59      1.0000 0.24660  0.75790  0.65730  Biso   1.000  H
  H60      1.0000 0.75340  0.25790  0.84270  Biso   1.000  H
  C77      1.0000 0.79220  0.13440  0.37880  Biso   1.000  C
  C78      1.0000 0.20780  0.63440  0.12120  Biso   1.000  C
  C79      1.0000 0.20780  0.86560  0.62120  Biso   1.000  C
  C80      1.0000 0.79220  0.36560  0.87880  Biso   1.000  C
  H61      1.0000 0.72340  0.13020  0.39930  Biso   1.000  H
  H62      1.0000 0.27660  0.63020  0.10070  Biso   1.000  H
  H63      1.0000 0.27660  0.86980  0.60070  Biso   1.000  H
  H64      1.0000 0.72340  0.36980  0.89930  Biso   1.000  H
  C81      1.0000 0.87460  0.07380  0.38324  Biso   1.000  C
  C82      1.0000 0.12540  0.57380  0.11676  Biso   1.000  C
  C83      1.0000 0.12540  0.92620  0.61676  Biso   1.000  C
  C84      1.0000 0.87460  0.42620  0.88324  Biso   1.000  C
  H65      1.0000 0.86190  0.02860  0.40680  Biso   1.000  H
  H66      1.0000 0.13810  0.52860  0.09320  Biso   1.000  H
  H67      1.0000 0.13810  0.97140  0.59320  Biso   1.000  H
  H68      1.0000 0.86190  0.47140  0.90680  Biso   1.000  H
  C85      1.0000 0.19580  0.02800  0.44647  Biso   1.000  C
  C86      1.0000 0.80420  0.52800  0.05353  Biso   1.000  C
  C87      1.0000 0.80420  0.97200  0.55353  Biso   1.000  C
  C88      1.0000 0.19580  0.47200  0.94647  Biso   1.000  C
  C89      1.0000 0.17940  0.09350  0.48330  Biso   1.000  C
  C90      1.0000 0.82060  0.59350  0.01670  Biso   1.000  C
  C91      1.0000 0.82060  0.90650  0.51670  Biso   1.000  C
  C92      1.0000 0.17940  0.40650  0.98330  Biso   1.000  C
  H69      1.0000 0.11180  0.12640  0.46700  Biso   1.000  H
  H70      1.0000 0.88820  0.62640  0.03300  Biso   1.000  H
  H71      1.0000 0.88820  0.87360  0.53300  Biso   1.000  H
  H72      1.0000 0.11180  0.37360  0.96700  Biso   1.000  H
  C93      1.0000 0.26250  0.11050  0.54420  Biso   1.000  C
  C94      1.0000 0.73750  0.61050  0.95580  Biso   1.000  C
  C95      1.0000 0.73750  0.88950  0.45580  Biso   1.000  C
  C96      1.0000 0.26250  0.38950  0.04420  Biso   1.000  C
  H73      1.0000 0.25180  0.15530  0.56870  Biso   1.000  H
  H74      1.0000 0.74820  0.65530  0.93130  Biso   1.000  H
  H75      1.0000 0.74820  0.84470  0.43130  Biso   1.000  H
  H76      1.0000 0.25180  0.34470  0.06870  Biso   1.000  H
  C97      1.0000 0.36060  0.06190  0.56870  Biso   1.000  C
  C98      1.0000 0.63940  0.56190  0.93130  Biso   1.000  C
  C99      1.0000 0.63940  0.93810  0.43130  Biso   1.000  C
  C100     1.0000 0.36060  0.43810  0.06870  Biso   1.000  C
  H77      1.0000 0.41660  0.07360  0.61000  Biso   1.000  H
  H78      1.0000 0.58340  0.57360  0.89000  Biso   1.000  H
  H79      1.0000 0.58340  0.92640  0.39000  Biso   1.000  H
  H80      1.0000 0.41660  0.42640  0.11000  Biso   1.000  H
  C101     1.0000 0.37710  0.99630  0.53320  Biso   1.000  C
  C102     1.0000 0.62290  0.49630  0.96680  Biso   1.000  C
  C103     1.0000 0.62290  0.00370  0.46680  Biso   1.000  C
  C104     1.0000 0.37710  0.50370  0.03320  Biso   1.000  C
  H81      1.0000 0.44320  0.96270  0.55080  Biso   1.000  H
  H82      1.0000 0.55680  0.46270  0.94920  Biso   1.000  H
  H83      1.0000 0.55680  0.03730  0.44920  Biso   1.000  H
  H84      1.0000 0.44320  0.53730  0.05080  Biso   1.000  H
  C105     1.0000 0.29670  0.97980  0.47175  Biso   1.000  C
  C106     1.0000 0.70330  0.47980  0.02825  Biso   1.000  C
  C107     1.0000 0.70330  0.02020  0.52825  Biso   1.000  C
  C108     1.0000 0.29670  0.52020  0.97175  Biso   1.000  C
  H85      1.0000 0.31000  0.93580  0.44680  Biso   1.000  H
  H86      1.0000 0.69000  0.43580  0.05320  Biso   1.000  H
  H87      1.0000 0.69000  0.06420  0.55320  Biso   1.000  H
  H88      1.0000 0.31000  0.56420  0.94680  Biso   1.000  H
  C109     1.0000 0.02090  0.91450  0.37101  Biso   1.000  C
  C110     1.0000 0.97910  0.41450  0.12899  Biso   1.000  C
  C111     1.0000 0.97910  0.08550  0.62899  Biso   1.000  C
  C112     1.0000 0.02090  0.58550  0.87101  Biso   1.000  C
  C113     1.0000 0.93370  0.88910  0.31460  Biso   1.000  C
  C114     1.0000 0.06630  0.38910  0.18540  Biso   1.000  C
  C115     1.0000 0.06630  0.11090  0.68540  Biso   1.000  C
  C116     1.0000 0.93370  0.61090  0.81460  Biso   1.000  C
  H89      1.0000 0.90770  0.92200  0.27690  Biso   1.000  H
  H90      1.0000 0.09230  0.42200  0.22310  Biso   1.000  H
  H91      1.0000 0.09230  0.07800  0.72310  Biso   1.000  H
  H92      1.0000 0.90770  0.57800  0.77690  Biso   1.000  H
  C117     1.0000 0.88460  0.81510  0.31360  Biso   1.000  C
  C118     1.0000 0.11540  0.31510  0.18640  Biso   1.000  C
  C119     1.0000 0.11540  0.18490  0.68640  Biso   1.000  C
  C120     1.0000 0.88460  0.68490  0.81360  Biso   1.000  C
  H93      1.0000 0.82440  0.79840  0.27560  Biso   1.000  H
  H94      1.0000 0.17560  0.29840  0.22440  Biso   1.000  H
  H95      1.0000 0.17560  0.20160  0.72440  Biso   1.000  H
  H96      1.0000 0.82440  0.70160  0.77560  Biso   1.000  H
  C121     1.0000 0.92410  0.76660  0.36810  Biso   1.000  C
  C122     1.0000 0.07590  0.26660  0.13190  Biso   1.000  C
  C123     1.0000 0.07590  0.23340  0.63190  Biso   1.000  C
  C124     1.0000 0.92410  0.73340  0.86810  Biso   1.000  C
  H97      1.0000 0.89280  0.71610  0.36680  Biso   1.000  H
  H98      1.0000 0.10720  0.21610  0.13320  Biso   1.000  H
  H99      1.0000 0.10720  0.28390  0.63320  Biso   1.000  H
  H100     1.0000 0.89280  0.78390  0.86680  Biso   1.000  H
  C125     1.0000 0.00890  0.79150  0.42460  Biso   1.000  C
  C126     1.0000 0.99110  0.29150  0.07540  Biso   1.000  C
  C127     1.0000 0.99110  0.20850  0.57540  Biso   1.000  C
  C128     1.0000 0.00890  0.70850  0.92460  Biso   1.000  C
  H101     1.0000 0.03480  0.75830  0.46220  Biso   1.000  H
  H102     1.0000 0.96520  0.25830  0.03780  Biso   1.000  H
  H103     1.0000 0.96520  0.24170  0.53780  Biso   1.000  H
  H104     1.0000 0.03480  0.74170  0.96220  Biso   1.000  H
  C129     1.0000 0.05660  0.86550  0.42630  Biso   1.000  C
  C130     1.0000 0.94340  0.36550  0.07370  Biso   1.000  C
  C131     1.0000 0.94340  0.13450  0.57370  Biso   1.000  C
  C132     1.0000 0.05660  0.63450  0.92630  Biso   1.000  C
  H105     1.0000 0.11370  0.88260  0.46540  Biso   1.000  H
  H106     1.0000 0.88630  0.38260  0.03460  Biso   1.000  H
  H107     1.0000 0.88630  0.11740  0.53460  Biso   1.000  H
  H108     1.0000 0.11370  0.61740  0.96540  Biso   1.000  H
  N1       1.0000 0.32860  0.91109  0.28839  Biso   1.000  N
  N2       1.0000 0.67140  0.41109  0.21161  Biso   1.000  N
  N3       1.0000 0.67140  0.08891  0.71161  Biso   1.000  N
  N4       1.0000 0.32860  0.58891  0.78839  Biso   1.000  N
  N5       1.0000 0.69800  0.59217  0.23967  Biso   1.000  N
  N6       1.0000 0.30200  0.09217  0.26033  Biso   1.000  N
  N7       1.0000 0.30200  0.40783  0.76033  Biso   1.000  N
  N8       1.0000 0.69800  0.90783  0.73967  Biso   1.000  N
  N9       1.0000 0.09920  0.98061  0.18047  Biso   1.000  N
  N10      1.0000 0.90080  0.48061  0.31953  Biso   1.000  N
  N11      1.0000 0.90080  0.01939  0.81953  Biso   1.000  N
  N12      1.0000 0.09920  0.51939  0.68047  Biso   1.000  N
  P1       1.0000 0.09712  0.00647  0.36253  Biso   1.000  P
  P2       1.0000 0.90288  0.50647  0.13747  Biso   1.000  P
  P3       1.0000 0.90288  0.99353  0.63747  Biso   1.000  P
  P4       1.0000 0.09712  0.49353  0.86253  Biso   1.000  P
  B1       1.0000 0.63640  0.21860  0.00100  Biso   1.000  B
  B2       1.0000 0.36360  0.71860  0.49900  Biso   1.000  B
  B3       1.0000 0.36360  0.78140  0.99900  Biso   1.000  B
  B4       1.0000 0.63640  0.28140  0.50100  Biso   1.000  B
  F1       1.0000 0.66500  0.29313  0.01320  Biso   1.000  F
  F2       1.0000 0.33500  0.79313  0.48680  Biso   1.000  F
  F3       1.0000 0.33500  0.70687  0.98680  Biso   1.000  F
  F4       1.0000 0.66500  0.20687  0.51320  Biso   1.000  F
  F5       1.0000 0.54320  0.19596  0.03343  Biso   1.000  F
  F6       1.0000 0.45680  0.69596  0.46657  Biso   1.000  F
  F7       1.0000 0.45680  0.80404  0.96657  Biso   1.000  F
  F8       1.0000 0.54320  0.30404  0.53343  Biso   1.000  F
  F9       1.0000 0.73760  0.17350  0.02650  Biso   1.000  F
  F10      1.0000 0.26240  0.67350  0.47350  Biso   1.000  F
  F11      1.0000 0.26240  0.82650  0.97350  Biso   1.000  F
  F12      1.0000 0.73760  0.32650  0.52650  Biso   1.000  F
  F13      1.0000 0.60130  0.20430  0.93304  Biso   1.000  F
  F14      1.0000 0.39870  0.70430  0.56696  Biso   1.000  F
  F15      1.0000 0.39870  0.79570  0.06696  Biso   1.000  F
  F16      1.0000 0.60130  0.29570  0.43304  Biso   1.000  F
  C133     1.0000 0.37550  0.96720  0.89380  Biso   1.000  C
  C134     1.0000 0.62450  0.46720  0.60620  Biso   1.000  C
  C135     1.0000 0.62450  0.03280  0.10620  Biso   1.000  C
  C136     1.0000 0.37550  0.53280  0.39380  Biso   1.000  C
  H109     1.0000 0.31080  0.99060  0.91400  Biso   1.000  H
  H110     1.0000 0.68920  0.49060  0.58600  Biso   1.000  H
  H111     1.0000 0.68920  0.00940  0.08600  Biso   1.000  H
  H112     1.0000 0.31080  0.50940  0.41400  Biso   1.000  H
  H113     1.0000 0.39770  0.91740  0.91640  Biso   1.000  H
  H114     1.0000 0.60230  0.41740  0.58360  Biso   1.000  H
  H115     1.0000 0.60230  0.08260  0.08360  Biso   1.000  H
  H116     1.0000 0.39770  0.58260  0.41640  Biso   1.000  H
  Cl1      1.0000 0.31678  0.95188  0.80647  Biso   1.000  Cl
  Cl2      1.0000 0.68322  0.45188  0.69353  Biso   1.000  Cl
  Cl3      1.0000 0.68322  0.04812  0.19353  Biso   1.000  Cl
  Cl4      1.0000 0.31678  0.54812  0.30647  Biso   1.000  Cl
  Cl5      1.0000 0.50457  0.02634  0.90862  Biso   1.000  Cl
  Cl6      1.0000 0.49543  0.52634  0.59138  Biso   1.000  Cl
  Cl7      1.0000 0.49543  0.97366  0.09138  Biso   1.000  Cl
  Cl8      1.0000 0.50457  0.47366  0.40862  Biso   1.000  Cl
  C137     1.0000 0.27610  0.18800  0.94680  Biso   1.000  C
  C138     1.0000 0.72390  0.68800  0.55320  Biso   1.000  C
  C139     1.0000 0.72390  0.81200  0.05320  Biso   1.000  C
  C140     1.0000 0.27610  0.31200  0.44680  Biso   1.000  C
  H117     1.0000 0.36520  0.17790  0.95260  Biso   1.000  H
  H118     1.0000 0.63480  0.67790  0.54740  Biso   1.000  H
  H119     1.0000 0.63480  0.82210  0.04740  Biso   1.000  H
  H120     1.0000 0.36520  0.32210  0.45260  Biso   1.000  H
  H121     1.0000 0.26480  0.24370  0.95110  Biso   1.000  H
  H122     1.0000 0.73520  0.74370  0.54890  Biso   1.000  H
  H123     1.0000 0.73520  0.75630  0.04890  Biso   1.000  H
  H124     1.0000 0.26480  0.25630  0.45110  Biso   1.000  H
  Cl9      1.0000 0.22240  0.14179  0.00949  Biso   1.000  Cl
  Cl10     1.0000 0.77760  0.64179  0.49051  Biso   1.000  Cl
  Cl11     1.0000 0.77760  0.85821  0.99051  Biso   1.000  Cl
  Cl12     1.0000 0.22240  0.35821  0.50949  Biso   1.000  Cl
  Cl13     1.0000 0.19978  0.15831  0.86589  Biso   1.000  Cl
  Cl14     1.0000 0.80022  0.65831  0.63411  Biso   1.000  Cl
  Cl15     1.0000 0.80022  0.84169  0.13411  Biso   1.000  Cl
  Cl16     1.0000 0.19978  0.34169  0.36589  Biso   1.000  Cl
