data_image0
_cell_length_a       11.0417
_cell_length_b       17.3398
_cell_length_c       19.8809
_cell_angle_alpha    90
_cell_angle_beta     102.275
_cell_angle_gamma    90

_symmetry_space_group_name_H-M    "P 1"
_symmetry_int_tables_number       1

loop_
  _symmetry_equiv_pos_as_xyz
  'x, y, z'

loop_
  _atom_site_label
  _atom_site_occupancy
  _atom_site_fract_x
  _atom_site_fract_y
  _atom_site_fract_z
  _atom_site_thermal_displace_type
  _atom_site_B_iso_or_equiv
  _atom_site_type_symbol
  Cu1      1.0000 0.20075  0.99613  0.28026  Biso   1.000  Cu
  Cu2      1.0000 0.79925  0.49613  0.21974  Biso   1.000  Cu
  Cu3      1.0000 0.79925  0.00387  0.71974  Biso   1.000  Cu
  Cu4      1.0000 0.20075  0.50387  0.78026  Biso   1.000  Cu
  P1       1.0000 0.09902  0.00539  0.36248  Biso   1.000  P
  P2       1.0000 0.90098  0.50539  0.13752  Biso   1.000  P
  P3       1.0000 0.90098  0.99461  0.63752  Biso   1.000  P
  P4       1.0000 0.09902  0.49461  0.86248  Biso   1.000  P
  N1       1.0000 0.32940  0.90925  0.28816  Biso   1.000  N
  N2       1.0000 0.67060  0.40925  0.21184  Biso   1.000  N
  N3       1.0000 0.67060  0.09075  0.71184  Biso   1.000  N
  N4       1.0000 0.32940  0.59075  0.78816  Biso   1.000  N
  N5       1.0000 0.69640  0.59059  0.23952  Biso   1.000  N
  N6       1.0000 0.30360  0.09059  0.26048  Biso   1.000  N
  N7       1.0000 0.30360  0.40941  0.76048  Biso   1.000  N
  N8       1.0000 0.69640  0.90941  0.73952  Biso   1.000  N
  N9       1.0000 0.10210  0.97980  0.18024  Biso   1.000  N
  N10      1.0000 0.89790  0.47980  0.31976  Biso   1.000  N
  N11      1.0000 0.89790  0.02020  0.81976  Biso   1.000  N
  N12      1.0000 0.10210  0.52020  0.68024  Biso   1.000  N
  C1       1.0000 0.41840  0.91400  0.25220  Biso   1.000  C
  C2       1.0000 0.58160  0.41400  0.24780  Biso   1.000  C
  C3       1.0000 0.58160  0.08600  0.74780  Biso   1.000  C
  C4       1.0000 0.41840  0.58600  0.75220  Biso   1.000  C
  H1       1.0000 0.43200  0.96190  0.23280  Biso   1.000  H
  H2       1.0000 0.56800  0.46190  0.26720  Biso   1.000  H
  H3       1.0000 0.56800  0.03810  0.76720  Biso   1.000  H
  H4       1.0000 0.43200  0.53810  0.73280  Biso   1.000  H
  C5       1.0000 0.49100  0.85290  0.24220  Biso   1.000  C
  C6       1.0000 0.50900  0.35290  0.25780  Biso   1.000  C
  C7       1.0000 0.50900  0.14710  0.75780  Biso   1.000  C
  C8       1.0000 0.49100  0.64710  0.74220  Biso   1.000  C
  H5       1.0000 0.55060  0.85870  0.21520  Biso   1.000  H
  H6       1.0000 0.44940  0.35870  0.28480  Biso   1.000  H
  H7       1.0000 0.44940  0.14130  0.78480  Biso   1.000  H
  H8       1.0000 0.55060  0.64130  0.71520  Biso   1.000  H
  C9       1.0000 0.47590  0.78280  0.27211  Biso   1.000  C
  C10      1.0000 0.52410  0.28280  0.22789  Biso   1.000  C
  C11      1.0000 0.52410  0.21720  0.72789  Biso   1.000  C
  C12      1.0000 0.47590  0.71720  0.77211  Biso   1.000  C
  C13      1.0000 0.38790  0.77800  0.31170  Biso   1.000  C
  C14      1.0000 0.61210  0.27800  0.18830  Biso   1.000  C
  C15      1.0000 0.61210  0.22200  0.68830  Biso   1.000  C
  C16      1.0000 0.38790  0.72200  0.81170  Biso   1.000  C
  H9       1.0000 0.37700  0.73180  0.33440  Biso   1.000  H
  H10      1.0000 0.62300  0.23180  0.16560  Biso   1.000  H
  H11      1.0000 0.62300  0.26820  0.66560  Biso   1.000  H
  H12      1.0000 0.37700  0.76820  0.83440  Biso   1.000  H
  C17      1.0000 0.31610  0.84170  0.31768  Biso   1.000  C
  C18      1.0000 0.68390  0.34170  0.18232  Biso   1.000  C
  C19      1.0000 0.68390  0.15830  0.68232  Biso   1.000  C
  C20      1.0000 0.31610  0.65830  0.81768  Biso   1.000  C
  H13      1.0000 0.25480  0.83720  0.34380  Biso   1.000  H
  H14      1.0000 0.74520  0.33720  0.15620  Biso   1.000  H
  H15      1.0000 0.74520  0.16280  0.65620  Biso   1.000  H
  H16      1.0000 0.25480  0.66280  0.84380  Biso   1.000  H
  C21      1.0000 0.55110  0.71570  0.26080  Biso   1.000  C
  C22      1.0000 0.44890  0.21570  0.23920  Biso   1.000  C
  C23      1.0000 0.44890  0.28430  0.73920  Biso   1.000  C
  C24      1.0000 0.55110  0.78430  0.76080  Biso   1.000  C
  C25      1.0000 0.57060  0.69870  0.19640  Biso   1.000  C
  C26      1.0000 0.42940  0.19870  0.30360  Biso   1.000  C
  C27      1.0000 0.42940  0.30130  0.80360  Biso   1.000  C
  C28      1.0000 0.57060  0.80130  0.69640  Biso   1.000  C
  H17      1.0000 0.53530  0.72970  0.15850  Biso   1.000  H
  H18      1.0000 0.46470  0.22970  0.34150  Biso   1.000  H
  H19      1.0000 0.46470  0.27030  0.84150  Biso   1.000  H
  H20      1.0000 0.53530  0.77030  0.65850  Biso   1.000  H
  C29      1.0000 0.64210  0.63610  0.18770  Biso   1.000  C
  C30      1.0000 0.35790  0.13610  0.31230  Biso   1.000  C
  C31      1.0000 0.35790  0.36390  0.81230  Biso   1.000  C
  C32      1.0000 0.64210  0.86390  0.68770  Biso   1.000  C
  H21      1.0000 0.65330  0.62480  0.14310  Biso   1.000  H
  H22      1.0000 0.34670  0.12480  0.35690  Biso   1.000  H
  H23      1.0000 0.34670  0.37520  0.85690  Biso   1.000  H
  H24      1.0000 0.65330  0.87520  0.64310  Biso   1.000  H
  C33      1.0000 0.67610  0.60720  0.30147  Biso   1.000  C
  C34      1.0000 0.32390  0.10720  0.19853  Biso   1.000  C
  C35      1.0000 0.32390  0.39280  0.69853  Biso   1.000  C
  C36      1.0000 0.67610  0.89280  0.80147  Biso   1.000  C
  H25      1.0000 0.71310  0.57560  0.33860  Biso   1.000  H
  H26      1.0000 0.28690  0.07560  0.16140  Biso   1.000  H
  H27      1.0000 0.28690  0.42440  0.66140  Biso   1.000  H
  H28      1.0000 0.71310  0.92440  0.83860  Biso   1.000  H
  C37      1.0000 0.60430  0.66780  0.31430  Biso   1.000  C
  C38      1.0000 0.39570  0.16780  0.18570  Biso   1.000  C
  C39      1.0000 0.39570  0.33220  0.68570  Biso   1.000  C
  C40      1.0000 0.60430  0.83220  0.81430  Biso   1.000  C
  H29      1.0000 0.59160  0.67640  0.35900  Biso   1.000  H
  H30      1.0000 0.40840  0.17640  0.14100  Biso   1.000  H
  H31      1.0000 0.40840  0.32360  0.64100  Biso   1.000  H
  H32      1.0000 0.59160  0.82360  0.85900  Biso   1.000  H
  C41      1.0000 0.01760  0.03240  0.15280  Biso   1.000  C
  C42      1.0000 0.98240  0.53240  0.34720  Biso   1.000  C
  C43      1.0000 0.98240  0.96760  0.84720  Biso   1.000  C
  C44      1.0000 0.01760  0.46760  0.65280  Biso   1.000  C
  H33      1.0000 0.98520  0.06460  0.18270  Biso   1.000  H
  H34      1.0000 0.01480  0.56460  0.31730  Biso   1.000  H
  H35      1.0000 0.01480  0.93540  0.81730  Biso   1.000  H
  H36      1.0000 0.98520  0.43540  0.68270  Biso   1.000  H
  C45      1.0000 0.97550  0.04200  0.08290  Biso   1.000  C
  C46      1.0000 0.02450  0.54200  0.41710  Biso   1.000  C
  C47      1.0000 0.02450  0.95800  0.91710  Biso   1.000  C
  C48      1.0000 0.97550  0.45800  0.58290  Biso   1.000  C
  H37      1.0000 0.91670  0.08040  0.06610  Biso   1.000  H
  H38      1.0000 0.08330  0.58040  0.43390  Biso   1.000  H
  H39      1.0000 0.08330  0.91960  0.93390  Biso   1.000  H
  H40      1.0000 0.91670  0.41960  0.56610  Biso   1.000  H
  C49      1.0000 0.01980  0.99510  0.03794  Biso   1.000  C
  C50      1.0000 0.98020  0.49510  0.46206  Biso   1.000  C
  C51      1.0000 0.98020  0.00490  0.96206  Biso   1.000  C
  C52      1.0000 0.01980  0.50490  0.53794  Biso   1.000  C
  C53      1.0000 0.10460  0.93900  0.06620  Biso   1.000  C
  C54      1.0000 0.89540  0.43900  0.43380  Biso   1.000  C
  C55      1.0000 0.89540  0.06100  0.93380  Biso   1.000  C
  C56      1.0000 0.10460  0.56100  0.56620  Biso   1.000  C
  H41      1.0000 0.13650  0.90490  0.03750  Biso   1.000  H
  H42      1.0000 0.86350  0.40490  0.46250  Biso   1.000  H
  H43      1.0000 0.86350  0.09510  0.96250  Biso   1.000  H
  H44      1.0000 0.13650  0.59510  0.53750  Biso   1.000  H
  C57      1.0000 0.14160  0.93360  0.13620  Biso   1.000  C
  C58      1.0000 0.85840  0.43360  0.36380  Biso   1.000  C
  C59      1.0000 0.85840  0.06640  0.86380  Biso   1.000  C
  C60      1.0000 0.14160  0.56640  0.63620  Biso   1.000  C
  H45      1.0000 0.19860  0.89470  0.15430  Biso   1.000  H
  H46      1.0000 0.80140  0.39470  0.34570  Biso   1.000  H
  H47      1.0000 0.80140  0.10530  0.84570  Biso   1.000  H
  H48      1.0000 0.19860  0.60530  0.65430  Biso   1.000  H
  C61      1.0000 0.97920  0.07880  0.35271  Biso   1.000  C
  C62      1.0000 0.02080  0.57880  0.14729  Biso   1.000  C
  C63      1.0000 0.02080  0.92120  0.64729  Biso   1.000  C
  C64      1.0000 0.97920  0.42120  0.85271  Biso   1.000  C
  C65      1.0000 0.87690  0.07280  0.38190  Biso   1.000  C
  C66      1.0000 0.12310  0.57280  0.11810  Biso   1.000  C
  C67      1.0000 0.12310  0.92720  0.61810  Biso   1.000  C
  C68      1.0000 0.87690  0.42720  0.88190  Biso   1.000  C
  H49      1.0000 0.86340  0.02730  0.40490  Biso   1.000  H
  H50      1.0000 0.13660  0.52730  0.09510  Biso   1.000  H
  H51      1.0000 0.13660  0.97270  0.59510  Biso   1.000  H
  H52      1.0000 0.86340  0.47270  0.90490  Biso   1.000  H
  C69      1.0000 0.79420  0.13340  0.37750  Biso   1.000  C
  C70      1.0000 0.20580  0.63340  0.12250  Biso   1.000  C
  C71      1.0000 0.20580  0.86660  0.62250  Biso   1.000  C
  C72      1.0000 0.79420  0.36660  0.87750  Biso   1.000  C
  H53      1.0000 0.72520  0.12930  0.39800  Biso   1.000  H
  H54      1.0000 0.27480  0.62930  0.10200  Biso   1.000  H
  H55      1.0000 0.27480  0.87070  0.60200  Biso   1.000  H
  H56      1.0000 0.72520  0.37070  0.89800  Biso   1.000  H
  C73      1.0000 0.81290  0.19940  0.34310  Biso   1.000  C
  C74      1.0000 0.18710  0.69940  0.15690  Biso   1.000  C
  C75      1.0000 0.18710  0.80060  0.65690  Biso   1.000  C
  C76      1.0000 0.81290  0.30060  0.84310  Biso   1.000  C
  H57      1.0000 0.75710  0.24080  0.34050  Biso   1.000  H
  H58      1.0000 0.24290  0.74080  0.15950  Biso   1.000  H
  H59      1.0000 0.24290  0.75920  0.65950  Biso   1.000  H
  H60      1.0000 0.75710  0.25920  0.84050  Biso   1.000  H
  C77      1.0000 0.91220  0.20540  0.31240  Biso   1.000  C
  C78      1.0000 0.08780  0.70540  0.18760  Biso   1.000  C
  C79      1.0000 0.08780  0.79460  0.68760  Biso   1.000  C
  C80      1.0000 0.91220  0.29460  0.81240  Biso   1.000  C
  H61      1.0000 0.92410  0.25050  0.28840  Biso   1.000  H
  H62      1.0000 0.07590  0.75050  0.21160  Biso   1.000  H
  H63      1.0000 0.07590  0.74950  0.71160  Biso   1.000  H
  H64      1.0000 0.92410  0.24950  0.78840  Biso   1.000  H
  C81      1.0000 0.99490  0.14510  0.31690  Biso   1.000  C
  C82      1.0000 0.00510  0.64510  0.18310  Biso   1.000  C
  C83      1.0000 0.00510  0.85490  0.68310  Biso   1.000  C
  C84      1.0000 0.99490  0.35490  0.81690  Biso   1.000  C
  H65      1.0000 0.06250  0.14910  0.29530  Biso   1.000  H
  H66      1.0000 0.93750  0.64910  0.20470  Biso   1.000  H
  H67      1.0000 0.93750  0.85090  0.70470  Biso   1.000  H
  H68      1.0000 0.06250  0.35090  0.79530  Biso   1.000  H
  C85      1.0000 0.02210  0.91410  0.37140  Biso   1.000  C
  C86      1.0000 0.97790  0.41410  0.12860  Biso   1.000  C
  C87      1.0000 0.97790  0.08590  0.62860  Biso   1.000  C
  C88      1.0000 0.02210  0.58590  0.87140  Biso   1.000  C
  C89      1.0000 0.05610  0.86570  0.42720  Biso   1.000  C
  C90      1.0000 0.94390  0.36570  0.07280  Biso   1.000  C
  C91      1.0000 0.94390  0.13430  0.57280  Biso   1.000  C
  C92      1.0000 0.05610  0.63430  0.92720  Biso   1.000  C
  H69      1.0000 0.11320  0.88270  0.46640  Biso   1.000  H
  H70      1.0000 0.88680  0.38270  0.03360  Biso   1.000  H
  H71      1.0000 0.88680  0.11730  0.53360  Biso   1.000  H
  H72      1.0000 0.11320  0.61730  0.96640  Biso   1.000  H
  C93      1.0000 0.00690  0.79240  0.42590  Biso   1.000  C
  C94      1.0000 0.99310  0.29240  0.07410  Biso   1.000  C
  C95      1.0000 0.99310  0.20760  0.57410  Biso   1.000  C
  C96      1.0000 0.00690  0.70760  0.92590  Biso   1.000  C
  H73      1.0000 0.03150  0.75980  0.46410  Biso   1.000  H
  H74      1.0000 0.96850  0.25980  0.03590  Biso   1.000  H
  H75      1.0000 0.96850  0.24020  0.53590  Biso   1.000  H
  H76      1.0000 0.03150  0.74020  0.96410  Biso   1.000  H
  C97      1.0000 0.92270  0.76690  0.36970  Biso   1.000  C
  C98      1.0000 0.07730  0.26690  0.13030  Biso   1.000  C
  C99      1.0000 0.07730  0.23310  0.63030  Biso   1.000  C
  C100     1.0000 0.92270  0.73310  0.86970  Biso   1.000  C
  H77      1.0000 0.89020  0.71670  0.36890  Biso   1.000  H
  H78      1.0000 0.10980  0.21670  0.13110  Biso   1.000  H
  H79      1.0000 0.10980  0.28330  0.63110  Biso   1.000  H
  H80      1.0000 0.89020  0.78330  0.86890  Biso   1.000  H
  C101     1.0000 0.88630  0.81500  0.31450  Biso   1.000  C
  C102     1.0000 0.11370  0.31500  0.18550  Biso   1.000  C
  C103     1.0000 0.11370  0.18500  0.68550  Biso   1.000  C
  C104     1.0000 0.88630  0.68500  0.81450  Biso   1.000  C
  H81      1.0000 0.82690  0.79820  0.27620  Biso   1.000  H
  H82      1.0000 0.17310  0.29820  0.22380  Biso   1.000  H
  H83      1.0000 0.17310  0.20180  0.72380  Biso   1.000  H
  H84      1.0000 0.82690  0.70180  0.77620  Biso   1.000  H
  C105     1.0000 0.93600  0.88800  0.31470  Biso   1.000  C
  C106     1.0000 0.06400  0.38800  0.18530  Biso   1.000  C
  C107     1.0000 0.06400  0.11200  0.68530  Biso   1.000  C
  C108     1.0000 0.93600  0.61200  0.81470  Biso   1.000  C
  H85      1.0000 0.91150  0.92010  0.27610  Biso   1.000  H
  H86      1.0000 0.08850  0.42010  0.22390  Biso   1.000  H
  H87      1.0000 0.08850  0.07990  0.72390  Biso   1.000  H
  H88      1.0000 0.91150  0.57990  0.77610  Biso   1.000  H
  C109     1.0000 0.19710  0.02690  0.44642  Biso   1.000  C
  C110     1.0000 0.80290  0.52690  0.05358  Biso   1.000  C
  C111     1.0000 0.80290  0.97310  0.55358  Biso   1.000  C
  C112     1.0000 0.19710  0.47310  0.94642  Biso   1.000  C
  C113     1.0000 0.29750  0.97890  0.47130  Biso   1.000  C
  C114     1.0000 0.70250  0.47890  0.02870  Biso   1.000  C
  C115     1.0000 0.70250  0.02110  0.52870  Biso   1.000  C
  C116     1.0000 0.29750  0.52110  0.97130  Biso   1.000  C
  H89      1.0000 0.31100  0.93520  0.44580  Biso   1.000  H
  H90      1.0000 0.68900  0.43520  0.05420  Biso   1.000  H
  H91      1.0000 0.68900  0.06480  0.55420  Biso   1.000  H
  H92      1.0000 0.31100  0.56480  0.94580  Biso   1.000  H
  C117     1.0000 0.37750  0.99500  0.53300  Biso   1.000  C
  C118     1.0000 0.62250  0.49500  0.96700  Biso   1.000  C
  C119     1.0000 0.62250  0.00500  0.46700  Biso   1.000  C
  C120     1.0000 0.37750  0.50500  0.03300  Biso   1.000  C
  H93      1.0000 0.44310  0.96120  0.55070  Biso   1.000  H
  H94      1.0000 0.55690  0.46120  0.94930  Biso   1.000  H
  H95      1.0000 0.55690  0.03880  0.44930  Biso   1.000  H
  H96      1.0000 0.44310  0.53880  0.05070  Biso   1.000  H
  C121     1.0000 0.36080  0.06080  0.56850  Biso   1.000  C
  C122     1.0000 0.63920  0.56080  0.93150  Biso   1.000  C
  C123     1.0000 0.63920  0.93920  0.43150  Biso   1.000  C
  C124     1.0000 0.36080  0.43920  0.06850  Biso   1.000  C
  H97      1.0000 0.41640  0.07270  0.61000  Biso   1.000  H
  H98      1.0000 0.58360  0.57270  0.89000  Biso   1.000  H
  H99      1.0000 0.58360  0.92730  0.39000  Biso   1.000  H
  H100     1.0000 0.41640  0.42730  0.11000  Biso   1.000  H
  C125     1.0000 0.26380  0.10890  0.54380  Biso   1.000  C
  C126     1.0000 0.73620  0.60890  0.95620  Biso   1.000  C
  C127     1.0000 0.73620  0.89110  0.45620  Biso   1.000  C
  C128     1.0000 0.26380  0.39110  0.04380  Biso   1.000  C
  H101     1.0000 0.25340  0.15390  0.56830  Biso   1.000  H
  H102     1.0000 0.74660  0.65390  0.93170  Biso   1.000  H
  H103     1.0000 0.74660  0.84610  0.43170  Biso   1.000  H
  H104     1.0000 0.25340  0.34610  0.06830  Biso   1.000  H
  C129     1.0000 0.18100  0.09230  0.48330  Biso   1.000  C
  C130     1.0000 0.81900  0.59230  0.01670  Biso   1.000  C
  C131     1.0000 0.81900  0.90770  0.51670  Biso   1.000  C
  C132     1.0000 0.18100  0.40770  0.98330  Biso   1.000  C
  H105     1.0000 0.11370  0.12530  0.46720  Biso   1.000  H
  H106     1.0000 0.88630  0.62530  0.03280  Biso   1.000  H
  H107     1.0000 0.88630  0.87470  0.53280  Biso   1.000  H
  H108     1.0000 0.11370  0.37470  0.96720  Biso   1.000  H
  Cl1      1.0000 0.63495  0.21793  0.99952  Biso   1.000  Cl
  Cl2      1.0000 0.36505  0.71793  0.50048  Biso   1.000  Cl
  Cl3      1.0000 0.36505  0.78207  0.00048  Biso   1.000  Cl
  Cl4      1.0000 0.63495  0.28207  0.49952  Biso   1.000  Cl
  O1       1.0000 0.53500  0.19380  0.02930  Biso   1.000  O
  O2       1.0000 0.46500  0.69380  0.47070  Biso   1.000  O
  O3       1.0000 0.46500  0.80620  0.97070  Biso   1.000  O
  O4       1.0000 0.53500  0.30620  0.52930  Biso   1.000  O
  O5       1.0000 0.74110  0.17900  0.03540  Biso   1.000  O
  O6       1.0000 0.25890  0.67900  0.46460  Biso   1.000  O
  O7       1.0000 0.25890  0.82100  0.96460  Biso   1.000  O
  O8       1.0000 0.74110  0.32100  0.53540  Biso   1.000  O
  O9       1.0000 0.61600  0.19590  0.93020  Biso   1.000  O
  O10      1.0000 0.38400  0.69590  0.56980  Biso   1.000  O
  O11      1.0000 0.38400  0.80410  0.06980  Biso   1.000  O
  O12      1.0000 0.61600  0.30410  0.43020  Biso   1.000  O
  O13      1.0000 0.65300  0.29710  0.00620  Biso   1.000  O
  O14      1.0000 0.34700  0.79710  0.49380  Biso   1.000  O
  O15      1.0000 0.34700  0.70290  0.99380  Biso   1.000  O
  O16      1.0000 0.65300  0.20290  0.50620  Biso   1.000  O
  C133     1.0000 0.62790  0.03270  0.10870  Biso   1.000  C
  C134     1.0000 0.37210  0.53270  0.39130  Biso   1.000  C
  C135     1.0000 0.37210  0.96730  0.89130  Biso   1.000  C
  C136     1.0000 0.62790  0.46730  0.60870  Biso   1.000  C
  H109     1.0000 0.60560  0.08270  0.08640  Biso   1.000  H
  H110     1.0000 0.39440  0.58270  0.41360  Biso   1.000  H
  H111     1.0000 0.39440  0.91730  0.91360  Biso   1.000  H
  H112     1.0000 0.60560  0.41730  0.58640  Biso   1.000  H
  H113     1.0000 0.69260  0.00970  0.08820  Biso   1.000  H
  H114     1.0000 0.30740  0.50970  0.41180  Biso   1.000  H
  H115     1.0000 0.30740  0.99030  0.91180  Biso   1.000  H
  H116     1.0000 0.69260  0.49030  0.58820  Biso   1.000  H
  Cl5      1.0000 0.50040  0.97401  0.09349  Biso   1.000  Cl
  Cl6      1.0000 0.49960  0.47401  0.40651  Biso   1.000  Cl
  Cl7      1.0000 0.49960  0.02599  0.90651  Biso   1.000  Cl
  Cl8      1.0000 0.50040  0.52599  0.59349  Biso   1.000  Cl
  Cl9      1.0000 0.68580  0.04713  0.19609  Biso   1.000  Cl
  Cl10     1.0000 0.31420  0.54713  0.30391  Biso   1.000  Cl
  Cl11     1.0000 0.31420  0.95287  0.80391  Biso   1.000  Cl
  Cl12     1.0000 0.68580  0.45287  0.69609  Biso   1.000  Cl
  C137     1.0000 0.73360  0.81130  0.05580  Biso   1.000  C
  C138     1.0000 0.26640  0.31130  0.44420  Biso   1.000  C
  C139     1.0000 0.26640  0.18870  0.94420  Biso   1.000  C
  C140     1.0000 0.73360  0.68870  0.55580  Biso   1.000  C
  H117     1.0000 0.75080  0.75620  0.05210  Biso   1.000  H
  H118     1.0000 0.24920  0.25620  0.44790  Biso   1.000  H
  H119     1.0000 0.24920  0.24380  0.94790  Biso   1.000  H
  H120     1.0000 0.75080  0.74380  0.55210  Biso   1.000  H
  H121     1.0000 0.64380  0.81730  0.05050  Biso   1.000  H
  H122     1.0000 0.35620  0.31730  0.44950  Biso   1.000  H
  H123     1.0000 0.35620  0.18270  0.94950  Biso   1.000  H
  H124     1.0000 0.64380  0.68270  0.55050  Biso   1.000  H
  Cl13     1.0000 0.80510  0.84282  0.13518  Biso   1.000  Cl
  Cl14     1.0000 0.19490  0.34282  0.36482  Biso   1.000  Cl
  Cl15     1.0000 0.19490  0.15718  0.86482  Biso   1.000  Cl
  Cl16     1.0000 0.80510  0.65718  0.63518  Biso   1.000  Cl
  Cl17     1.0000 0.77940  0.85910  0.99110  Biso   1.000  Cl
  Cl18     1.0000 0.22060  0.35910  0.50890  Biso   1.000  Cl
  Cl19     1.0000 0.22060  0.14090  0.00890  Biso   1.000  Cl
  Cl20     1.0000 0.77940  0.64090  0.49110  Biso   1.000  Cl
