data_image0
_cell_length_a       19.034
_cell_length_b       16.284
_cell_length_c       17.279
_cell_angle_alpha    90
_cell_angle_beta     92.493
_cell_angle_gamma    90

_symmetry_space_group_name_H-M    "P 1"
_symmetry_int_tables_number       1

loop_
  _symmetry_equiv_pos_as_xyz
  'x, y, z'

loop_
  _atom_site_label
  _atom_site_occupancy
  _atom_site_fract_x
  _atom_site_fract_y
  _atom_site_fract_z
  _atom_site_thermal_displace_type
  _atom_site_B_iso_or_equiv
  _atom_site_type_symbol
  Cu1      1.0000 0.25725  0.86087  0.10756  Biso   1.000  Cu
  Cu2      1.0000 0.74275  0.36087  0.39244  Biso   1.000  Cu
  Cu3      1.0000 0.74275  0.13913  0.89244  Biso   1.000  Cu
  Cu4      1.0000 0.25725  0.63913  0.60756  Biso   1.000  Cu
  P1       1.0000 0.35930  0.91021  0.06191  Biso   1.000  P
  P2       1.0000 0.64070  0.41021  0.43809  Biso   1.000  P
  P3       1.0000 0.64070  0.08979  0.93809  Biso   1.000  P
  P4       1.0000 0.35930  0.58979  0.56191  Biso   1.000  P
  P5       1.0000 0.14993  0.90420  0.06169  Biso   1.000  P
  P6       1.0000 0.85007  0.40420  0.43831  Biso   1.000  P
  P7       1.0000 0.85007  0.09580  0.93831  Biso   1.000  P
  P8       1.0000 0.14993  0.59580  0.56169  Biso   1.000  P
  N1       1.0000 0.26350  0.86810  0.22700  Biso   1.000  N
  N2       1.0000 0.73650  0.36810  0.27300  Biso   1.000  N
  N3       1.0000 0.73650  0.13190  0.77300  Biso   1.000  N
  N4       1.0000 0.26350  0.63190  0.72700  Biso   1.000  N
  N5       1.0000 0.26160  0.76650  0.58390  Biso   1.000  N
  N6       1.0000 0.73840  0.26650  0.91610  Biso   1.000  N
  N7       1.0000 0.73840  0.23350  0.41610  Biso   1.000  N
  N8       1.0000 0.26160  0.73350  0.08390  Biso   1.000  N
  C1       1.0000 0.22020  0.91410  0.26670  Biso   1.000  C
  C2       1.0000 0.77980  0.41410  0.23330  Biso   1.000  C
  C3       1.0000 0.77980  0.08590  0.73330  Biso   1.000  C
  C4       1.0000 0.22020  0.58590  0.76670  Biso   1.000  C
  H1       1.0000 0.18840  0.94820  0.23870  Biso   1.000  H
  H2       1.0000 0.81160  0.44820  0.26130  Biso   1.000  H
  H3       1.0000 0.81160  0.05180  0.76130  Biso   1.000  H
  H4       1.0000 0.18840  0.55180  0.73870  Biso   1.000  H
  C5       1.0000 0.21880  0.91520  0.34700  Biso   1.000  C
  C6       1.0000 0.78120  0.41520  0.15300  Biso   1.000  C
  C7       1.0000 0.78120  0.08480  0.65300  Biso   1.000  C
  C8       1.0000 0.21880  0.58480  0.84700  Biso   1.000  C
  H5       1.0000 0.18700  0.94930  0.37190  Biso   1.000  H
  H6       1.0000 0.81300  0.44930  0.12810  Biso   1.000  H
  H7       1.0000 0.81300  0.05070  0.62810  Biso   1.000  H
  H8       1.0000 0.18700  0.55070  0.87190  Biso   1.000  H
  C9       1.0000 0.26490  0.86540  0.39000  Biso   1.000  C
  C10      1.0000 0.73510  0.36540  0.11000  Biso   1.000  C
  C11      1.0000 0.73510  0.13460  0.61000  Biso   1.000  C
  C12      1.0000 0.26490  0.63460  0.89000  Biso   1.000  C
  C13      1.0000 0.31090  0.81780  0.34930  Biso   1.000  C
  C14      1.0000 0.68910  0.31780  0.15070  Biso   1.000  C
  C15      1.0000 0.68910  0.18220  0.65070  Biso   1.000  C
  C16      1.0000 0.31090  0.68220  0.84930  Biso   1.000  C
  H9       1.0000 0.34390  0.78380  0.37570  Biso   1.000  H
  H10      1.0000 0.65610  0.28380  0.12430  Biso   1.000  H
  H11      1.0000 0.65610  0.21620  0.62430  Biso   1.000  H
  H12      1.0000 0.34390  0.71620  0.87570  Biso   1.000  H
  C17      1.0000 0.30780  0.82100  0.26930  Biso   1.000  C
  C18      1.0000 0.69220  0.32100  0.23070  Biso   1.000  C
  C19      1.0000 0.69220  0.17900  0.73070  Biso   1.000  C
  C20      1.0000 0.30780  0.67900  0.76930  Biso   1.000  C
  H13      1.0000 0.33900  0.78760  0.24290  Biso   1.000  H
  H14      1.0000 0.66100  0.28760  0.25710  Biso   1.000  H
  H15      1.0000 0.66100  0.21240  0.75710  Biso   1.000  H
  H16      1.0000 0.33900  0.71240  0.74290  Biso   1.000  H
  C21      1.0000 0.26110  0.85790  0.47410  Biso   1.000  C
  C22      1.0000 0.73890  0.35790  0.02590  Biso   1.000  C
  C23      1.0000 0.73890  0.14210  0.52590  Biso   1.000  C
  C24      1.0000 0.26110  0.64210  0.97410  Biso   1.000  C
  C25      1.0000 0.24740  0.92400  0.52290  Biso   1.000  C
  C26      1.0000 0.75260  0.42400  0.97710  Biso   1.000  C
  C27      1.0000 0.75260  0.07600  0.47710  Biso   1.000  C
  C28      1.0000 0.24740  0.57600  0.02290  Biso   1.000  C
  H17      1.0000 0.24210  0.97740  0.50290  Biso   1.000  H
  H18      1.0000 0.75790  0.47740  0.99710  Biso   1.000  H
  H19      1.0000 0.75790  0.02260  0.49710  Biso   1.000  H
  H20      1.0000 0.24210  0.52260  0.00290  Biso   1.000  H
  C29      1.0000 0.24190  0.90960  0.60020  Biso   1.000  C
  C30      1.0000 0.75810  0.40960  0.89980  Biso   1.000  C
  C31      1.0000 0.75810  0.09040  0.39980  Biso   1.000  C
  C32      1.0000 0.24190  0.59040  0.10020  Biso   1.000  C
  H21      1.0000 0.23400  0.95360  0.63390  Biso   1.000  H
  H22      1.0000 0.76600  0.45360  0.86610  Biso   1.000  H
  H23      1.0000 0.76600  0.04640  0.36610  Biso   1.000  H
  H24      1.0000 0.23400  0.54640  0.13390  Biso   1.000  H
  C33      1.0000 0.24780  0.83170  0.62880  Biso   1.000  C
  C34      1.0000 0.75220  0.33170  0.87120  Biso   1.000  C
  C35      1.0000 0.75220  0.16830  0.37120  Biso   1.000  C
  C36      1.0000 0.24780  0.66830  0.12880  Biso   1.000  C
  H25      1.0000 0.24210  0.82320  0.68190  Biso   1.000  H
  H26      1.0000 0.75790  0.32320  0.81810  Biso   1.000  H
  H27      1.0000 0.75790  0.17680  0.31810  Biso   1.000  H
  H28      1.0000 0.24210  0.67680  0.18190  Biso   1.000  H
  C37      1.0000 0.26830  0.78170  0.50860  Biso   1.000  C
  C38      1.0000 0.73170  0.28170  0.99140  Biso   1.000  C
  C39      1.0000 0.73170  0.21830  0.49140  Biso   1.000  C
  C40      1.0000 0.26830  0.71830  0.00860  Biso   1.000  C
  H29      1.0000 0.27870  0.73700  0.47660  Biso   1.000  H
  H30      1.0000 0.72130  0.23700  0.02340  Biso   1.000  H
  H31      1.0000 0.72130  0.26300  0.52340  Biso   1.000  H
  H32      1.0000 0.27870  0.76300  0.97660  Biso   1.000  H
  C41      1.0000 0.43870  0.86770  0.11040  Biso   1.000  C
  C42      1.0000 0.56130  0.36770  0.38960  Biso   1.000  C
  C43      1.0000 0.56130  0.13230  0.88960  Biso   1.000  C
  C44      1.0000 0.43870  0.63230  0.61040  Biso   1.000  C
  C45      1.0000 0.49520  0.91600  0.13520  Biso   1.000  C
  C46      1.0000 0.50480  0.41600  0.36480  Biso   1.000  C
  C47      1.0000 0.50480  0.08400  0.86480  Biso   1.000  C
  C48      1.0000 0.49520  0.58400  0.63520  Biso   1.000  C
  H33      1.0000 0.49310  0.97320  0.12840  Biso   1.000  H
  H34      1.0000 0.50690  0.47320  0.37160  Biso   1.000  H
  H35      1.0000 0.50690  0.02680  0.87160  Biso   1.000  H
  H36      1.0000 0.49310  0.52680  0.62840  Biso   1.000  H
  C49      1.0000 0.55450  0.88110  0.16970  Biso   1.000  C
  C50      1.0000 0.44550  0.38110  0.33030  Biso   1.000  C
  C51      1.0000 0.44550  0.11890  0.83030  Biso   1.000  C
  C52      1.0000 0.55450  0.61890  0.66970  Biso   1.000  C
  H37      1.0000 0.59270  0.91440  0.18580  Biso   1.000  H
  H38      1.0000 0.40730  0.41440  0.31420  Biso   1.000  H
  H39      1.0000 0.40730  0.08560  0.81420  Biso   1.000  H
  H40      1.0000 0.59270  0.58560  0.68580  Biso   1.000  H
  C53      1.0000 0.55750  0.79790  0.18040  Biso   1.000  C
  C54      1.0000 0.44250  0.29790  0.31960  Biso   1.000  C
  C55      1.0000 0.44250  0.20210  0.81960  Biso   1.000  C
  C56      1.0000 0.55750  0.70210  0.68040  Biso   1.000  C
  H41      1.0000 0.59780  0.77450  0.20480  Biso   1.000  H
  H42      1.0000 0.40220  0.27450  0.29520  Biso   1.000  H
  H43      1.0000 0.40220  0.22550  0.79520  Biso   1.000  H
  H44      1.0000 0.59780  0.72550  0.70480  Biso   1.000  H
  C57      1.0000 0.50250  0.74790  0.15600  Biso   1.000  C
  C58      1.0000 0.49750  0.24790  0.34400  Biso   1.000  C
  C59      1.0000 0.49750  0.25210  0.84400  Biso   1.000  C
  C60      1.0000 0.50250  0.75210  0.65600  Biso   1.000  C
  H45      1.0000 0.50540  0.69080  0.16320  Biso   1.000  H
  H46      1.0000 0.49460  0.19080  0.33680  Biso   1.000  H
  H47      1.0000 0.49460  0.30920  0.83680  Biso   1.000  H
  H48      1.0000 0.50540  0.80920  0.66320  Biso   1.000  H
  C61      1.0000 0.44270  0.78280  0.12060  Biso   1.000  C
  C62      1.0000 0.55730  0.28280  0.37940  Biso   1.000  C
  C63      1.0000 0.55730  0.21720  0.87940  Biso   1.000  C
  C64      1.0000 0.44270  0.71720  0.62060  Biso   1.000  C
  H49      1.0000 0.40500  0.74920  0.10350  Biso   1.000  H
  H50      1.0000 0.59500  0.24920  0.39650  Biso   1.000  H
  H51      1.0000 0.59500  0.25080  0.89650  Biso   1.000  H
  H52      1.0000 0.40500  0.75080  0.60350  Biso   1.000  H
  C65      1.0000 0.36740  0.01980  0.07810  Biso   1.000  C
  C66      1.0000 0.63260  0.51980  0.42190  Biso   1.000  C
  C67      1.0000 0.63260  0.98020  0.92190  Biso   1.000  C
  C68      1.0000 0.36740  0.48020  0.57810  Biso   1.000  C
  C69      1.0000 0.37690  0.07630  0.01850  Biso   1.000  C
  C70      1.0000 0.62310  0.57630  0.48150  Biso   1.000  C
  C71      1.0000 0.62310  0.92370  0.98150  Biso   1.000  C
  C72      1.0000 0.37690  0.42370  0.51850  Biso   1.000  C
  H53      1.0000 0.38370  0.05760  0.96790  Biso   1.000  H
  H54      1.0000 0.61630  0.55760  0.53210  Biso   1.000  H
  H55      1.0000 0.61630  0.94240  0.03210  Biso   1.000  H
  H56      1.0000 0.38370  0.44240  0.46790  Biso   1.000  H
  C73      1.0000 0.37630  0.16100  0.03410  Biso   1.000  C
  C74      1.0000 0.62370  0.66100  0.46590  Biso   1.000  C
  C75      1.0000 0.62370  0.83900  0.96590  Biso   1.000  C
  C76      1.0000 0.37630  0.33900  0.53410  Biso   1.000  C
  H57      1.0000 0.38360  0.19880  0.99420  Biso   1.000  H
  H58      1.0000 0.61640  0.69880  0.50580  Biso   1.000  H
  H59      1.0000 0.61640  0.80120  0.00580  Biso   1.000  H
  H60      1.0000 0.38360  0.30120  0.49420  Biso   1.000  H
  C77      1.0000 0.36490  0.18850  0.10780  Biso   1.000  C
  C78      1.0000 0.63510  0.68850  0.39220  Biso   1.000  C
  C79      1.0000 0.63510  0.81150  0.89220  Biso   1.000  C
  C80      1.0000 0.36490  0.31150  0.60780  Biso   1.000  C
  H61      1.0000 0.36340  0.24510  0.11790  Biso   1.000  H
  H62      1.0000 0.63660  0.74510  0.38210  Biso   1.000  H
  H63      1.0000 0.63660  0.75490  0.88210  Biso   1.000  H
  H64      1.0000 0.36340  0.25490  0.61790  Biso   1.000  H
  C81      1.0000 0.35590  0.13290  0.16710  Biso   1.000  C
  C82      1.0000 0.64410  0.63290  0.33290  Biso   1.000  C
  C83      1.0000 0.64410  0.86710  0.83290  Biso   1.000  C
  C84      1.0000 0.35590  0.36710  0.66710  Biso   1.000  C
  H65      1.0000 0.34970  0.15180  0.21780  Biso   1.000  H
  H66      1.0000 0.65030  0.65180  0.28220  Biso   1.000  H
  H67      1.0000 0.65030  0.84820  0.78220  Biso   1.000  H
  H68      1.0000 0.34970  0.34820  0.71780  Biso   1.000  H
  C85      1.0000 0.35580  0.04940  0.15170  Biso   1.000  C
  C86      1.0000 0.64420  0.54940  0.34830  Biso   1.000  C
  C87      1.0000 0.64420  0.95060  0.84830  Biso   1.000  C
  C88      1.0000 0.35580  0.45060  0.65170  Biso   1.000  C
  H69      1.0000 0.34780  0.01210  0.19190  Biso   1.000  H
  H70      1.0000 0.65220  0.51210  0.30810  Biso   1.000  H
  H71      1.0000 0.65220  0.98790  0.80810  Biso   1.000  H
  H72      1.0000 0.34780  0.48790  0.69190  Biso   1.000  H
  C89      1.0000 0.37410  0.89780  0.95950  Biso   1.000  C
  C90      1.0000 0.62590  0.39780  0.54050  Biso   1.000  C
  C91      1.0000 0.62590  0.10220  0.04050  Biso   1.000  C
  C92      1.0000 0.37410  0.60220  0.45950  Biso   1.000  C
  C93      1.0000 0.32160  0.92290  0.90560  Biso   1.000  C
  C94      1.0000 0.67840  0.42290  0.59440  Biso   1.000  C
  C95      1.0000 0.67840  0.07710  0.09440  Biso   1.000  C
  C96      1.0000 0.32160  0.57710  0.40560  Biso   1.000  C
  H73      1.0000 0.27920  0.94390  0.92320  Biso   1.000  H
  H74      1.0000 0.72080  0.44390  0.57680  Biso   1.000  H
  H75      1.0000 0.72080  0.05610  0.07680  Biso   1.000  H
  H76      1.0000 0.27920  0.55610  0.42320  Biso   1.000  H
  C97      1.0000 0.33080  0.91760  0.82700  Biso   1.000  C
  C98      1.0000 0.66920  0.41760  0.67300  Biso   1.000  C
  C99      1.0000 0.66920  0.08240  0.17300  Biso   1.000  C
  C100     1.0000 0.33080  0.58240  0.32700  Biso   1.000  C
  H77      1.0000 0.29570  0.93720  0.79180  Biso   1.000  H
  H78      1.0000 0.70430  0.43720  0.70820  Biso   1.000  H
  H79      1.0000 0.70430  0.06280  0.20820  Biso   1.000  H
  H80      1.0000 0.29570  0.56280  0.29180  Biso   1.000  H
  C101     1.0000 0.39150  0.88350  0.80010  Biso   1.000  C
  C102     1.0000 0.60850  0.38350  0.69990  Biso   1.000  C
  C103     1.0000 0.60850  0.11650  0.19990  Biso   1.000  C
  C104     1.0000 0.39150  0.61650  0.30010  Biso   1.000  C
  H81      1.0000 0.39750  0.87950  0.74650  Biso   1.000  H
  H82      1.0000 0.60250  0.37950  0.75350  Biso   1.000  H
  H83      1.0000 0.60250  0.12050  0.25350  Biso   1.000  H
  H84      1.0000 0.39750  0.62050  0.24650  Biso   1.000  H
  C105     1.0000 0.44340  0.85520  0.85170  Biso   1.000  C
  C106     1.0000 0.55660  0.35520  0.64830  Biso   1.000  C
  C107     1.0000 0.55660  0.14480  0.14830  Biso   1.000  C
  C108     1.0000 0.44340  0.64480  0.35170  Biso   1.000  C
  H85      1.0000 0.48400  0.83030  0.83330  Biso   1.000  H
  H86      1.0000 0.51600  0.33030  0.66670  Biso   1.000  H
  H87      1.0000 0.51600  0.16970  0.16670  Biso   1.000  H
  H88      1.0000 0.48400  0.66970  0.33330  Biso   1.000  H
  C109     1.0000 0.43560  0.86380  0.93120  Biso   1.000  C
  C110     1.0000 0.56440  0.36380  0.56880  Biso   1.000  C
  C111     1.0000 0.56440  0.13620  0.06880  Biso   1.000  C
  C112     1.0000 0.43560  0.63620  0.43120  Biso   1.000  C
  H89      1.0000 0.47180  0.84650  0.96620  Biso   1.000  H
  H90      1.0000 0.52820  0.34650  0.53380  Biso   1.000  H
  H91      1.0000 0.52820  0.15350  0.03380  Biso   1.000  H
  H92      1.0000 0.47180  0.65350  0.46620  Biso   1.000  H
  C113     1.0000 0.07540  0.84290  0.08920  Biso   1.000  C
  C114     1.0000 0.92460  0.34290  0.41080  Biso   1.000  C
  C115     1.0000 0.92460  0.15710  0.91080  Biso   1.000  C
  C116     1.0000 0.07540  0.65710  0.58920  Biso   1.000  C
  C117     1.0000 0.08050  0.79390  0.15340  Biso   1.000  C
  C118     1.0000 0.91950  0.29390  0.34660  Biso   1.000  C
  C119     1.0000 0.91950  0.20610  0.84660  Biso   1.000  C
  C120     1.0000 0.08050  0.70610  0.65340  Biso   1.000  C
  H93      1.0000 0.12410  0.78790  0.18050  Biso   1.000  H
  H94      1.0000 0.87590  0.28790  0.31950  Biso   1.000  H
  H95      1.0000 0.87590  0.21210  0.81950  Biso   1.000  H
  H96      1.0000 0.12410  0.71210  0.68050  Biso   1.000  H
  C121     1.0000 0.02300  0.75340  0.17870  Biso   1.000  C
  C122     1.0000 0.97700  0.25340  0.32130  Biso   1.000  C
  C123     1.0000 0.97700  0.24660  0.82130  Biso   1.000  C
  C124     1.0000 0.02300  0.74660  0.67870  Biso   1.000  C
  H97      1.0000 0.02700  0.72260  0.22460  Biso   1.000  H
  H98      1.0000 0.97300  0.22260  0.27540  Biso   1.000  H
  H99      1.0000 0.97300  0.27740  0.77540  Biso   1.000  H
  H100     1.0000 0.02700  0.77740  0.72460  Biso   1.000  H
  C125     1.0000 0.96070  0.75690  0.13890  Biso   1.000  C
  C126     1.0000 0.03930  0.25690  0.36110  Biso   1.000  C
  C127     1.0000 0.03930  0.24310  0.86110  Biso   1.000  C
  C128     1.0000 0.96070  0.74310  0.63890  Biso   1.000  C
  H101     1.0000 0.92210  0.72720  0.15630  Biso   1.000  H
  H102     1.0000 0.07790  0.22720  0.34370  Biso   1.000  H
  H103     1.0000 0.07790  0.27280  0.84370  Biso   1.000  H
  H104     1.0000 0.92210  0.77280  0.65630  Biso   1.000  H
  C129     1.0000 0.95360  0.80330  0.07350  Biso   1.000  C
  C130     1.0000 0.04640  0.30330  0.42650  Biso   1.000  C
  C131     1.0000 0.04640  0.19670  0.92650  Biso   1.000  C
  C132     1.0000 0.95360  0.69670  0.57350  Biso   1.000  C
  H105     1.0000 0.91010  0.80560  0.04570  Biso   1.000  H
  H106     1.0000 0.08990  0.30560  0.45430  Biso   1.000  H
  H107     1.0000 0.08990  0.19440  0.95430  Biso   1.000  H
  H108     1.0000 0.91010  0.69440  0.54570  Biso   1.000  H
  C133     1.0000 0.01030  0.84710  0.04820  Biso   1.000  C
  C134     1.0000 0.98970  0.34710  0.45180  Biso   1.000  C
  C135     1.0000 0.98970  0.15290  0.95180  Biso   1.000  C
  C136     1.0000 0.01030  0.65290  0.54820  Biso   1.000  C
  H109     1.0000 0.00520  0.87980  0.00350  Biso   1.000  H
  H110     1.0000 0.99480  0.37980  0.49650  Biso   1.000  H
  H111     1.0000 0.99480  0.12020  0.99650  Biso   1.000  H
  H112     1.0000 0.00520  0.62020  0.50350  Biso   1.000  H
  C137     1.0000 0.12910  0.00730  0.09350  Biso   1.000  C
  C138     1.0000 0.87090  0.50730  0.40650  Biso   1.000  C
  C139     1.0000 0.87090  0.99270  0.90650  Biso   1.000  C
  C140     1.0000 0.12910  0.49270  0.59350  Biso   1.000  C
  C141     1.0000 0.06710  0.02730  0.12820  Biso   1.000  C
  C142     1.0000 0.93290  0.52730  0.37180  Biso   1.000  C
  C143     1.0000 0.93290  0.97270  0.87180  Biso   1.000  C
  C144     1.0000 0.06710  0.47270  0.62820  Biso   1.000  C
  H113     1.0000 0.03190  0.98730  0.13300  Biso   1.000  H
  H114     1.0000 0.96810  0.48730  0.36700  Biso   1.000  H
  H115     1.0000 0.96810  0.01270  0.86700  Biso   1.000  H
  H116     1.0000 0.03190  0.51270  0.63300  Biso   1.000  H
  C145     1.0000 0.05670  0.10600  0.15580  Biso   1.000  C
  C146     1.0000 0.94330  0.60600  0.34420  Biso   1.000  C
  C147     1.0000 0.94330  0.89400  0.84420  Biso   1.000  C
  C148     1.0000 0.05670  0.39400  0.65580  Biso   1.000  C
  H117     1.0000 0.01450  0.11850  0.17960  Biso   1.000  H
  H118     1.0000 0.98550  0.61850  0.32040  Biso   1.000  H
  H119     1.0000 0.98550  0.88150  0.82040  Biso   1.000  H
  H120     1.0000 0.01450  0.38150  0.67960  Biso   1.000  H
  C149     1.0000 0.10670  0.16630  0.14910  Biso   1.000  C
  C150     1.0000 0.89330  0.66630  0.35090  Biso   1.000  C
  C151     1.0000 0.89330  0.83370  0.85090  Biso   1.000  C
  C152     1.0000 0.10670  0.33370  0.64910  Biso   1.000  C
  H121     1.0000 0.09900  0.21950  0.16810  Biso   1.000  H
  H122     1.0000 0.90100  0.71950  0.33190  Biso   1.000  H
  H123     1.0000 0.90100  0.78050  0.83190  Biso   1.000  H
  H124     1.0000 0.09900  0.28050  0.66810  Biso   1.000  H
  C153     1.0000 0.16870  0.14720  0.11400  Biso   1.000  C
  C154     1.0000 0.83130  0.64720  0.38600  Biso   1.000  C
  C155     1.0000 0.83130  0.85280  0.88600  Biso   1.000  C
  C156     1.0000 0.16870  0.35280  0.61400  Biso   1.000  C
  H125     1.0000 0.20340  0.18760  0.10810  Biso   1.000  H
  H126     1.0000 0.79660  0.68760  0.39190  Biso   1.000  H
  H127     1.0000 0.79660  0.81240  0.89190  Biso   1.000  H
  H128     1.0000 0.20340  0.31240  0.60810  Biso   1.000  H
  C157     1.0000 0.17920  0.06900  0.08790  Biso   1.000  C
  C158     1.0000 0.82080  0.56900  0.41210  Biso   1.000  C
  C159     1.0000 0.82080  0.93100  0.91210  Biso   1.000  C
  C160     1.0000 0.17920  0.43100  0.58790  Biso   1.000  C
  H129     1.0000 0.22190  0.05650  0.06520  Biso   1.000  H
  H130     1.0000 0.77810  0.55650  0.43480  Biso   1.000  H
  H131     1.0000 0.77810  0.94350  0.93480  Biso   1.000  H
  H132     1.0000 0.22190  0.44350  0.56520  Biso   1.000  H
  C161     1.0000 0.13860  0.90630  0.95650  Biso   1.000  C
  C162     1.0000 0.86140  0.40630  0.54350  Biso   1.000  C
  C163     1.0000 0.86140  0.09370  0.04350  Biso   1.000  C
  C164     1.0000 0.13860  0.59370  0.45650  Biso   1.000  C
  C165     1.0000 0.13390  0.97840  0.91300  Biso   1.000  C
  C166     1.0000 0.86610  0.47840  0.58700  Biso   1.000  C
  C167     1.0000 0.86610  0.02160  0.08700  Biso   1.000  C
  C168     1.0000 0.13390  0.52160  0.41300  Biso   1.000  C
  H133     1.0000 0.13310  0.02960  0.93800  Biso   1.000  H
  H134     1.0000 0.86690  0.52960  0.56200  Biso   1.000  H
  H135     1.0000 0.86690  0.97040  0.06200  Biso   1.000  H
  H136     1.0000 0.13310  0.47040  0.43800  Biso   1.000  H
  C169     1.0000 0.13050  0.97440  0.83360  Biso   1.000  C
  C170     1.0000 0.86950  0.47440  0.66640  Biso   1.000  C
  C171     1.0000 0.86950  0.02560  0.16640  Biso   1.000  C
  C172     1.0000 0.13050  0.52560  0.33360  Biso   1.000  C
  H137     1.0000 0.12600  0.02330  0.80490  Biso   1.000  H
  H138     1.0000 0.87400  0.52330  0.69510  Biso   1.000  H
  H139     1.0000 0.87400  0.97670  0.19510  Biso   1.000  H
  H140     1.0000 0.12600  0.47670  0.30490  Biso   1.000  H
  C173     1.0000 0.13350  0.90080  0.79510  Biso   1.000  C
  C174     1.0000 0.86650  0.40080  0.70490  Biso   1.000  C
  C175     1.0000 0.86650  0.09920  0.20490  Biso   1.000  C
  C176     1.0000 0.13350  0.59920  0.29510  Biso   1.000  C
  H141     1.0000 0.13200  0.89950  0.74060  Biso   1.000  H
  H142     1.0000 0.86800  0.39950  0.75940  Biso   1.000  H
  H143     1.0000 0.86800  0.10050  0.25940  Biso   1.000  H
  H144     1.0000 0.13200  0.60050  0.24060  Biso   1.000  H
  C177     1.0000 0.13860  0.82810  0.83710  Biso   1.000  C
  C178     1.0000 0.86140  0.32810  0.66290  Biso   1.000  C
  C179     1.0000 0.86140  0.17190  0.16290  Biso   1.000  C
  C180     1.0000 0.13860  0.67190  0.33710  Biso   1.000  C
  H145     1.0000 0.14120  0.77730  0.81160  Biso   1.000  H
  H146     1.0000 0.85880  0.27730  0.68840  Biso   1.000  H
  H147     1.0000 0.85880  0.22270  0.18840  Biso   1.000  H
  H148     1.0000 0.14120  0.72270  0.31160  Biso   1.000  H
  C181     1.0000 0.13990  0.83170  0.91750  Biso   1.000  C
  C182     1.0000 0.86010  0.33170  0.58250  Biso   1.000  C
  C183     1.0000 0.86010  0.16830  0.08250  Biso   1.000  C
  C184     1.0000 0.13990  0.66830  0.41750  Biso   1.000  C
  H149     1.0000 0.14180  0.78260  0.94610  Biso   1.000  H
  H150     1.0000 0.85820  0.28260  0.55390  Biso   1.000  H
  H151     1.0000 0.85820  0.21740  0.05390  Biso   1.000  H
  H152     1.0000 0.14180  0.71740  0.44610  Biso   1.000  H
  Cl1      1.0000 0.24416  0.36221  0.24020  Biso   1.000  Cl
  Cl2      1.0000 0.75584  0.86221  0.25980  Biso   1.000  Cl
  Cl3      1.0000 0.75584  0.63779  0.75980  Biso   1.000  Cl
  Cl4      1.0000 0.24416  0.13779  0.74020  Biso   1.000  Cl
  O1       1.0000 0.27380  0.29070  0.22180  Biso   1.000  O
  O2       1.0000 0.72620  0.79070  0.27820  Biso   1.000  O
  O3       1.0000 0.72620  0.70930  0.77820  Biso   1.000  O
  O4       1.0000 0.27380  0.20930  0.72180  Biso   1.000  O
  O5       1.0000 0.27260  0.42870  0.21610  Biso   1.000  O
  O6       1.0000 0.72740  0.92870  0.28390  Biso   1.000  O
  O7       1.0000 0.72740  0.57130  0.78390  Biso   1.000  O
  O8       1.0000 0.27260  0.07130  0.71610  Biso   1.000  O
  O9       1.0000 0.17550  0.36300  0.21630  Biso   1.000  O
  O10      1.0000 0.82450  0.86300  0.28370  Biso   1.000  O
  O11      1.0000 0.82450  0.63700  0.78370  Biso   1.000  O
  O12      1.0000 0.17550  0.13700  0.71630  Biso   1.000  O
  O13      1.0000 0.25190  0.36920  0.32310  Biso   1.000  O
  O14      1.0000 0.74810  0.86920  0.17690  Biso   1.000  O
  O15      1.0000 0.74810  0.63080  0.67690  Biso   1.000  O
  O16      1.0000 0.25190  0.13080  0.82310  Biso   1.000  O
  Cl5      1.0000 0.79890  0.63120  0.17650  Biso   1.000  Cl
  Cl6      1.0000 0.20110  0.13120  0.32350  Biso   1.000  Cl
  Cl7      1.0000 0.20110  0.36880  0.82350  Biso   1.000  Cl
  Cl8      1.0000 0.79890  0.86880  0.67650  Biso   1.000  Cl
  Cl9      1.0000 0.78230  0.67270  0.01520  Biso   1.000  Cl
  Cl10     1.0000 0.21770  0.17270  0.48480  Biso   1.000  Cl
  Cl11     1.0000 0.21770  0.32730  0.98480  Biso   1.000  Cl
  Cl12     1.0000 0.78230  0.82730  0.51520  Biso   1.000  Cl
  Cl13     1.0000 0.66530  0.62380  0.09850  Biso   1.000  Cl
  Cl14     1.0000 0.33470  0.12380  0.40150  Biso   1.000  Cl
  Cl15     1.0000 0.33470  0.37620  0.90150  Biso   1.000  Cl
  Cl16     1.0000 0.66530  0.87620  0.59850  Biso   1.000  Cl
  C185     1.0000 0.74550  0.67560  0.10430  Biso   1.000  C
  C186     1.0000 0.25450  0.17560  0.39570  Biso   1.000  C
  C187     1.0000 0.25450  0.32440  0.89570  Biso   1.000  C
  C188     1.0000 0.74550  0.82440  0.60430  Biso   1.000  C
  H153     1.0000 0.73690  0.73360  0.11820  Biso   1.000  H
  H154     1.0000 0.26310  0.23360  0.38180  Biso   1.000  H
  H155     1.0000 0.26310  0.26640  0.88180  Biso   1.000  H
  H156     1.0000 0.73690  0.76640  0.61820  Biso   1.000  H
  Cl17     1.0000 0.46250  0.98980  0.33410  Biso   1.000  Cl
  Cl18     1.0000 0.53750  0.48980  0.16590  Biso   1.000  Cl
  Cl19     1.0000 0.53750  0.01020  0.66590  Biso   1.000  Cl
  Cl20     1.0000 0.46250  0.51020  0.83410  Biso   1.000  Cl
  Cl21     1.0000 0.50510  0.85710  0.43520  Biso   1.000  Cl
  Cl22     1.0000 0.49490  0.35710  0.06480  Biso   1.000  Cl
  Cl23     1.0000 0.49490  0.14290  0.56480  Biso   1.000  Cl
  Cl24     1.0000 0.50510  0.64290  0.93520  Biso   1.000  Cl
  Cl25     1.0000 0.58690  0.00230  0.41980  Biso   1.000  Cl
  Cl26     1.0000 0.41310  0.50230  0.08020  Biso   1.000  Cl
  Cl27     1.0000 0.41310  0.99770  0.58020  Biso   1.000  Cl
  Cl28     1.0000 0.58690  0.49770  0.91980  Biso   1.000  Cl
  C189     1.0000 0.55800  0.93460  0.37300  Biso   1.000  C
  C190     1.0000 0.44200  0.43460  0.12700  Biso   1.000  C
  C191     1.0000 0.44200  0.06540  0.62700  Biso   1.000  C
  C192     1.0000 0.55800  0.56540  0.87300  Biso   1.000  C
  H157     1.0000 0.58830  0.91120  0.33330  Biso   1.000  H
  H158     1.0000 0.41170  0.41120  0.16670  Biso   1.000  H
  H159     1.0000 0.41170  0.08880  0.66670  Biso   1.000  H
  H160     1.0000 0.58830  0.58880  0.83330  Biso   1.000  H
  Cl29     1.0000 0.98030  0.48640  0.17220  Biso   1.000  Cl
  Cl30     1.0000 0.01970  0.98640  0.32780  Biso   1.000  Cl
  Cl31     1.0000 0.01970  0.51360  0.82780  Biso   1.000  Cl
  Cl32     1.0000 0.98030  0.01360  0.67220  Biso   1.000  Cl
  Cl33     1.0000 0.07410  0.48830  0.07920  Biso   1.000  Cl
  Cl34     1.0000 0.92590  0.98830  0.42080  Biso   1.000  Cl
  Cl35     1.0000 0.92590  0.51170  0.92080  Biso   1.000  Cl
  Cl36     1.0000 0.07410  0.01170  0.57920  Biso   1.000  Cl
  Cl37     1.0000 0.99390  0.34970  0.07040  Biso   1.000  Cl
  Cl38     1.0000 0.00610  0.84970  0.42960  Biso   1.000  Cl
  Cl39     1.0000 0.00610  0.65030  0.92960  Biso   1.000  Cl
  Cl40     1.0000 0.99390  0.15030  0.57040  Biso   1.000  Cl
  C193     1.0000 0.03770  0.41700  0.13120  Biso   1.000  C
  C194     1.0000 0.96230  0.91700  0.36880  Biso   1.000  C
  C195     1.0000 0.96230  0.58300  0.86880  Biso   1.000  C
  C196     1.0000 0.03770  0.08300  0.63120  Biso   1.000  C
  H161     1.0000 0.07070  0.39030  0.16930  Biso   1.000  H
  H162     1.0000 0.92930  0.89030  0.33070  Biso   1.000  H
  H163     1.0000 0.92930  0.60970  0.83070  Biso   1.000  H
  H164     1.0000 0.07070  0.10970  0.66930  Biso   1.000  H
