data_image0
_cell_length_a       14.3
_cell_length_b       18.7302
_cell_length_c       19.925
_cell_angle_alpha    90
_cell_angle_beta     98.623
_cell_angle_gamma    90

_symmetry_space_group_name_H-M    "P 1"
_symmetry_int_tables_number       1

loop_
  _symmetry_equiv_pos_as_xyz
  'x, y, z'

loop_
  _atom_site_label
  _atom_site_occupancy
  _atom_site_fract_x
  _atom_site_fract_y
  _atom_site_fract_z
  _atom_site_thermal_displace_type
  _atom_site_B_iso_or_equiv
  _atom_site_type_symbol
  Cu1      1.0000 0.15538  0.06585  0.26918  Biso   1.000  Cu
  Cu2      1.0000 0.34462  0.56585  0.23082  Biso   1.000  Cu
  Cu3      1.0000 0.84462  0.93415  0.73082  Biso   1.000  Cu
  Cu4      1.0000 0.65538  0.43415  0.76918  Biso   1.000  Cu
  N1       1.0000 0.16520  0.17690  0.26910  Biso   1.000  N
  N2       1.0000 0.33480  0.67690  0.23090  Biso   1.000  N
  N3       1.0000 0.83480  0.82310  0.73090  Biso   1.000  N
  N4       1.0000 0.66520  0.32310  0.76910  Biso   1.000  N
  N5       1.0000 0.21310  0.51456  0.21589  Biso   1.000  N
  N6       1.0000 0.28690  0.01456  0.28411  Biso   1.000  N
  N7       1.0000 0.78690  0.48544  0.78411  Biso   1.000  N
  N8       1.0000 0.71310  0.98544  0.71589  Biso   1.000  N
  C1       1.0000 0.08580  0.21340  0.27410  Biso   1.000  C
  C2       1.0000 0.41420  0.71340  0.22590  Biso   1.000  C
  C3       1.0000 0.91420  0.78660  0.72590  Biso   1.000  C
  C4       1.0000 0.58580  0.28660  0.77410  Biso   1.000  C
  H1       1.0000 0.03490  0.18860  0.28800  Biso   1.000  H
  H2       1.0000 0.46510  0.68860  0.21200  Biso   1.000  H
  H3       1.0000 0.96510  0.81140  0.71200  Biso   1.000  H
  H4       1.0000 0.53490  0.31140  0.78800  Biso   1.000  H
  C5       1.0000 0.07450  0.28520  0.26010  Biso   1.000  C
  C6       1.0000 0.42550  0.78520  0.23990  Biso   1.000  C
  C7       1.0000 0.92550  0.71480  0.73990  Biso   1.000  C
  C8       1.0000 0.57450  0.21480  0.76010  Biso   1.000  C
  H5       1.0000 0.01670  0.30780  0.26360  Biso   1.000  H
  H6       1.0000 0.48330  0.80780  0.23640  Biso   1.000  H
  H7       1.0000 0.98330  0.69220  0.73640  Biso   1.000  H
  H8       1.0000 0.51670  0.19220  0.76360  Biso   1.000  H
  C9       1.0000 0.14880  0.32380  0.24090  Biso   1.000  C
  C10      1.0000 0.35120  0.82380  0.25910  Biso   1.000  C
  C11      1.0000 0.85120  0.67620  0.75910  Biso   1.000  C
  C12      1.0000 0.64880  0.17620  0.74090  Biso   1.000  C
  C13      1.0000 0.23200  0.28690  0.23810  Biso   1.000  C
  C14      1.0000 0.26800  0.78690  0.26190  Biso   1.000  C
  C15      1.0000 0.76800  0.71310  0.76190  Biso   1.000  C
  C16      1.0000 0.73200  0.21310  0.73810  Biso   1.000  C
  H9       1.0000 0.28530  0.31110  0.22710  Biso   1.000  H
  H10      1.0000 0.21470  0.81110  0.27290  Biso   1.000  H
  H11      1.0000 0.71470  0.68890  0.77290  Biso   1.000  H
  H12      1.0000 0.78530  0.18890  0.72710  Biso   1.000  H
  C17      1.0000 0.23690  0.21470  0.25140  Biso   1.000  C
  C18      1.0000 0.26310  0.71470  0.24860  Biso   1.000  C
  C19      1.0000 0.76310  0.78530  0.74860  Biso   1.000  C
  C20      1.0000 0.73690  0.28530  0.75140  Biso   1.000  C
  H13      1.0000 0.29370  0.19070  0.24790  Biso   1.000  H
  H14      1.0000 0.20630  0.69070  0.25210  Biso   1.000  H
  H15      1.0000 0.70630  0.80930  0.75210  Biso   1.000  H
  H16      1.0000 0.79370  0.30930  0.74790  Biso   1.000  H
  C21      1.0000 0.13860  0.40050  0.22280  Biso   1.000  C
  C22      1.0000 0.36140  0.90050  0.27720  Biso   1.000  C
  C23      1.0000 0.86140  0.59950  0.77720  Biso   1.000  C
  C24      1.0000 0.63860  0.09950  0.72280  Biso   1.000  C
  C25      1.0000 0.05320  0.42960  0.19500  Biso   1.000  C
  C26      1.0000 0.44680  0.92960  0.30500  Biso   1.000  C
  C27      1.0000 0.94680  0.57040  0.80500  Biso   1.000  C
  C28      1.0000 0.55320  0.07040  0.69500  Biso   1.000  C
  H17      1.0000 0.99850  0.40120  0.18730  Biso   1.000  H
  H18      1.0000 0.50150  0.90120  0.31270  Biso   1.000  H
  H19      1.0000 0.00150  0.59880  0.81270  Biso   1.000  H
  H20      1.0000 0.49850  0.09880  0.68730  Biso   1.000  H
  C29      1.0000 0.04910  0.50080  0.17870  Biso   1.000  C
  C30      1.0000 0.45090  0.00080  0.32130  Biso   1.000  C
  C31      1.0000 0.95090  0.49920  0.82130  Biso   1.000  C
  C32      1.0000 0.54910  0.99920  0.67870  Biso   1.000  C
  H21      1.0000 0.99100  0.52180  0.16060  Biso   1.000  H
  H22      1.0000 0.50900  0.02180  0.33940  Biso   1.000  H
  H23      1.0000 0.00900  0.47820  0.83940  Biso   1.000  H
  H24      1.0000 0.49100  0.97820  0.66060  Biso   1.000  H
  C33      1.0000 0.12990  0.54120  0.18880  Biso   1.000  C
  C34      1.0000 0.37010  0.04120  0.31120  Biso   1.000  C
  C35      1.0000 0.87010  0.45880  0.81120  Biso   1.000  C
  C36      1.0000 0.62990  0.95880  0.68880  Biso   1.000  C
  H25      1.0000 0.12620  0.58960  0.17620  Biso   1.000  H
  H26      1.0000 0.37380  0.08960  0.32380  Biso   1.000  H
  H27      1.0000 0.87380  0.41040  0.82380  Biso   1.000  H
  H28      1.0000 0.62620  0.91040  0.67620  Biso   1.000  H
  C37      1.0000 0.21600  0.44510  0.23300  Biso   1.000  C
  C38      1.0000 0.28400  0.94510  0.26700  Biso   1.000  C
  C39      1.0000 0.78400  0.55490  0.76700  Biso   1.000  C
  C40      1.0000 0.71600  0.05490  0.73300  Biso   1.000  C
  H29      1.0000 0.27420  0.42590  0.25310  Biso   1.000  H
  H30      1.0000 0.22580  0.92590  0.24690  Biso   1.000  H
  H31      1.0000 0.72580  0.57410  0.74690  Biso   1.000  H
  H32      1.0000 0.77420  0.07410  0.75310  Biso   1.000  H
  P1       1.0000 0.09092  0.03607  0.36249  Biso   1.000  P
  P2       1.0000 0.40908  0.53607  0.13751  Biso   1.000  P
  P3       1.0000 0.90908  0.96393  0.63751  Biso   1.000  P
  P4       1.0000 0.59092  0.46393  0.86249  Biso   1.000  P
  C41      1.0000 0.16520  0.06300  0.44110  Biso   1.000  C
  C42      1.0000 0.33480  0.56300  0.05890  Biso   1.000  C
  C43      1.0000 0.83480  0.93700  0.55890  Biso   1.000  C
  C44      1.0000 0.66520  0.43700  0.94110  Biso   1.000  C
  C45      1.0000 0.21340  0.12740  0.44140  Biso   1.000  C
  C46      1.0000 0.28660  0.62740  0.05860  Biso   1.000  C
  C47      1.0000 0.78660  0.87260  0.55860  Biso   1.000  C
  C48      1.0000 0.71340  0.37260  0.94140  Biso   1.000  C
  H33      1.0000 0.20740  0.15530  0.40180  Biso   1.000  H
  H34      1.0000 0.29260  0.65530  0.09820  Biso   1.000  H
  H35      1.0000 0.79260  0.84470  0.59820  Biso   1.000  H
  H36      1.0000 0.70740  0.34470  0.90180  Biso   1.000  H
  C49      1.0000 0.27040  0.15070  0.49970  Biso   1.000  C
  C50      1.0000 0.22960  0.65070  0.00030  Biso   1.000  C
  C51      1.0000 0.72960  0.84930  0.50030  Biso   1.000  C
  C52      1.0000 0.77040  0.34930  0.99970  Biso   1.000  C
  H37      1.0000 0.30050  0.19540  0.50000  Biso   1.000  H
  H38      1.0000 0.19950  0.69540  0.00000  Biso   1.000  H
  H39      1.0000 0.69950  0.80460  0.50000  Biso   1.000  H
  H40      1.0000 0.80050  0.30460  0.00000  Biso   1.000  H
  C53      1.0000 0.28310  0.10930  0.55700  Biso   1.000  C
  C54      1.0000 0.21690  0.60930  0.94300  Biso   1.000  C
  C55      1.0000 0.71690  0.89070  0.44300  Biso   1.000  C
  C56      1.0000 0.78310  0.39070  0.05700  Biso   1.000  C
  H41      1.0000 0.32310  0.12470  0.59610  Biso   1.000  H
  H42      1.0000 0.17690  0.62470  0.90390  Biso   1.000  H
  H43      1.0000 0.67690  0.87530  0.40390  Biso   1.000  H
  H44      1.0000 0.82310  0.37530  0.09610  Biso   1.000  H
  C57      1.0000 0.23670  0.04490  0.55670  Biso   1.000  C
  C58      1.0000 0.26330  0.54490  0.94330  Biso   1.000  C
  C59      1.0000 0.76330  0.95510  0.44330  Biso   1.000  C
  C60      1.0000 0.73670  0.45510  0.05670  Biso   1.000  C
  H45      1.0000 0.24550  0.01600  0.59580  Biso   1.000  H
  H46      1.0000 0.25450  0.51600  0.90420  Biso   1.000  H
  H47      1.0000 0.75450  0.98400  0.40420  Biso   1.000  H
  H48      1.0000 0.74550  0.48400  0.09580  Biso   1.000  H
  C61      1.0000 0.17740  0.02230  0.49960  Biso   1.000  C
  C62      1.0000 0.32260  0.52230  0.00040  Biso   1.000  C
  C63      1.0000 0.82260  0.97770  0.50040  Biso   1.000  C
  C64      1.0000 0.67740  0.47770  0.99960  Biso   1.000  C
  H49      1.0000 0.14490  0.97880  0.50050  Biso   1.000  H
  H50      1.0000 0.35510  0.47880  0.99950  Biso   1.000  H
  H51      1.0000 0.85510  0.02120  0.49950  Biso   1.000  H
  H52      1.0000 0.64490  0.52120  0.00050  Biso   1.000  H
  C65      1.0000 0.97760  0.07900  0.36590  Biso   1.000  C
  C66      1.0000 0.52240  0.57900  0.13410  Biso   1.000  C
  C67      1.0000 0.02240  0.92100  0.63410  Biso   1.000  C
  C68      1.0000 0.47760  0.42100  0.86590  Biso   1.000  C
  C69      1.0000 0.90900  0.07470  0.30840  Biso   1.000  C
  C70      1.0000 0.59100  0.57470  0.19160  Biso   1.000  C
  C71      1.0000 0.09100  0.92530  0.69160  Biso   1.000  C
  C72      1.0000 0.40900  0.42530  0.80840  Biso   1.000  C
  H53      1.0000 0.92290  0.05000  0.27000  Biso   1.000  H
  H54      1.0000 0.57710  0.55000  0.23000  Biso   1.000  H
  H55      1.0000 0.07710  0.95000  0.73000  Biso   1.000  H
  H56      1.0000 0.42290  0.45000  0.77000  Biso   1.000  H
  C73      1.0000 0.82180  0.10580  0.30640  Biso   1.000  C
  C74      1.0000 0.67820  0.60580  0.19360  Biso   1.000  C
  C75      1.0000 0.17820  0.89420  0.69360  Biso   1.000  C
  C76      1.0000 0.32180  0.39420  0.80640  Biso   1.000  C
  H57      1.0000 0.77550  0.10070  0.26790  Biso   1.000  H
  H58      1.0000 0.72450  0.60070  0.23210  Biso   1.000  H
  H59      1.0000 0.22450  0.89930  0.73210  Biso   1.000  H
  H60      1.0000 0.27550  0.39930  0.76790  Biso   1.000  H
  C77      1.0000 0.80260  0.14450  0.36190  Biso   1.000  C
  C78      1.0000 0.69740  0.64450  0.13810  Biso   1.000  C
  C79      1.0000 0.19740  0.85550  0.63810  Biso   1.000  C
  C80      1.0000 0.30260  0.35550  0.86190  Biso   1.000  C
  H61      1.0000 0.74330  0.16650  0.36090  Biso   1.000  H
  H62      1.0000 0.75670  0.66650  0.13910  Biso   1.000  H
  H63      1.0000 0.25670  0.83350  0.63910  Biso   1.000  H
  H64      1.0000 0.24330  0.33350  0.86090  Biso   1.000  H
  C81      1.0000 0.87040  0.15100  0.41850  Biso   1.000  C
  C82      1.0000 0.62960  0.65100  0.08150  Biso   1.000  C
  C83      1.0000 0.12960  0.84900  0.58150  Biso   1.000  C
  C84      1.0000 0.37040  0.34900  0.91850  Biso   1.000  C
  H65      1.0000 0.85730  0.17810  0.45580  Biso   1.000  H
  H66      1.0000 0.64270  0.67810  0.04420  Biso   1.000  H
  H67      1.0000 0.14270  0.82190  0.54420  Biso   1.000  H
  H68      1.0000 0.35730  0.32190  0.95580  Biso   1.000  H
  C85      1.0000 0.95780  0.11800  0.42120  Biso   1.000  C
  C86      1.0000 0.54220  0.61800  0.07880  Biso   1.000  C
  C87      1.0000 0.04220  0.88200  0.57880  Biso   1.000  C
  C88      1.0000 0.45780  0.38200  0.92120  Biso   1.000  C
  H69      1.0000 0.00320  0.12210  0.46030  Biso   1.000  H
  H70      1.0000 0.49680  0.62210  0.03970  Biso   1.000  H
  H71      1.0000 0.99680  0.87790  0.53970  Biso   1.000  H
  H72      1.0000 0.50320  0.37790  0.96030  Biso   1.000  H
  C89      1.0000 0.06790  0.94180  0.37680  Biso   1.000  C
  C90      1.0000 0.43210  0.44180  0.12320  Biso   1.000  C
  C91      1.0000 0.93210  0.05820  0.62320  Biso   1.000  C
  C92      1.0000 0.56790  0.55820  0.87680  Biso   1.000  C
  C93      1.0000 0.97740  0.91510  0.37730  Biso   1.000  C
  C94      1.0000 0.52260  0.41510  0.12270  Biso   1.000  C
  C95      1.0000 0.02260  0.08490  0.62270  Biso   1.000  C
  C96      1.0000 0.47740  0.58490  0.87730  Biso   1.000  C
  H73      1.0000 0.92570  0.94660  0.37360  Biso   1.000  H
  H74      1.0000 0.57430  0.44660  0.12640  Biso   1.000  H
  H75      1.0000 0.07430  0.05340  0.62640  Biso   1.000  H
  H76      1.0000 0.42570  0.55340  0.87360  Biso   1.000  H
  C97      1.0000 0.96270  0.84220  0.38340  Biso   1.000  C
  C98      1.0000 0.53730  0.34220  0.11660  Biso   1.000  C
  C99      1.0000 0.03730  0.15780  0.61660  Biso   1.000  C
  C100     1.0000 0.46270  0.65780  0.88340  Biso   1.000  C
  H77      1.0000 0.90090  0.82470  0.38250  Biso   1.000  H
  H78      1.0000 0.59910  0.32470  0.11750  Biso   1.000  H
  H79      1.0000 0.09910  0.17530  0.61750  Biso   1.000  H
  H80      1.0000 0.40090  0.67530  0.88250  Biso   1.000  H
  C101     1.0000 0.03690  0.79550  0.39070  Biso   1.000  C
  C102     1.0000 0.46310  0.29550  0.10930  Biso   1.000  C
  C103     1.0000 0.96310  0.20450  0.60930  Biso   1.000  C
  C104     1.0000 0.53690  0.70450  0.89070  Biso   1.000  C
  H81      1.0000 0.02640  0.74630  0.39490  Biso   1.000  H
  H82      1.0000 0.47360  0.24630  0.10510  Biso   1.000  H
  H83      1.0000 0.97360  0.25370  0.60510  Biso   1.000  H
  H84      1.0000 0.52640  0.75370  0.89490  Biso   1.000  H
  C105     1.0000 0.12690  0.82120  0.39180  Biso   1.000  C
  C106     1.0000 0.37310  0.32120  0.10820  Biso   1.000  C
  C107     1.0000 0.87310  0.17880  0.60820  Biso   1.000  C
  C108     1.0000 0.62690  0.67880  0.89180  Biso   1.000  C
  H85      1.0000 0.17840  0.78950  0.39760  Biso   1.000  H
  H86      1.0000 0.32160  0.28950  0.10240  Biso   1.000  H
  H87      1.0000 0.82160  0.21050  0.60240  Biso   1.000  H
  H88      1.0000 0.67840  0.71050  0.89760  Biso   1.000  H
  P5       1.0000 0.09191  0.04134  0.15997  Biso   1.000  P
  P6       1.0000 0.40809  0.54134  0.34003  Biso   1.000  P
  P7       1.0000 0.90809  0.95866  0.84003  Biso   1.000  P
  P8       1.0000 0.59191  0.45866  0.65997  Biso   1.000  P
  C109     1.0000 0.14290  0.89370  0.38440  Biso   1.000  C
  C110     1.0000 0.35710  0.39370  0.11560  Biso   1.000  C
  C111     1.0000 0.85710  0.10630  0.61560  Biso   1.000  C
  C112     1.0000 0.64290  0.60630  0.88440  Biso   1.000  C
  H89      1.0000 0.20490  0.91040  0.38460  Biso   1.000  H
  H90      1.0000 0.29510  0.41040  0.11540  Biso   1.000  H
  H91      1.0000 0.79510  0.08960  0.61540  Biso   1.000  H
  H92      1.0000 0.70490  0.58960  0.88460  Biso   1.000  H
  C113     1.0000 0.97660  0.08240  0.13320  Biso   1.000  C
  C114     1.0000 0.52340  0.58240  0.36680  Biso   1.000  C
  C115     1.0000 0.02340  0.91760  0.86680  Biso   1.000  C
  C116     1.0000 0.47660  0.41760  0.63320  Biso   1.000  C
  C117     1.0000 0.89240  0.04450  0.12220  Biso   1.000  C
  C118     1.0000 0.60760  0.54450  0.37780  Biso   1.000  C
  C119     1.0000 0.10760  0.95550  0.87780  Biso   1.000  C
  C120     1.0000 0.39240  0.45550  0.62220  Biso   1.000  C
  H93      1.0000 0.89350  0.99440  0.12230  Biso   1.000  H
  H94      1.0000 0.60650  0.49440  0.37770  Biso   1.000  H
  H95      1.0000 0.10650  0.00560  0.87770  Biso   1.000  H
  H96      1.0000 0.39350  0.50560  0.62230  Biso   1.000  H
  C121     1.0000 0.80630  0.08020  0.11120  Biso   1.000  C
  C122     1.0000 0.69370  0.58020  0.38880  Biso   1.000  C
  C123     1.0000 0.19370  0.91980  0.88880  Biso   1.000  C
  C124     1.0000 0.30630  0.41980  0.61120  Biso   1.000  C
  H97      1.0000 0.74950  0.05410  0.10390  Biso   1.000  H
  H98      1.0000 0.75050  0.55410  0.39610  Biso   1.000  H
  H99      1.0000 0.25050  0.94590  0.89610  Biso   1.000  H
  H100     1.0000 0.24950  0.44590  0.60390  Biso   1.000  H
  C125     1.0000 0.80410  0.15360  0.11100  Biso   1.000  C
  C126     1.0000 0.69590  0.65360  0.38900  Biso   1.000  C
  C127     1.0000 0.19590  0.84640  0.88900  Biso   1.000  C
  C128     1.0000 0.30410  0.34640  0.61100  Biso   1.000  C
  H101     1.0000 0.74580  0.17770  0.10480  Biso   1.000  H
  H102     1.0000 0.75420  0.67770  0.39520  Biso   1.000  H
  H103     1.0000 0.25420  0.82230  0.89520  Biso   1.000  H
  H104     1.0000 0.24580  0.32230  0.60480  Biso   1.000  H
  C129     1.0000 0.88720  0.19160  0.11980  Biso   1.000  C
  C130     1.0000 0.61280  0.69160  0.38020  Biso   1.000  C
  C131     1.0000 0.11280  0.80840  0.88020  Biso   1.000  C
  C132     1.0000 0.38720  0.30840  0.61980  Biso   1.000  C
  H105     1.0000 0.88570  0.24180  0.11840  Biso   1.000  H
  H106     1.0000 0.61430  0.74180  0.38160  Biso   1.000  H
  H107     1.0000 0.11430  0.75820  0.88160  Biso   1.000  H
  H108     1.0000 0.38570  0.25820  0.61840  Biso   1.000  H
  C133     1.0000 0.97260  0.15640  0.13070  Biso   1.000  C
  C134     1.0000 0.52740  0.65640  0.36930  Biso   1.000  C
  C135     1.0000 0.02740  0.84360  0.86930  Biso   1.000  C
  C136     1.0000 0.47260  0.34360  0.63070  Biso   1.000  C
  H109     1.0000 0.02900  0.18290  0.13650  Biso   1.000  H
  H110     1.0000 0.47100  0.68290  0.36350  Biso   1.000  H
  H111     1.0000 0.97100  0.81710  0.86350  Biso   1.000  H
  H112     1.0000 0.52900  0.31710  0.63650  Biso   1.000  H
  C137     1.0000 0.07540  0.94620  0.14170  Biso   1.000  C
  C138     1.0000 0.42460  0.44620  0.35830  Biso   1.000  C
  C139     1.0000 0.92460  0.05380  0.85830  Biso   1.000  C
  C140     1.0000 0.57540  0.55380  0.64170  Biso   1.000  C
  C141     1.0000 0.03550  0.90460  0.18870  Biso   1.000  C
  C142     1.0000 0.46450  0.40460  0.31130  Biso   1.000  C
  C143     1.0000 0.96450  0.09540  0.81130  Biso   1.000  C
  C144     1.0000 0.53550  0.59540  0.68870  Biso   1.000  C
  H113     1.0000 0.01490  0.92650  0.22630  Biso   1.000  H
  H114     1.0000 0.48510  0.42650  0.27370  Biso   1.000  H
  H115     1.0000 0.98510  0.07350  0.77370  Biso   1.000  H
  H116     1.0000 0.51490  0.57350  0.72630  Biso   1.000  H
  C145     1.0000 0.02640  0.83170  0.18000  Biso   1.000  C
  C146     1.0000 0.47360  0.33170  0.32000  Biso   1.000  C
  C147     1.0000 0.97360  0.16830  0.82000  Biso   1.000  C
  C148     1.0000 0.52640  0.66830  0.68000  Biso   1.000  C
  H117     1.0000 0.99860  0.80420  0.21120  Biso   1.000  H
  H118     1.0000 0.50140  0.30420  0.28880  Biso   1.000  H
  H119     1.0000 0.00140  0.19580  0.78880  Biso   1.000  H
  H120     1.0000 0.49860  0.69580  0.71120  Biso   1.000  H
  C149     1.0000 0.05770  0.79910  0.12580  Biso   1.000  C
  C150     1.0000 0.44230  0.29910  0.37420  Biso   1.000  C
  C151     1.0000 0.94230  0.20090  0.87420  Biso   1.000  C
  C152     1.0000 0.55770  0.70090  0.62580  Biso   1.000  C
  H121     1.0000 0.05220  0.74940  0.12040  Biso   1.000  H
  H122     1.0000 0.44780  0.24940  0.37960  Biso   1.000  H
  H123     1.0000 0.94780  0.25060  0.87960  Biso   1.000  H
  H124     1.0000 0.55220  0.75060  0.62040  Biso   1.000  H
  C153     1.0000 0.09710  0.83920  0.07930  Biso   1.000  C
  C154     1.0000 0.40290  0.33920  0.42070  Biso   1.000  C
  C155     1.0000 0.90290  0.16080  0.92070  Biso   1.000  C
  C156     1.0000 0.59710  0.66080  0.57930  Biso   1.000  C
  H125     1.0000 0.11760  0.81680  0.04190  Biso   1.000  H
  H126     1.0000 0.38240  0.31680  0.45810  Biso   1.000  H
  H127     1.0000 0.88240  0.18320  0.95810  Biso   1.000  H
  H128     1.0000 0.61760  0.68320  0.54190  Biso   1.000  H
  C157     1.0000 0.10670  0.91260  0.08750  Biso   1.000  C
  C158     1.0000 0.39330  0.41260  0.41250  Biso   1.000  C
  C159     1.0000 0.89330  0.08740  0.91250  Biso   1.000  C
  C160     1.0000 0.60670  0.58740  0.58750  Biso   1.000  C
  H129     1.0000 0.13460  0.93960  0.05600  Biso   1.000  H
  H130     1.0000 0.36540  0.43960  0.44400  Biso   1.000  H
  H131     1.0000 0.86540  0.06040  0.94400  Biso   1.000  H
  H132     1.0000 0.63460  0.56040  0.55600  Biso   1.000  H
  C161     1.0000 0.16140  0.07450  0.09700  Biso   1.000  C
  C162     1.0000 0.33860  0.57450  0.40300  Biso   1.000  C
  C163     1.0000 0.83860  0.92550  0.90300  Biso   1.000  C
  C164     1.0000 0.66140  0.42550  0.59700  Biso   1.000  C
  C165     1.0000 0.25780  0.08710  0.11640  Biso   1.000  C
  C166     1.0000 0.24220  0.58710  0.38360  Biso   1.000  C
  C167     1.0000 0.74220  0.91290  0.88360  Biso   1.000  C
  C168     1.0000 0.75780  0.41290  0.61640  Biso   1.000  C
  H133     1.0000 0.28580  0.07730  0.16120  Biso   1.000  H
  H134     1.0000 0.21420  0.57730  0.33880  Biso   1.000  H
  H135     1.0000 0.71420  0.92270  0.83880  Biso   1.000  H
  H136     1.0000 0.78580  0.42270  0.66120  Biso   1.000  H
  C169     1.0000 0.31270  0.11360  0.07080  Biso   1.000  C
  C170     1.0000 0.18730  0.61360  0.42920  Biso   1.000  C
  C171     1.0000 0.68730  0.88640  0.92920  Biso   1.000  C
  C172     1.0000 0.81270  0.38640  0.57080  Biso   1.000  C
  H137     1.0000 0.37750  0.12240  0.08460  Biso   1.000  H
  H138     1.0000 0.12250  0.62240  0.41540  Biso   1.000  H
  H139     1.0000 0.62250  0.87760  0.91540  Biso   1.000  H
  H140     1.0000 0.87750  0.37760  0.58460  Biso   1.000  H
  C173     1.0000 0.27160  0.12730  0.00440  Biso   1.000  C
  C174     1.0000 0.22840  0.62730  0.49560  Biso   1.000  C
  C175     1.0000 0.72840  0.87270  0.99560  Biso   1.000  C
  C176     1.0000 0.77160  0.37270  0.50440  Biso   1.000  C
  H141     1.0000 0.30870  0.14500  0.97300  Biso   1.000  H
  H142     1.0000 0.19130  0.64500  0.52700  Biso   1.000  H
  H143     1.0000 0.69130  0.85500  0.02700  Biso   1.000  H
  H144     1.0000 0.80870  0.35500  0.47300  Biso   1.000  H
  C177     1.0000 0.17670  0.11510  0.98460  Biso   1.000  C
  C178     1.0000 0.32330  0.61510  0.51540  Biso   1.000  C
  C179     1.0000 0.82330  0.88490  0.01540  Biso   1.000  C
  C180     1.0000 0.67670  0.38490  0.48460  Biso   1.000  C
  H145     1.0000 0.14890  0.12480  0.93970  Biso   1.000  H
  H146     1.0000 0.35110  0.62480  0.56030  Biso   1.000  H
  H147     1.0000 0.85110  0.87520  0.06030  Biso   1.000  H
  H148     1.0000 0.64890  0.37520  0.43970  Biso   1.000  H
  C181     1.0000 0.12220  0.08860  0.03060  Biso   1.000  C
  C182     1.0000 0.37780  0.58860  0.46940  Biso   1.000  C
  C183     1.0000 0.87780  0.91140  0.96940  Biso   1.000  C
  C184     1.0000 0.62220  0.41140  0.53060  Biso   1.000  C
  H149     1.0000 0.05750  0.08000  0.01660  Biso   1.000  H
  H150     1.0000 0.44250  0.58000  0.48340  Biso   1.000  H
  H151     1.0000 0.94250  0.92000  0.98340  Biso   1.000  H
  H152     1.0000 0.55750  0.42000  0.51660  Biso   1.000  H
  B1       1.0000 0.55090  0.14630  0.23010  Biso   1.000  B
  B2       1.0000 0.94910  0.64630  0.26990  Biso   1.000  B
  B3       1.0000 0.44910  0.85370  0.76990  Biso   1.000  B
  B4       1.0000 0.05090  0.35370  0.73010  Biso   1.000  B
  F1       1.0000 0.60390  0.19770  0.21360  Biso   1.000  F
  F2       1.0000 0.89610  0.69770  0.28640  Biso   1.000  F
  F3       1.0000 0.39610  0.80230  0.78640  Biso   1.000  F
  F4       1.0000 0.10390  0.30230  0.71360  Biso   1.000  F
  F5       1.0000 0.56790  0.14220  0.29900  Biso   1.000  F
  F6       1.0000 0.93210  0.64220  0.20100  Biso   1.000  F
  F7       1.0000 0.43210  0.85780  0.70100  Biso   1.000  F
  F8       1.0000 0.06790  0.35780  0.79900  Biso   1.000  F
  F9       1.0000 0.45900  0.15860  0.21890  Biso   1.000  F
  F10      1.0000 0.04100  0.65860  0.28110  Biso   1.000  F
  F11      1.0000 0.54100  0.84140  0.78110  Biso   1.000  F
  F12      1.0000 0.95900  0.34140  0.71890  Biso   1.000  F
  F13      1.0000 0.57650  0.08440  0.21960  Biso   1.000  F
  F14      1.0000 0.92350  0.58440  0.28040  Biso   1.000  F
  F15      1.0000 0.42350  0.91560  0.78040  Biso   1.000  F
  F16      1.0000 0.07650  0.41560  0.71960  Biso   1.000  F
  O1       1.0000 0.12340  0.41720  0.42980  Biso   1.000  O
  O2       1.0000 0.37660  0.91720  0.07020  Biso   1.000  O
  O3       1.0000 0.87660  0.58280  0.57020  Biso   1.000  O
  O4       1.0000 0.62340  0.08280  0.92980  Biso   1.000  O
  C185     1.0000 0.13650  0.33680  0.44370  Biso   1.000  C
  C186     1.0000 0.36350  0.83680  0.05630  Biso   1.000  C
  C187     1.0000 0.86350  0.66320  0.55630  Biso   1.000  C
  C188     1.0000 0.63650  0.16320  0.94370  Biso   1.000  C
  H153     1.0000 0.15010  0.31070  0.40360  Biso   1.000  H
  H154     1.0000 0.34990  0.81070  0.09640  Biso   1.000  H
  H155     1.0000 0.84990  0.68930  0.59640  Biso   1.000  H
  H156     1.0000 0.65010  0.18930  0.90360  Biso   1.000  H
  H157     1.0000 0.18590  0.32710  0.48230  Biso   1.000  H
  H158     1.0000 0.31410  0.82710  0.01770  Biso   1.000  H
  H159     1.0000 0.81410  0.67290  0.51770  Biso   1.000  H
  H160     1.0000 0.68590  0.17290  0.98230  Biso   1.000  H
  C189     1.0000 0.03880  0.32090  0.45980  Biso   1.000  C
  C190     1.0000 0.46120  0.82090  0.04020  Biso   1.000  C
  C191     1.0000 0.96120  0.67910  0.54020  Biso   1.000  C
  C192     1.0000 0.53880  0.17910  0.95980  Biso   1.000  C
  H161     1.0000 0.01970  0.27230  0.44560  Biso   1.000  H
  H162     1.0000 0.48030  0.77230  0.05440  Biso   1.000  H
  H163     1.0000 0.98030  0.72770  0.55440  Biso   1.000  H
  H164     1.0000 0.51970  0.22770  0.94560  Biso   1.000  H
  H165     1.0000 0.03770  0.32520  0.50870  Biso   1.000  H
  H166     1.0000 0.46230  0.82520  0.99130  Biso   1.000  H
  H167     1.0000 0.96230  0.67480  0.49130  Biso   1.000  H
  H168     1.0000 0.53770  0.17480  0.00870  Biso   1.000  H
  C193     1.0000 0.98250  0.36710  0.42690  Biso   1.000  C
  C194     1.0000 0.51750  0.86710  0.07310  Biso   1.000  C
  C195     1.0000 0.01750  0.63290  0.57310  Biso   1.000  C
  C196     1.0000 0.48250  0.13290  0.92690  Biso   1.000  C
  H169     1.0000 0.92700  0.37270  0.44980  Biso   1.000  H
  H170     1.0000 0.57300  0.87270  0.05020  Biso   1.000  H
  H171     1.0000 0.07300  0.62730  0.55020  Biso   1.000  H
  H172     1.0000 0.42700  0.12730  0.94980  Biso   1.000  H
  H173     1.0000 0.96070  0.34850  0.38120  Biso   1.000  H
  H174     1.0000 0.53930  0.84850  0.11880  Biso   1.000  H
  H175     1.0000 0.03930  0.65150  0.61880  Biso   1.000  H
  H176     1.0000 0.46070  0.15150  0.88120  Biso   1.000  H
  C197     1.0000 0.02210  0.43250  0.42110  Biso   1.000  C
  C198     1.0000 0.47790  0.93250  0.07890  Biso   1.000  C
  C199     1.0000 0.97790  0.56750  0.57890  Biso   1.000  C
  C200     1.0000 0.52210  0.06750  0.92110  Biso   1.000  C
  H177     1.0000 0.00690  0.46510  0.45630  Biso   1.000  H
  H178     1.0000 0.49310  0.96510  0.04370  Biso   1.000  H
  H179     1.0000 0.99310  0.53490  0.54370  Biso   1.000  H
  H180     1.0000 0.50690  0.03490  0.95630  Biso   1.000  H
  H181     1.0000 0.00040  0.45350  0.37640  Biso   1.000  H
  H182     1.0000 0.49960  0.95350  0.12360  Biso   1.000  H
  H183     1.0000 0.99960  0.54650  0.62360  Biso   1.000  H
  H184     1.0000 0.50040  0.04650  0.87640  Biso   1.000  H
  O5       1.0000 0.01470  0.33280  0.04460  Biso   1.000  O
  O6       1.0000 0.48530  0.83280  0.45540  Biso   1.000  O
  O7       1.0000 0.98530  0.66720  0.95540  Biso   1.000  O
  O8       1.0000 0.51470  0.16720  0.54460  Biso   1.000  O
  C201     1.0000 0.01980  0.39620  0.00640  Biso   1.000  C
  C202     1.0000 0.48020  0.89620  0.49360  Biso   1.000  C
  C203     1.0000 0.98020  0.60380  0.99360  Biso   1.000  C
  C204     1.0000 0.51980  0.10380  0.50640  Biso   1.000  C
  H185     1.0000 0.96280  0.40070  0.97260  Biso   1.000  H
  H186     1.0000 0.53720  0.90070  0.52740  Biso   1.000  H
  H187     1.0000 0.03720  0.59930  0.02740  Biso   1.000  H
  H188     1.0000 0.46280  0.09930  0.47260  Biso   1.000  H
  H189     1.0000 0.02330  0.43770  0.03650  Biso   1.000  H
  H190     1.0000 0.47670  0.93770  0.46350  Biso   1.000  H
  H191     1.0000 0.97670  0.56230  0.96350  Biso   1.000  H
  H192     1.0000 0.52330  0.06230  0.53650  Biso   1.000  H
  C205     1.0000 0.09420  0.39400  0.97620  Biso   1.000  C
  C206     1.0000 0.40580  0.89400  0.52380  Biso   1.000  C
  C207     1.0000 0.90580  0.60600  0.02380  Biso   1.000  C
  C208     1.0000 0.59420  0.10600  0.47620  Biso   1.000  C
  H193     1.0000 0.14110  0.42870  0.99690  Biso   1.000  H
  H194     1.0000 0.35890  0.92870  0.50310  Biso   1.000  H
  H195     1.0000 0.85890  0.57130  0.00310  Biso   1.000  H
  H196     1.0000 0.64110  0.07130  0.49690  Biso   1.000  H
  H197     1.0000 0.07680  0.40620  0.92810  Biso   1.000  H
  H198     1.0000 0.42320  0.90620  0.57190  Biso   1.000  H
  H199     1.0000 0.92320  0.59380  0.07190  Biso   1.000  H
  H200     1.0000 0.57680  0.09380  0.42810  Biso   1.000  H
  C209     1.0000 0.13500  0.32050  0.98290  Biso   1.000  C
  C210     1.0000 0.36500  0.82050  0.51710  Biso   1.000  C
  C211     1.0000 0.86500  0.67950  0.01710  Biso   1.000  C
  C212     1.0000 0.63500  0.17950  0.48290  Biso   1.000  C
  H201     1.0000 0.11850  0.29320  0.94090  Biso   1.000  H
  H202     1.0000 0.38150  0.79320  0.55910  Biso   1.000  H
  H203     1.0000 0.88150  0.70680  0.05910  Biso   1.000  H
  H204     1.0000 0.61850  0.20680  0.44090  Biso   1.000  H
  H205     1.0000 0.20390  0.32180  0.99520  Biso   1.000  H
  H206     1.0000 0.29610  0.82180  0.50480  Biso   1.000  H
  H207     1.0000 0.79610  0.67820  0.00480  Biso   1.000  H
  H208     1.0000 0.70390  0.17820  0.49520  Biso   1.000  H
  C213     1.0000 0.08960  0.29110  0.03780  Biso   1.000  C
  C214     1.0000 0.41040  0.79110  0.46220  Biso   1.000  C
  C215     1.0000 0.91040  0.70890  0.96220  Biso   1.000  C
  C216     1.0000 0.58960  0.20890  0.53780  Biso   1.000  C
  H209     1.0000 0.06880  0.24210  0.02690  Biso   1.000  H
  H210     1.0000 0.43120  0.74210  0.47310  Biso   1.000  H
  H211     1.0000 0.93120  0.75790  0.97310  Biso   1.000  H
  H212     1.0000 0.56880  0.25790  0.52690  Biso   1.000  H
  H213     1.0000 0.13430  0.29050  0.08020  Biso   1.000  H
  H214     1.0000 0.36570  0.79050  0.41980  Biso   1.000  H
  H215     1.0000 0.86570  0.70950  0.91980  Biso   1.000  H
  H216     1.0000 0.63430  0.20950  0.58020  Biso   1.000  H
  O9       1.0000 0.35080  0.14370  0.72811  Biso   1.000  O
  O10      1.0000 0.14920  0.64370  0.77189  Biso   1.000  O
  O11      1.0000 0.64920  0.85630  0.27189  Biso   1.000  O
  O12      1.0000 0.85080  0.35630  0.22811  Biso   1.000  O
  C217     1.0000 0.29940  0.19870  0.75250  Biso   1.000  C
  C218     1.0000 0.20060  0.69870  0.74750  Biso   1.000  C
  C219     1.0000 0.70060  0.80130  0.24750  Biso   1.000  C
  C220     1.0000 0.79940  0.30130  0.25250  Biso   1.000  C
  H217     1.0000 0.25240  0.21720  0.71580  Biso   1.000  H
  H218     1.0000 0.24760  0.71720  0.78420  Biso   1.000  H
  H219     1.0000 0.74760  0.78280  0.28420  Biso   1.000  H
  H220     1.0000 0.75240  0.28280  0.21580  Biso   1.000  H
  H221     1.0000 0.34200  0.23780  0.76940  Biso   1.000  H
  H222     1.0000 0.15800  0.73780  0.73060  Biso   1.000  H
  H223     1.0000 0.65800  0.76220  0.23060  Biso   1.000  H
  H224     1.0000 0.84200  0.26220  0.26940  Biso   1.000  H
  C221     1.0000 0.25220  0.17180  0.80680  Biso   1.000  C
  C222     1.0000 0.24780  0.67180  0.69320  Biso   1.000  C
  C223     1.0000 0.74780  0.82820  0.19320  Biso   1.000  C
  C224     1.0000 0.75220  0.32820  0.30680  Biso   1.000  C
  H225     1.0000 0.18730  0.18990  0.80230  Biso   1.000  H
  H226     1.0000 0.31270  0.68990  0.69770  Biso   1.000  H
  H227     1.0000 0.81270  0.81010  0.19770  Biso   1.000  H
  H228     1.0000 0.68730  0.31010  0.30230  Biso   1.000  H
  H229     1.0000 0.28620  0.18630  0.85110  Biso   1.000  H
  H230     1.0000 0.21380  0.68630  0.64890  Biso   1.000  H
  H231     1.0000 0.71380  0.81370  0.14890  Biso   1.000  H
  H232     1.0000 0.78620  0.31370  0.35110  Biso   1.000  H
  C225     1.0000 0.25290  0.09460  0.79960  Biso   1.000  C
  C226     1.0000 0.24710  0.59460  0.70040  Biso   1.000  C
  C227     1.0000 0.74710  0.90540  0.20040  Biso   1.000  C
  C228     1.0000 0.75290  0.40540  0.29960  Biso   1.000  C
  H233     1.0000 0.18960  0.07700  0.78150  Biso   1.000  H
  H234     1.0000 0.31040  0.57700  0.71850  Biso   1.000  H
  H235     1.0000 0.81040  0.92300  0.21850  Biso   1.000  H
  H236     1.0000 0.68960  0.42300  0.28150  Biso   1.000  H
  H237     1.0000 0.27370  0.07180  0.84350  Biso   1.000  H
  H238     1.0000 0.22630  0.57180  0.65650  Biso   1.000  H
  H239     1.0000 0.72630  0.92820  0.15650  Biso   1.000  H
  H240     1.0000 0.77370  0.42820  0.34350  Biso   1.000  H
  C229     1.0000 0.31980  0.07940  0.75200  Biso   1.000  C
  C230     1.0000 0.18020  0.57940  0.74800  Biso   1.000  C
  C231     1.0000 0.68020  0.92060  0.24800  Biso   1.000  C
  C232     1.0000 0.81980  0.42060  0.25200  Biso   1.000  C
  H241     1.0000 0.37380  0.05220  0.77510  Biso   1.000  H
  H242     1.0000 0.12620  0.55220  0.72490  Biso   1.000  H
  H243     1.0000 0.62620  0.94780  0.22490  Biso   1.000  H
  H244     1.0000 0.87380  0.44780  0.27510  Biso   1.000  H
  H245     1.0000 0.28860  0.05070  0.71390  Biso   1.000  H
  H246     1.0000 0.21140  0.55070  0.78610  Biso   1.000  H
  H247     1.0000 0.71140  0.94930  0.28610  Biso   1.000  H
  H248     1.0000 0.78860  0.44930  0.21390  Biso   1.000  H
