data_image0
_cell_length_a       11.133
_cell_length_b       17.542
_cell_length_c       20.2848
_cell_angle_alpha    90
_cell_angle_beta     103.652
_cell_angle_gamma    90

_symmetry_space_group_name_H-M    "P 1"
_symmetry_int_tables_number       1

loop_
  _symmetry_equiv_pos_as_xyz
  'x, y, z'

loop_
  _atom_site_label
  _atom_site_occupancy
  _atom_site_fract_x
  _atom_site_fract_y
  _atom_site_fract_z
  _atom_site_thermal_displace_type
  _atom_site_B_iso_or_equiv
  _atom_site_type_symbol
  Cu1      1.0000 0.20482  0.00275  0.27864  Biso   1.000  Cu
  Cu2      1.0000 0.79518  0.50275  0.22136  Biso   1.000  Cu
  Cu3      1.0000 0.79518  0.99725  0.72136  Biso   1.000  Cu
  Cu4      1.0000 0.20482  0.49725  0.77864  Biso   1.000  Cu
  N1       1.0000 0.10320  0.01680  0.17890  Biso   1.000  N
  N2       1.0000 0.89680  0.51680  0.32110  Biso   1.000  N
  N3       1.0000 0.89680  0.98320  0.82110  Biso   1.000  N
  N4       1.0000 0.10320  0.48320  0.67890  Biso   1.000  N
  C1       1.0000 0.13590  0.06550  0.13740  Biso   1.000  C
  C2       1.0000 0.86410  0.56550  0.36260  Biso   1.000  C
  C3       1.0000 0.86410  0.93450  0.86260  Biso   1.000  C
  C4       1.0000 0.13590  0.43450  0.63740  Biso   1.000  C
  H1       1.0000 0.18810  0.10600  0.15630  Biso   1.000  H
  H2       1.0000 0.81190  0.60600  0.34370  Biso   1.000  H
  H3       1.0000 0.81190  0.89400  0.84370  Biso   1.000  H
  H4       1.0000 0.18810  0.39400  0.65630  Biso   1.000  H
  C5       1.0000 0.09860  0.06120  0.06800  Biso   1.000  C
  C6       1.0000 0.90140  0.56120  0.43200  Biso   1.000  C
  C7       1.0000 0.90140  0.93880  0.93200  Biso   1.000  C
  C8       1.0000 0.09860  0.43880  0.56800  Biso   1.000  C
  H5       1.0000 0.12660  0.09750  0.04100  Biso   1.000  H
  H6       1.0000 0.87340  0.59750  0.45900  Biso   1.000  H
  H7       1.0000 0.87340  0.90250  0.95900  Biso   1.000  H
  H8       1.0000 0.12660  0.40250  0.54100  Biso   1.000  H
  C9       1.0000 0.02020  0.00380  0.03780  Biso   1.000  C
  C10      1.0000 0.97980  0.50380  0.46220  Biso   1.000  C
  C11      1.0000 0.97980  0.99620  0.96220  Biso   1.000  C
  C12      1.0000 0.02020  0.49620  0.53780  Biso   1.000  C
  C13      1.0000 0.98060  0.95460  0.08070  Biso   1.000  C
  C14      1.0000 0.01940  0.45460  0.41930  Biso   1.000  C
  C15      1.0000 0.01940  0.04540  0.91930  Biso   1.000  C
  C16      1.0000 0.98060  0.54540  0.58070  Biso   1.000  C
  H9       1.0000 0.92470  0.91530  0.06320  Biso   1.000  H
  H10      1.0000 0.07530  0.41530  0.43680  Biso   1.000  H
  H11      1.0000 0.07530  0.08470  0.93680  Biso   1.000  H
  H12      1.0000 0.92470  0.58470  0.56320  Biso   1.000  H
  C17      1.0000 0.02340  0.96310  0.14990  Biso   1.000  C
  C18      1.0000 0.97660  0.46310  0.35010  Biso   1.000  C
  C19      1.0000 0.97660  0.03690  0.85010  Biso   1.000  C
  C20      1.0000 0.02340  0.53690  0.64990  Biso   1.000  C
  H13      1.0000 0.99440  0.92900  0.17840  Biso   1.000  H
  H14      1.0000 0.00560  0.42900  0.32160  Biso   1.000  H
  H15      1.0000 0.00560  0.07100  0.82160  Biso   1.000  H
  H16      1.0000 0.99440  0.57100  0.67840  Biso   1.000  H
  N5       1.0000 0.33110  0.09030  0.28410  Biso   1.000  N
  N6       1.0000 0.66890  0.59030  0.21590  Biso   1.000  N
  N7       1.0000 0.66890  0.90970  0.71590  Biso   1.000  N
  N8       1.0000 0.33110  0.40970  0.78410  Biso   1.000  N
  C21      1.0000 0.31710  0.15770  0.31120  Biso   1.000  C
  C22      1.0000 0.68290  0.65770  0.18880  Biso   1.000  C
  C23      1.0000 0.68290  0.84230  0.68880  Biso   1.000  C
  C24      1.0000 0.31710  0.34230  0.81120  Biso   1.000  C
  H17      1.0000 0.25480  0.16270  0.33510  Biso   1.000  H
  H18      1.0000 0.74520  0.66270  0.16490  Biso   1.000  H
  H19      1.0000 0.74520  0.83730  0.66490  Biso   1.000  H
  H20      1.0000 0.25480  0.33730  0.83510  Biso   1.000  H
  C25      1.0000 0.38800  0.22040  0.30630  Biso   1.000  C
  C26      1.0000 0.61200  0.72040  0.19370  Biso   1.000  C
  C27      1.0000 0.61200  0.77960  0.69370  Biso   1.000  C
  C28      1.0000 0.38800  0.27960  0.80630  Biso   1.000  C
  H21      1.0000 0.37630  0.26620  0.32810  Biso   1.000  H
  H22      1.0000 0.62370  0.76620  0.17190  Biso   1.000  H
  H23      1.0000 0.62370  0.73380  0.67190  Biso   1.000  H
  H24      1.0000 0.37630  0.23380  0.82810  Biso   1.000  H
  C29      1.0000 0.47690  0.21570  0.26910  Biso   1.000  C
  C30      1.0000 0.52310  0.71570  0.23090  Biso   1.000  C
  C31      1.0000 0.52310  0.78430  0.73090  Biso   1.000  C
  C32      1.0000 0.47690  0.28430  0.76910  Biso   1.000  C
  C33      1.0000 0.49390  0.14540  0.24140  Biso   1.000  C
  C34      1.0000 0.50610  0.64540  0.25860  Biso   1.000  C
  C35      1.0000 0.50610  0.85460  0.75860  Biso   1.000  C
  C36      1.0000 0.49390  0.35460  0.74140  Biso   1.000  C
  H25      1.0000 0.55490  0.13910  0.21680  Biso   1.000  H
  H26      1.0000 0.44510  0.63910  0.28320  Biso   1.000  H
  H27      1.0000 0.44510  0.86090  0.78320  Biso   1.000  H
  H28      1.0000 0.55490  0.36090  0.71680  Biso   1.000  H
  C37      1.0000 0.42100  0.08540  0.25030  Biso   1.000  C
  C38      1.0000 0.57900  0.58540  0.24970  Biso   1.000  C
  C39      1.0000 0.57900  0.91460  0.74970  Biso   1.000  C
  C40      1.0000 0.42100  0.41460  0.75030  Biso   1.000  C
  H29      1.0000 0.43460  0.03810  0.23160  Biso   1.000  H
  H30      1.0000 0.56540  0.53810  0.26840  Biso   1.000  H
  H31      1.0000 0.56540  0.96190  0.76840  Biso   1.000  H
  H32      1.0000 0.43460  0.46190  0.73160  Biso   1.000  H
  C41      1.0000 0.55120  0.28210  0.25890  Biso   1.000  C
  C42      1.0000 0.44880  0.78210  0.24110  Biso   1.000  C
  C43      1.0000 0.44880  0.71790  0.74110  Biso   1.000  C
  C44      1.0000 0.55120  0.21790  0.75890  Biso   1.000  C
  C45      1.0000 0.60120  0.33180  0.31110  Biso   1.000  C
  C46      1.0000 0.39880  0.83180  0.18890  Biso   1.000  C
  C47      1.0000 0.39880  0.66820  0.68890  Biso   1.000  C
  C48      1.0000 0.60120  0.16820  0.81110  Biso   1.000  C
  H33      1.0000 0.58720  0.32400  0.35450  Biso   1.000  H
  H34      1.0000 0.41280  0.82400  0.14550  Biso   1.000  H
  H35      1.0000 0.41280  0.67600  0.64550  Biso   1.000  H
  H36      1.0000 0.58720  0.17600  0.85450  Biso   1.000  H
  C49      1.0000 0.67060  0.39200  0.29960  Biso   1.000  C
  C50      1.0000 0.32940  0.89200  0.20040  Biso   1.000  C
  C51      1.0000 0.32940  0.60800  0.70040  Biso   1.000  C
  C52      1.0000 0.67060  0.10800  0.79960  Biso   1.000  C
  H37      1.0000 0.70520  0.42400  0.33630  Biso   1.000  H
  H38      1.0000 0.29480  0.92400  0.16370  Biso   1.000  H
  H39      1.0000 0.29480  0.57600  0.66370  Biso   1.000  H
  H40      1.0000 0.70520  0.07600  0.83630  Biso   1.000  H
  N9       1.0000 0.69260  0.40840  0.23890  Biso   1.000  N
  N10      1.0000 0.30740  0.90840  0.26110  Biso   1.000  N
  N11      1.0000 0.30740  0.59160  0.76110  Biso   1.000  N
  N12      1.0000 0.69260  0.09160  0.73890  Biso   1.000  N
  C53      1.0000 0.64340  0.36080  0.18850  Biso   1.000  C
  C54      1.0000 0.35660  0.86080  0.31150  Biso   1.000  C
  C55      1.0000 0.35660  0.63920  0.81150  Biso   1.000  C
  C56      1.0000 0.64340  0.13920  0.68850  Biso   1.000  C
  H41      1.0000 0.65730  0.37050  0.14540  Biso   1.000  H
  H42      1.0000 0.34270  0.87050  0.35460  Biso   1.000  H
  H43      1.0000 0.34270  0.62950  0.85460  Biso   1.000  H
  H44      1.0000 0.65730  0.12950  0.64540  Biso   1.000  H
  C57      1.0000 0.57380  0.29820  0.19610  Biso   1.000  C
  C58      1.0000 0.42620  0.79820  0.30390  Biso   1.000  C
  C59      1.0000 0.42620  0.70180  0.80390  Biso   1.000  C
  C60      1.0000 0.57380  0.20180  0.69610  Biso   1.000  C
  H45      1.0000 0.54140  0.26650  0.15880  Biso   1.000  H
  H46      1.0000 0.45860  0.76650  0.34120  Biso   1.000  H
  H47      1.0000 0.45860  0.73350  0.84120  Biso   1.000  H
  H48      1.0000 0.54140  0.23350  0.65880  Biso   1.000  H
  P1       1.0000 0.10688  0.99612  0.36023  Biso   1.000  P
  P2       1.0000 0.89312  0.49612  0.13977  Biso   1.000  P
  P3       1.0000 0.89312  0.00388  0.63977  Biso   1.000  P
  P4       1.0000 0.10688  0.50388  0.86023  Biso   1.000  P
  C61      1.0000 0.02630  0.08470  0.36750  Biso   1.000  C
  C62      1.0000 0.97370  0.58470  0.13250  Biso   1.000  C
  C63      1.0000 0.97370  0.91530  0.63250  Biso   1.000  C
  C64      1.0000 0.02630  0.41530  0.86750  Biso   1.000  C
  C65      1.0000 0.94500  0.11140  0.30890  Biso   1.000  C
  C66      1.0000 0.05500  0.61140  0.19110  Biso   1.000  C
  C67      1.0000 0.05500  0.88860  0.69110  Biso   1.000  C
  C68      1.0000 0.94500  0.38860  0.80890  Biso   1.000  C
  H49      1.0000 0.92940  0.08180  0.26920  Biso   1.000  H
  H50      1.0000 0.07060  0.58180  0.23080  Biso   1.000  H
  H51      1.0000 0.07060  0.91820  0.73080  Biso   1.000  H
  H52      1.0000 0.92940  0.41820  0.76920  Biso   1.000  H
  C69      1.0000 0.88750  0.18070  0.30890  Biso   1.000  C
  C70      1.0000 0.11250  0.68070  0.19110  Biso   1.000  C
  C71      1.0000 0.11250  0.81930  0.69110  Biso   1.000  C
  C72      1.0000 0.88750  0.31930  0.80890  Biso   1.000  C
  H53      1.0000 0.83010  0.19710  0.26960  Biso   1.000  H
  H54      1.0000 0.16990  0.69710  0.23040  Biso   1.000  H
  H55      1.0000 0.16990  0.80290  0.73040  Biso   1.000  H
  H56      1.0000 0.83010  0.30290  0.76960  Biso   1.000  H
  C73      1.0000 0.91310  0.22650  0.36560  Biso   1.000  C
  C74      1.0000 0.08690  0.72650  0.13440  Biso   1.000  C
  C75      1.0000 0.08690  0.77350  0.63440  Biso   1.000  C
  C76      1.0000 0.91310  0.27350  0.86560  Biso   1.000  C
  H57      1.0000 0.87710  0.27510  0.36460  Biso   1.000  H
  H58      1.0000 0.12290  0.77510  0.13540  Biso   1.000  H
  H59      1.0000 0.12290  0.72490  0.63540  Biso   1.000  H
  H60      1.0000 0.87710  0.22490  0.86460  Biso   1.000  H
  C77      1.0000 0.99210  0.20010  0.42390  Biso   1.000  C
  C78      1.0000 0.00790  0.70010  0.07610  Biso   1.000  C
  C79      1.0000 0.00790  0.79990  0.57610  Biso   1.000  C
  C80      1.0000 0.99210  0.29990  0.92390  Biso   1.000  C
  H61      1.0000 0.00830  0.23010  0.46330  Biso   1.000  H
  H62      1.0000 0.99170  0.73010  0.03670  Biso   1.000  H
  H63      1.0000 0.99170  0.76990  0.53670  Biso   1.000  H
  H64      1.0000 0.00830  0.26990  0.96330  Biso   1.000  H
  C81      1.0000 0.04720  0.13030  0.42460  Biso   1.000  C
  C82      1.0000 0.95280  0.63030  0.07540  Biso   1.000  C
  C83      1.0000 0.95280  0.86970  0.57540  Biso   1.000  C
  C84      1.0000 0.04720  0.36970  0.92460  Biso   1.000  C
  H65      1.0000 0.10060  0.11300  0.46480  Biso   1.000  H
  H66      1.0000 0.89940  0.61300  0.03520  Biso   1.000  H
  H67      1.0000 0.89940  0.88700  0.53520  Biso   1.000  H
  H68      1.0000 0.10060  0.38700  0.96480  Biso   1.000  H
  C85      1.0000 0.98910  0.92320  0.35120  Biso   1.000  C
  C86      1.0000 0.01090  0.42320  0.14880  Biso   1.000  C
  C87      1.0000 0.01090  0.07680  0.64880  Biso   1.000  C
  C88      1.0000 0.98910  0.57680  0.85120  Biso   1.000  C
  C89      1.0000 0.00130  0.85790  0.31490  Biso   1.000  C
  C90      1.0000 0.99870  0.35790  0.18510  Biso   1.000  C
  C91      1.0000 0.99870  0.14210  0.68510  Biso   1.000  C
  C92      1.0000 0.00130  0.64210  0.81490  Biso   1.000  C
  H69      1.0000 0.06690  0.85440  0.29310  Biso   1.000  H
  H70      1.0000 0.93310  0.35440  0.20690  Biso   1.000  H
  H71      1.0000 0.93310  0.14560  0.70690  Biso   1.000  H
  H72      1.0000 0.06690  0.64560  0.79310  Biso   1.000  H
  C93      1.0000 0.91920  0.79790  0.30980  Biso   1.000  C
  C94      1.0000 0.08080  0.29790  0.19020  Biso   1.000  C
  C95      1.0000 0.08080  0.20210  0.69020  Biso   1.000  C
  C96      1.0000 0.91920  0.70210  0.80980  Biso   1.000  C
  H73      1.0000 0.92940  0.75380  0.28530  Biso   1.000  H
  H74      1.0000 0.07060  0.25380  0.21470  Biso   1.000  H
  H75      1.0000 0.07060  0.24620  0.71470  Biso   1.000  H
  H76      1.0000 0.92940  0.74620  0.78530  Biso   1.000  H
  C97      1.0000 0.82260  0.80320  0.34100  Biso   1.000  C
  C98      1.0000 0.17740  0.30320  0.15900  Biso   1.000  C
  C99      1.0000 0.17740  0.19680  0.65900  Biso   1.000  C
  C100     1.0000 0.82260  0.69680  0.84100  Biso   1.000  C
  H77      1.0000 0.76680  0.76250  0.33800  Biso   1.000  H
  H78      1.0000 0.23320  0.26250  0.16200  Biso   1.000  H
  H79      1.0000 0.23320  0.23750  0.66200  Biso   1.000  H
  H80      1.0000 0.76680  0.73750  0.83800  Biso   1.000  H
  C101     1.0000 0.80720  0.86760  0.37650  Biso   1.000  C
  C102     1.0000 0.19280  0.36760  0.12350  Biso   1.000  C
  C103     1.0000 0.19280  0.13240  0.62350  Biso   1.000  C
  C104     1.0000 0.80720  0.63240  0.87650  Biso   1.000  C
  H81      1.0000 0.74020  0.87110  0.39720  Biso   1.000  H
  H82      1.0000 0.25980  0.37110  0.10280  Biso   1.000  H
  H83      1.0000 0.25980  0.12890  0.60280  Biso   1.000  H
  H84      1.0000 0.74020  0.62890  0.89720  Biso   1.000  H
  C105     1.0000 0.89050  0.92790  0.38190  Biso   1.000  C
  C106     1.0000 0.10950  0.42790  0.11810  Biso   1.000  C
  C107     1.0000 0.10950  0.07210  0.61810  Biso   1.000  C
  C108     1.0000 0.89050  0.57210  0.88190  Biso   1.000  C
  H85      1.0000 0.87970  0.97190  0.40650  Biso   1.000  H
  H86      1.0000 0.12030  0.47190  0.09350  Biso   1.000  H
  H87      1.0000 0.12030  0.02810  0.59350  Biso   1.000  H
  H88      1.0000 0.87970  0.52810  0.90650  Biso   1.000  H
  C109     1.0000 0.20460  0.97880  0.44500  Biso   1.000  C
  C110     1.0000 0.79540  0.47880  0.05500  Biso   1.000  C
  C111     1.0000 0.79540  0.02120  0.55500  Biso   1.000  C
  C112     1.0000 0.20460  0.52120  0.94500  Biso   1.000  C
  C113     1.0000 0.18990  0.91680  0.48420  Biso   1.000  C
  C114     1.0000 0.81010  0.41680  0.01580  Biso   1.000  C
  C115     1.0000 0.81010  0.08320  0.51580  Biso   1.000  C
  C116     1.0000 0.18990  0.58320  0.98420  Biso   1.000  C
  H89      1.0000 0.12450  0.88240  0.46870  Biso   1.000  H
  H90      1.0000 0.87550  0.38240  0.03130  Biso   1.000  H
  H91      1.0000 0.87550  0.11760  0.53130  Biso   1.000  H
  H92      1.0000 0.12450  0.61760  0.96870  Biso   1.000  H
  C117     1.0000 0.27140  0.90520  0.54620  Biso   1.000  C
  C118     1.0000 0.72860  0.40520  0.95380  Biso   1.000  C
  C119     1.0000 0.72860  0.09480  0.45380  Biso   1.000  C
  C120     1.0000 0.27140  0.59480  0.04620  Biso   1.000  C
  H93      1.0000 0.26180  0.86260  0.57260  Biso   1.000  H
  H94      1.0000 0.73820  0.36260  0.92740  Biso   1.000  H
  H95      1.0000 0.73820  0.13740  0.42740  Biso   1.000  H
  H96      1.0000 0.26180  0.63740  0.07260  Biso   1.000  H
  C121     1.0000 0.36680  0.95570  0.56970  Biso   1.000  C
  C122     1.0000 0.63320  0.45570  0.93030  Biso   1.000  C
  C123     1.0000 0.63320  0.04430  0.43030  Biso   1.000  C
  C124     1.0000 0.36680  0.54430  0.06970  Biso   1.000  C
  H97      1.0000 0.42240  0.94700  0.61170  Biso   1.000  H
  H98      1.0000 0.57760  0.44700  0.88830  Biso   1.000  H
  H99      1.0000 0.57760  0.05300  0.38830  Biso   1.000  H
  H100     1.0000 0.42240  0.55300  0.11170  Biso   1.000  H
  C125     1.0000 0.38100  0.01780  0.53260  Biso   1.000  C
  C126     1.0000 0.61900  0.51780  0.96740  Biso   1.000  C
  C127     1.0000 0.61900  0.98220  0.46740  Biso   1.000  C
  C128     1.0000 0.38100  0.48220  0.03260  Biso   1.000  C
  H101     1.0000 0.44410  0.05310  0.54970  Biso   1.000  H
  H102     1.0000 0.55590  0.55310  0.95030  Biso   1.000  H
  H103     1.0000 0.55590  0.94690  0.45030  Biso   1.000  H
  H104     1.0000 0.44410  0.44690  0.04970  Biso   1.000  H
  C129     1.0000 0.30270  0.02930  0.46930  Biso   1.000  C
  C130     1.0000 0.69730  0.52930  0.03070  Biso   1.000  C
  C131     1.0000 0.69730  0.97070  0.53070  Biso   1.000  C
  C132     1.0000 0.30270  0.47070  0.96930  Biso   1.000  C
  H105     1.0000 0.31540  0.07100  0.44260  Biso   1.000  H
  H106     1.0000 0.68460  0.57100  0.05740  Biso   1.000  H
  H107     1.0000 0.68460  0.92900  0.55740  Biso   1.000  H
  H108     1.0000 0.31540  0.42900  0.94260  Biso   1.000  H
  C133     1.0000 0.35530  0.46880  0.36450  Biso   1.000  C
  C134     1.0000 0.64470  0.96880  0.13550  Biso   1.000  C
  C135     1.0000 0.64470  0.53120  0.63550  Biso   1.000  C
  C136     1.0000 0.35530  0.03120  0.86450  Biso   1.000  C
  H109     1.0000 0.36010  0.41680  0.38260  Biso   1.000  H
  H110     1.0000 0.63990  0.91680  0.11740  Biso   1.000  H
  H111     1.0000 0.63990  0.58320  0.61740  Biso   1.000  H
  H112     1.0000 0.36010  0.08320  0.88260  Biso   1.000  H
  H113     1.0000 0.28980  0.49480  0.38080  Biso   1.000  H
  H114     1.0000 0.71020  0.99480  0.11920  Biso   1.000  H
  H115     1.0000 0.71020  0.50520  0.61920  Biso   1.000  H
  H116     1.0000 0.28980  0.00520  0.88080  Biso   1.000  H
  Cl1      1.0000 0.31030  0.46230  0.28710  Biso   1.000  Cl
  Cl2      1.0000 0.68970  0.96230  0.21290  Biso   1.000  Cl
  Cl3      1.0000 0.68970  0.53770  0.71290  Biso   1.000  Cl
  Cl4      1.0000 0.31030  0.03770  0.78710  Biso   1.000  Cl
  Cl5      1.0000 0.48990  0.51250  0.40166  Biso   1.000  Cl
  Cl6      1.0000 0.51010  0.01250  0.09834  Biso   1.000  Cl
  Cl7      1.0000 0.51010  0.48750  0.59834  Biso   1.000  Cl
  Cl8      1.0000 0.48990  0.98750  0.90166  Biso   1.000  Cl
  C137     1.0000 0.73700  0.18930  0.04920  Biso   1.000  C
  C138     1.0000 0.26300  0.68930  0.45080  Biso   1.000  C
  C139     1.0000 0.26300  0.81070  0.95080  Biso   1.000  C
  C140     1.0000 0.73700  0.31070  0.54920  Biso   1.000  C
  H117     1.0000 0.64770  0.18030  0.04050  Biso   1.000  H
  H118     1.0000 0.35230  0.68030  0.45950  Biso   1.000  H
  H119     1.0000 0.35230  0.81970  0.95950  Biso   1.000  H
  H120     1.0000 0.64770  0.31970  0.54050  Biso   1.000  H
  H121     1.0000 0.74930  0.24460  0.04800  Biso   1.000  H
  H122     1.0000 0.25070  0.74460  0.45200  Biso   1.000  H
  H123     1.0000 0.25070  0.75540  0.95200  Biso   1.000  H
  H124     1.0000 0.74930  0.25540  0.54800  Biso   1.000  H
  Cl9      1.0000 0.78800  0.15050  0.98688  Biso   1.000  Cl
  Cl10     1.0000 0.21200  0.65050  0.51312  Biso   1.000  Cl
  Cl11     1.0000 0.21200  0.84950  0.01312  Biso   1.000  Cl
  Cl12     1.0000 0.78800  0.34950  0.48688  Biso   1.000  Cl
  Cl13     1.0000 0.80230  0.15830  0.12847  Biso   1.000  Cl
  Cl14     1.0000 0.19770  0.65830  0.37153  Biso   1.000  Cl
  Cl15     1.0000 0.19770  0.84170  0.87153  Biso   1.000  Cl
  Cl16     1.0000 0.80230  0.34170  0.62847  Biso   1.000  Cl
  P5       1.0000 0.35490  0.21070  0.99628  Biso   1.000  P
  P6       1.0000 0.64510  0.71070  0.50372  Biso   1.000  P
  P7       1.0000 0.64510  0.78930  0.00372  Biso   1.000  P
  P8       1.0000 0.35490  0.28930  0.49628  Biso   1.000  P
  F1       1.0000 0.45560  0.18800  0.95650  Biso   1.000  F
  F2       1.0000 0.54440  0.68800  0.54350  Biso   1.000  F
  F3       1.0000 0.54440  0.81200  0.04350  Biso   1.000  F
  F4       1.0000 0.45560  0.31200  0.45650  Biso   1.000  F
  F5       1.0000 0.38600  0.29050  0.99880  Biso   1.000  F
  F6       1.0000 0.61400  0.79050  0.50120  Biso   1.000  F
  F7       1.0000 0.61400  0.70950  0.00120  Biso   1.000  F
  F8       1.0000 0.38600  0.20950  0.49880  Biso   1.000  F
  F9       1.0000 0.43440  0.19310  0.06420  Biso   1.000  F
  F10      1.0000 0.56560  0.69310  0.43580  Biso   1.000  F
  F11      1.0000 0.56560  0.80690  0.93580  Biso   1.000  F
  F12      1.0000 0.43440  0.30690  0.56420  Biso   1.000  F
  F13      1.0000 0.26700  0.22500  0.92840  Biso   1.000  F
  F14      1.0000 0.73300  0.72500  0.57160  Biso   1.000  F
  F15      1.0000 0.73300  0.77500  0.07160  Biso   1.000  F
  F16      1.0000 0.26700  0.27500  0.42840  Biso   1.000  F
  F17      1.0000 0.24260  0.22560  0.03160  Biso   1.000  F
  F18      1.0000 0.75740  0.72560  0.46840  Biso   1.000  F
  F19      1.0000 0.75740  0.77440  0.96840  Biso   1.000  F
  F20      1.0000 0.24260  0.27440  0.53160  Biso   1.000  F
  F21      1.0000 0.30610  0.12900  0.98930  Biso   1.000  F
  F22      1.0000 0.69390  0.62900  0.51070  Biso   1.000  F
  F23      1.0000 0.69390  0.87100  0.01070  Biso   1.000  F
  F24      1.0000 0.30610  0.37100  0.48930  Biso   1.000  F
