data_image0
_cell_length_a       12.8791
_cell_length_b       15.598
_cell_length_c       16.47
_cell_angle_alpha    63.679
_cell_angle_beta     79.279
_cell_angle_gamma    80.168

_symmetry_space_group_name_H-M    "P 1"
_symmetry_int_tables_number       1

loop_
  _symmetry_equiv_pos_as_xyz
  'x, y, z'

loop_
  _atom_site_label
  _atom_site_occupancy
  _atom_site_fract_x
  _atom_site_fract_y
  _atom_site_fract_z
  _atom_site_thermal_displace_type
  _atom_site_B_iso_or_equiv
  _atom_site_type_symbol
  Cu1      1.0000 0.78565  0.69743  0.19899  Biso   1.000  Cu
  Cu2      1.0000 0.21435  0.30257  0.80101  Biso   1.000  Cu
  N1       1.0000 0.69300  0.61290  0.31490  Biso   1.000  N
  N2       1.0000 0.30700  0.38710  0.68510  Biso   1.000  N
  C1       1.0000 0.67810  0.62720  0.39080  Biso   1.000  C
  C2       1.0000 0.32190  0.37280  0.60920  Biso   1.000  C
  H1       1.0000 0.72070  0.66870  0.39400  Biso   1.000  H
  H2       1.0000 0.27930  0.33130  0.60600  Biso   1.000  H
  C3       1.0000 0.60510  0.58530  0.46330  Biso   1.000  C
  C4       1.0000 0.39490  0.41470  0.53670  Biso   1.000  C
  H3       1.0000 0.59780  0.59840  0.51460  Biso   1.000  H
  H4       1.0000 0.40220  0.40160  0.48540  Biso   1.000  H
  C5       1.0000 0.54150  0.52330  0.46180  Biso   1.000  C
  C6       1.0000 0.45850  0.47670  0.53820  Biso   1.000  C
  C7       1.0000 0.55850  0.50630  0.38440  Biso   1.000  C
  C8       1.0000 0.44150  0.49370  0.61560  Biso   1.000  C
  H5       1.0000 0.51860  0.46360  0.38010  Biso   1.000  H
  H6       1.0000 0.48140  0.53640  0.61990  Biso   1.000  H
  C9       1.0000 0.63400  0.55210  0.31410  Biso   1.000  C
  C10      1.0000 0.36600  0.44790  0.68590  Biso   1.000  C
  H7       1.0000 0.64420  0.53940  0.26230  Biso   1.000  H
  H8       1.0000 0.35580  0.46060  0.73770  Biso   1.000  H
  N3       1.0000 0.82910  0.61300  0.12690  Biso   1.000  N
  N4       1.0000 0.17090  0.38700  0.87310  Biso   1.000  N
  C11      1.0000 0.84960  0.65380  0.03770  Biso   1.000  C
  C12      1.0000 0.15040  0.34620  0.96230  Biso   1.000  C
  H9       1.0000 0.81790  0.71650  0.00680  Biso   1.000  H
  H10      1.0000 0.18210  0.28350  0.99320  Biso   1.000  H
  C13      1.0000 0.91360  0.61220  0.98590  Biso   1.000  C
  C14      1.0000 0.08640  0.38780  0.01410  Biso   1.000  C
  H11      1.0000 0.92370  0.64590  0.92190  Biso   1.000  H
  H12      1.0000 0.07630  0.35410  0.07810  Biso   1.000  H
  C15      1.0000 0.96230  0.52230  0.02710  Biso   1.000  C
  C16      1.0000 0.03770  0.47770  0.97290  Biso   1.000  C
  C17      1.0000 0.93840  0.47600  0.11920  Biso   1.000  C
  C18      1.0000 0.06160  0.52400  0.88080  Biso   1.000  C
  H13      1.0000 0.96690  0.41220  0.15090  Biso   1.000  H
  H14      1.0000 0.03310  0.58780  0.84910  Biso   1.000  H
  C19      1.0000 0.87150  0.52350  0.16600  Biso   1.000  C
  C20      1.0000 0.12850  0.47650  0.83400  Biso   1.000  C
  H15      1.0000 0.85550  0.48970  0.22960  Biso   1.000  H
  H16      1.0000 0.14450  0.51030  0.77040  Biso   1.000  H
  P1       1.0000 0.94515  0.71352  0.22695  Biso   1.000  P
  P2       1.0000 0.05485  0.28648  0.77305  Biso   1.000  P
  C21      1.0000 0.03760  0.75600  0.12200  Biso   1.000  C
  C22      1.0000 0.96240  0.24400  0.87800  Biso   1.000  C
  C23      1.0000 0.06280  0.84920  0.07650  Biso   1.000  C
  C24      1.0000 0.93720  0.15080  0.92350  Biso   1.000  C
  H17      1.0000 0.04000  0.89260  0.10300  Biso   1.000  H
  H18      1.0000 0.96000  0.10740  0.89700  Biso   1.000  H
  C25      1.0000 0.12290  0.87920  0.99000  Biso   1.000  C
  C26      1.0000 0.87710  0.12080  0.01000  Biso   1.000  C
  H19      1.0000 0.14120  0.94270  0.95930  Biso   1.000  H
  H20      1.0000 0.85880  0.05730  0.04070  Biso   1.000  H
  C27      1.0000 0.15450  0.81860  0.95060  Biso   1.000  C
  C28      1.0000 0.84550  0.18140  0.04940  Biso   1.000  C
  H21      1.0000 0.19120  0.84090  0.89120  Biso   1.000  H
  H22      1.0000 0.80880  0.15910  0.10880  Biso   1.000  H
  C29      1.0000 0.13390  0.72560  0.99560  Biso   1.000  C
  C30      1.0000 0.86610  0.27440  0.00440  Biso   1.000  C
  H23      1.0000 0.16000  0.68270  0.96890  Biso   1.000  H
  H24      1.0000 0.84000  0.31730  0.03110  Biso   1.000  H
  C31      1.0000 0.07440  0.69340  0.08120  Biso   1.000  C
  C32      1.0000 0.92560  0.30660  0.91880  Biso   1.000  C
  H25      1.0000 0.05880  0.62900  0.11170  Biso   1.000  H
  H26      1.0000 0.94120  0.37100  0.88830  Biso   1.000  H
  C33      1.0000 0.94220  0.79790  0.27410  Biso   1.000  C
  C34      1.0000 0.05780  0.20210  0.72590  Biso   1.000  C
  C35      1.0000 0.00800  0.78640  0.33700  Biso   1.000  C
  C36      1.0000 0.99200  0.21360  0.66300  Biso   1.000  C
  H27      1.0000 0.05960  0.73320  0.35510  Biso   1.000  H
  H28      1.0000 0.94040  0.26680  0.64490  Biso   1.000  H
  C37      1.0000 0.99790  0.85320  0.37310  Biso   1.000  C
  C38      1.0000 0.00210  0.14680  0.62690  Biso   1.000  C
  H29      1.0000 0.04320  0.84590  0.41490  Biso   1.000  H
  H30      1.0000 0.95680  0.15410  0.58510  Biso   1.000  H
  C39      1.0000 0.91890  0.93270  0.34640  Biso   1.000  C
  C40      1.0000 0.08110  0.06730  0.65360  Biso   1.000  C
  H31      1.0000 0.91020  0.97690  0.37220  Biso   1.000  H
  H32      1.0000 0.08980  0.02310  0.62780  Biso   1.000  H
  C41      1.0000 0.85610  0.94510  0.28390  Biso   1.000  C
  C42      1.0000 0.14390  0.05490  0.71610  Biso   1.000  C
  H33      1.0000 0.80500  0.99850  0.26510  Biso   1.000  H
  H34      1.0000 0.19500  0.00150  0.73490  Biso   1.000  H
  C43      1.0000 0.86770  0.87840  0.24790  Biso   1.000  C
  C44      1.0000 0.13230  0.12160  0.75210  Biso   1.000  C
  H35      1.0000 0.82390  0.88770  0.20440  Biso   1.000  H
  H36      1.0000 0.17610  0.11230  0.79560  Biso   1.000  H
  C45      1.0000 0.02050  0.60660  0.30080  Biso   1.000  C
  C46      1.0000 0.97950  0.39340  0.69920  Biso   1.000  C
  C47      1.0000 0.96820  0.52960  0.36450  Biso   1.000  C
  C48      1.0000 0.03180  0.47040  0.63550  Biso   1.000  C
  H37      1.0000 0.89410  0.53180  0.36840  Biso   1.000  H
  H38      1.0000 0.10590  0.46820  0.63160  Biso   1.000  H
  C49      1.0000 0.02470  0.44900  0.42290  Biso   1.000  C
  C50      1.0000 0.97530  0.55100  0.57710  Biso   1.000  C
  H39      1.0000 0.98880  0.39670  0.46680  Biso   1.000  H
  H40      1.0000 0.01120  0.60330  0.53320  Biso   1.000  H
  C51      1.0000 0.13390  0.44500  0.41710  Biso   1.000  C
  C52      1.0000 0.86610  0.55500  0.58290  Biso   1.000  C
  H41      1.0000 0.17190  0.39010  0.45700  Biso   1.000  H
  H42      1.0000 0.82810  0.60990  0.54300  Biso   1.000  H
  C53      1.0000 0.18550  0.51960  0.35430  Biso   1.000  C
  C54      1.0000 0.81450  0.48040  0.64570  Biso   1.000  C
  H43      1.0000 0.25980  0.51590  0.34950  Biso   1.000  H
  H44      1.0000 0.74020  0.48410  0.65050  Biso   1.000  H
  C55      1.0000 0.12980  0.60240  0.29630  Biso   1.000  C
  C56      1.0000 0.87020  0.39760  0.70370  Biso   1.000  C
  H45      1.0000 0.16610  0.65530  0.25430  Biso   1.000  H
  H46      1.0000 0.83390  0.34470  0.74570  Biso   1.000  H
  P3       1.0000 0.66994  0.82008  0.11905  Biso   1.000  P
  P4       1.0000 0.33006  0.17992  0.88095  Biso   1.000  P
  C57      1.0000 0.71700  0.88490  0.99830  Biso   1.000  C
  C58      1.0000 0.28300  0.11510  0.00170  Biso   1.000  C
  C59      1.0000 0.65380  0.91140  0.93010  Biso   1.000  C
  C60      1.0000 0.34620  0.08860  0.06990  Biso   1.000  C
  H47      1.0000 0.58230  0.89860  0.94540  Biso   1.000  H
  H48      1.0000 0.41770  0.10140  0.05460  Biso   1.000  H
  C61      1.0000 0.69510  0.95650  0.84020  Biso   1.000  C
  C62      1.0000 0.30490  0.04350  0.15980  Biso   1.000  C
  H49      1.0000 0.65210  0.97330  0.79400  Biso   1.000  H
  H50      1.0000 0.34790  0.02670  0.20600  Biso   1.000  H
  C63      1.0000 0.79870  0.97720  0.81730  Biso   1.000  C
  C64      1.0000 0.20130  0.02280  0.18270  Biso   1.000  C
  H51      1.0000 0.82580  0.00970  0.75560  Biso   1.000  H
  H52      1.0000 0.17420  0.99030  0.24440  Biso   1.000  H
  C65      1.0000 0.86280  0.95070  0.88390  Biso   1.000  C
  C66      1.0000 0.13720  0.04930  0.11610  Biso   1.000  C
  H53      1.0000 0.93410  0.96410  0.86820  Biso   1.000  H
  H54      1.0000 0.06590  0.03590  0.13180  Biso   1.000  H
  C67      1.0000 0.82180  0.90420  0.97420  Biso   1.000  C
  C68      1.0000 0.17820  0.09580  0.02580  Biso   1.000  C
  H55      1.0000 0.86580  0.88540  0.02010  Biso   1.000  H
  H56      1.0000 0.13420  0.11460  0.97990  Biso   1.000  H
  C69      1.0000 0.54670  0.77910  0.11890  Biso   1.000  C
  C70      1.0000 0.45330  0.22090  0.88110  Biso   1.000  C
  C71      1.0000 0.44680  0.82530  0.13180  Biso   1.000  C
  C72      1.0000 0.55320  0.17470  0.86820  Biso   1.000  C
  H57      1.0000 0.44040  0.88130  0.14110  Biso   1.000  H
  H58      1.0000 0.55960  0.11870  0.85890  Biso   1.000  H
  C73      1.0000 0.35740  0.78820  0.13090  Biso   1.000  C
  C74      1.0000 0.64260  0.21180  0.86910  Biso   1.000  C
  H59      1.0000 0.29020  0.81940  0.14060  Biso   1.000  H
  H60      1.0000 0.70980  0.18060  0.85940  Biso   1.000  H
  C75      1.0000 0.36300  0.70830  0.11660  Biso   1.000  C
  C76      1.0000 0.63700  0.29170  0.88340  Biso   1.000  C
  H61      1.0000 0.30090  0.68430  0.11650  Biso   1.000  H
  H62      1.0000 0.69910  0.31570  0.88350  Biso   1.000  H
  C77      1.0000 0.46070  0.66350  0.10230  Biso   1.000  C
  C78      1.0000 0.53930  0.33650  0.89770  Biso   1.000  C
  H63      1.0000 0.46600  0.60870  0.09110  Biso   1.000  H
  H64      1.0000 0.53400  0.39130  0.90890  Biso   1.000  H
  C79      1.0000 0.55170  0.69790  0.10400  Biso   1.000  C
  C80      1.0000 0.44830  0.30210  0.89600  Biso   1.000  C
  H65      1.0000 0.61820  0.66550  0.09500  Biso   1.000  H
  H66      1.0000 0.38180  0.33450  0.90500  Biso   1.000  H
  C81      1.0000 0.62630  0.91610  0.15710  Biso   1.000  C
  C82      1.0000 0.37370  0.08390  0.84290  Biso   1.000  C
  C83      1.0000 0.59010  0.88930  0.24790  Biso   1.000  C
  C84      1.0000 0.40990  0.11070  0.75210  Biso   1.000  C
  H67      1.0000 0.58580  0.82390  0.28740  Biso   1.000  H
  H68      1.0000 0.41420  0.17610  0.71260  Biso   1.000  H
  C85      1.0000 0.55990  0.95820  0.28210  Biso   1.000  C
  C86      1.0000 0.44010  0.04180  0.71790  Biso   1.000  C
  H69      1.0000 0.53480  0.93940  0.34430  Biso   1.000  H
  H70      1.0000 0.46520  0.06060  0.65570  Biso   1.000  H
  C87      1.0000 0.56640  0.05190  0.22560  Biso   1.000  C
  C88      1.0000 0.43360  0.94810  0.77440  Biso   1.000  C
  H71      1.0000 0.54680  0.09840  0.24890  Biso   1.000  H
  H72      1.0000 0.45320  0.90160  0.75110  Biso   1.000  H
  C89      1.0000 0.60170  0.08010  0.13420  Biso   1.000  C
  C90      1.0000 0.39830  0.91990  0.86580  Biso   1.000  C
  H73      1.0000 0.60550  0.14570  0.09510  Biso   1.000  H
  H74      1.0000 0.39450  0.85430  0.90490  Biso   1.000  H
  C91      1.0000 0.63160  0.01150  0.10010  Biso   1.000  C
  C92      1.0000 0.36840  0.98850  0.89990  Biso   1.000  C
  H75      1.0000 0.65560  0.03060  0.03770  Biso   1.000  H
  H76      1.0000 0.34440  0.96940  0.96230  Biso   1.000  H
  P5       1.0000 0.62850  0.30660  0.26540  Biso   1.000  P
  P6       1.0000 0.37150  0.69340  0.73460  Biso   1.000  P
  F1       1.0000 0.56790  0.30440  0.36090  Biso   1.000  F
  F2       1.0000 0.43210  0.69560  0.63910  Biso   1.000  F
  F3       1.0000 0.71200  0.34370  0.29230  Biso   1.000  F
  F4       1.0000 0.28800  0.65630  0.70770  Biso   1.000  F
  F5       1.0000 0.57610  0.40970  0.22200  Biso   1.000  F
  F6       1.0000 0.42390  0.59030  0.77800  Biso   1.000  F
  F7       1.0000 0.67630  0.20380  0.31290  Biso   1.000  F
  F8       1.0000 0.32370  0.79620  0.68710  Biso   1.000  F
  F9       1.0000 0.68320  0.31380  0.17870  Biso   1.000  F
  F10      1.0000 0.31680  0.68620  0.82130  Biso   1.000  F
  F11      1.0000 0.53340  0.26550  0.25950  Biso   1.000  F
  F12      1.0000 0.46660  0.73450  0.74050  Biso   1.000  F
  C93      1.0000 0.35620  0.40050  0.11690  Biso   1.000  C
  C94      1.0000 0.64380  0.59950  0.88310  Biso   1.000  C
  H77      1.0000 0.42750  0.39660  0.13350  Biso   1.000  H
  H78      1.0000 0.57250  0.60340  0.86650  Biso   1.000  H
  Cl1      1.0000 0.33730  0.28790  0.12670  Biso   1.000  Cl
  Cl2      1.0000 0.66270  0.71210  0.87330  Biso   1.000  Cl
  Cl3      1.0000 0.26170  0.43340  0.19120  Biso   1.000  Cl
  Cl4      1.0000 0.73830  0.56660  0.80880  Biso   1.000  Cl
  Cl5      1.0000 0.35040  0.48660  0.00670  Biso   1.000  Cl
  Cl6      1.0000 0.64960  0.51340  0.99330  Biso   1.000  Cl
  C95      1.0000 0.94840  0.20560  0.33050  Biso   1.000  C
  C96      1.0000 0.05160  0.79440  0.66950  Biso   1.000  C
  H79      1.0000 0.87130  0.22620  0.33540  Biso   1.000  H
  H80      1.0000 0.12870  0.77380  0.66460  Biso   1.000  H
  Cl7      1.0000 0.98030  0.18750  0.23610  Biso   1.000  Cl
  Cl8      1.0000 0.01970  0.81250  0.76390  Biso   1.000  Cl
  Cl9      1.0000 0.01280  0.29250  0.33340  Biso   1.000  Cl
  Cl10     1.0000 0.98720  0.70750  0.66660  Biso   1.000  Cl
  Cl11     1.0000 0.97060  0.10100  0.42680  Biso   1.000  Cl
  Cl12     1.0000 0.02940  0.89900  0.57320  Biso   1.000  Cl
  C97      1.0000 0.68800  0.26110  0.53920  Biso   1.000  C
  C98      1.0000 0.31200  0.73890  0.46080  Biso   1.000  C
  H81      1.0000 0.62920  0.28710  0.50090  Biso   1.000  H
  H82      1.0000 0.37080  0.71290  0.49910  Biso   1.000  H
  Cl13     1.0000 0.72040  0.14230  0.55940  Biso   1.000  Cl
  Cl14     1.0000 0.27960  0.85770  0.44060  Biso   1.000  Cl
  Cl15     1.0000 0.78900  0.32980  0.48440  Biso   1.000  Cl
  Cl16     1.0000 0.21100  0.67020  0.51560  Biso   1.000  Cl
  Cl17     1.0000 0.64270  0.27080  0.64270  Biso   1.000  Cl
  Cl18     1.0000 0.35730  0.72920  0.35730  Biso   1.000  Cl
  C99      1.0000 0.63570  0.87780  0.55520  Biso   1.000  C
  C100     1.0000 0.36430  0.12220  0.44480  Biso   1.000  C
  H83      1.0000 0.56110  0.87010  0.58390  Biso   1.000  H
  H84      1.0000 0.43890  0.12990  0.41610  Biso   1.000  H
  Cl19     1.0000 0.64250  0.99120  0.46880  Biso   1.000  Cl
  Cl20     1.0000 0.35750  0.00880  0.53120  Biso   1.000  Cl
  Cl21     1.0000 0.67690  0.79490  0.50330  Biso   1.000  Cl
  Cl22     1.0000 0.32310  0.20510  0.49670  Biso   1.000  Cl
  Cl23     1.0000 0.70940  0.86440  0.63170  Biso   1.000  Cl
  Cl24     1.0000 0.29060  0.13560  0.36830  Biso   1.000  Cl
