data_image0
_cell_length_a       10.6227
_cell_length_b       12.5763
_cell_length_c       14.1396
_cell_angle_alpha    63.634
_cell_angle_beta     72.594
_cell_angle_gamma    74.095

_symmetry_space_group_name_H-M    "P 1"
_symmetry_int_tables_number       1

loop_
  _symmetry_equiv_pos_as_xyz
  'x, y, z'

loop_
  _atom_site_label
  _atom_site_occupancy
  _atom_site_fract_x
  _atom_site_fract_y
  _atom_site_fract_z
  _atom_site_thermal_displace_type
  _atom_site_B_iso_or_equiv
  _atom_site_type_symbol
  Cu1      1.0000 0.18839  0.47304  0.17227  Biso   1.000  Cu
  Cu2      1.0000 0.81161  0.52696  0.82773  Biso   1.000  Cu
  P1       1.0000 0.19109  0.32011  0.32743  Biso   1.000  P
  P2       1.0000 0.80891  0.67989  0.67257  Biso   1.000  P
  N1       1.0000 0.07640  0.48730  0.06940  Biso   1.000  N
  N2       1.0000 0.92360  0.51270  0.93060  Biso   1.000  N
  C1       1.0000 0.95590  0.46190  0.10380  Biso   1.000  C
  C2       1.0000 0.04410  0.53810  0.89620  Biso   1.000  C
  H1       1.0000 0.91990  0.43330  0.17830  Biso   1.000  H
  H2       1.0000 0.08010  0.56670  0.82170  Biso   1.000  H
  C3       1.0000 0.11960  0.52500  0.96400  Biso   1.000  C
  C4       1.0000 0.88040  0.47500  0.03600  Biso   1.000  C
  H3       1.0000 0.20660  0.54360  0.93460  Biso   1.000  H
  H4       1.0000 0.79340  0.45640  0.06540  Biso   1.000  H
  N3       1.0000 0.37720  0.49040  0.06850  Biso   1.000  N
  N4       1.0000 0.62280  0.50960  0.93150  Biso   1.000  N
  C5       1.0000 0.47330  0.39570  0.07250  Biso   1.000  C
  C6       1.0000 0.52670  0.60430  0.92750  Biso   1.000  C
  H5       1.0000 0.45650  0.31920  0.12430  Biso   1.000  H
  H6       1.0000 0.54350  0.68080  0.87570  Biso   1.000  H
  C7       1.0000 0.40660  0.59460  0.99480  Biso   1.000  C
  C8       1.0000 0.59340  0.40540  0.00520  Biso   1.000  C
  H7       1.0000 0.34200  0.66420  0.98880  Biso   1.000  H
  H8       1.0000 0.65800  0.33580  0.01120  Biso   1.000  H
  N5       1.0000 0.12970  0.64680  0.16870  Biso   1.000  N
  N6       1.0000 0.87030  0.35320  0.83130  Biso   1.000  N
  C9       1.0000 0.01470  0.71640  0.14220  Biso   1.000  C
  C10      1.0000 0.98530  0.28360  0.85780  Biso   1.000  C
  H9       1.0000 0.95410  0.68560  0.12820  Biso   1.000  H
  H10      1.0000 0.04590  0.31440  0.87180  Biso   1.000  H
  C11      1.0000 0.98490  0.83320  0.13550  Biso   1.000  C
  C12      1.0000 0.01510  0.16680  0.86450  Biso   1.000  C
  H11      1.0000 0.89940  0.87680  0.12510  Biso   1.000  H
  H12      1.0000 0.10060  0.12320  0.87490  Biso   1.000  H
  N7       1.0000 0.06640  0.88440  0.14250  Biso   1.000  N
  N8       1.0000 0.93360  0.11560  0.85750  Biso   1.000  N
  C13      1.0000 0.17480  0.82150  0.16720  Biso   1.000  C
  C14      1.0000 0.82520  0.17850  0.83280  Biso   1.000  C
  H13      1.0000 0.23780  0.85810  0.17160  Biso   1.000  H
  H14      1.0000 0.76220  0.14190  0.82840  Biso   1.000  H
  C15      1.0000 0.20500  0.70020  0.18810  Biso   1.000  C
  C16      1.0000 0.79500  0.29980  0.81190  Biso   1.000  C
  H15      1.0000 0.28100  0.65420  0.21690  Biso   1.000  H
  H16      1.0000 0.71900  0.34580  0.78310  Biso   1.000  H
  C17      1.0000 0.28200  0.33220  0.41250  Biso   1.000  C
  C18      1.0000 0.71800  0.66780  0.58750  Biso   1.000  C
  C19      1.0000 0.39350  0.38770  0.36260  Biso   1.000  C
  C20      1.0000 0.60650  0.61230  0.63740  Biso   1.000  C
  H17      1.0000 0.41860  0.42060  0.28700  Biso   1.000  H
  H18      1.0000 0.58140  0.57940  0.71300  Biso   1.000  H
  C21      1.0000 0.46790  0.39490  0.42350  Biso   1.000  C
  C22      1.0000 0.53210  0.60510  0.57650  Biso   1.000  C
  H19      1.0000 0.54670  0.42860  0.38970  Biso   1.000  H
  H20      1.0000 0.45330  0.57140  0.61030  Biso   1.000  H
  C23      1.0000 0.42700  0.35290  0.53370  Biso   1.000  C
  C24      1.0000 0.57300  0.64710  0.46630  Biso   1.000  C
  H21      1.0000 0.47690  0.36020  0.57470  Biso   1.000  H
  H22      1.0000 0.52310  0.63980  0.42530  Biso   1.000  H
  C25      1.0000 0.31480  0.30060  0.58460  Biso   1.000  C
  C26      1.0000 0.68520  0.69940  0.41540  Biso   1.000  C
  H23      1.0000 0.28750  0.27210  0.66010  Biso   1.000  H
  H24      1.0000 0.71250  0.72790  0.33990  Biso   1.000  H
  C27      1.0000 0.24240  0.29020  0.52420  Biso   1.000  C
  C28      1.0000 0.75760  0.70980  0.47580  Biso   1.000  C
  H25      1.0000 0.16510  0.25430  0.55870  Biso   1.000  H
  H26      1.0000 0.83490  0.74570  0.44130  Biso   1.000  H
  C29      1.0000 0.03230  0.28660  0.41510  Biso   1.000  C
  C30      1.0000 0.96770  0.71340  0.58490  Biso   1.000  C
  C31      1.0000 0.93460  0.38310  0.42370  Biso   1.000  C
  C32      1.0000 0.06540  0.61690  0.57630  Biso   1.000  C
  H27      1.0000 0.95090  0.46220  0.38090  Biso   1.000  H
  H28      1.0000 0.04910  0.53780  0.61910  Biso   1.000  H
  C33      1.0000 0.81410  0.36310  0.49450  Biso   1.000  C
  C34      1.0000 0.18590  0.63690  0.50550  Biso   1.000  C
  H29      1.0000 0.74830  0.42910  0.49910  Biso   1.000  H
  H30      1.0000 0.25170  0.57090  0.50090  Biso   1.000  H
  C35      1.0000 0.78880  0.25090  0.55730  Biso   1.000  C
  C36      1.0000 0.21120  0.74910  0.44270  Biso   1.000  C
  H31      1.0000 0.70710  0.23920  0.60720  Biso   1.000  H
  H32      1.0000 0.29290  0.76080  0.39280  Biso   1.000  H
  C37      1.0000 0.88140  0.15270  0.54900  Biso   1.000  C
  C38      1.0000 0.11860  0.84730  0.45100  Biso   1.000  C
  H33      1.0000 0.86240  0.07420  0.59060  Biso   1.000  H
  H34      1.0000 0.13760  0.92580  0.40940  Biso   1.000  H
  C39      1.0000 0.00200  0.17210  0.47890  Biso   1.000  C
  C40      1.0000 0.99800  0.82790  0.52110  Biso   1.000  C
  H35      1.0000 0.06620  0.10550  0.47380  Biso   1.000  H
  H36      1.0000 0.93380  0.89450  0.52620  Biso   1.000  H
  C41      1.0000 0.27830  0.18010  0.31430  Biso   1.000  C
  C42      1.0000 0.72170  0.81990  0.68570  Biso   1.000  C
  C43      1.0000 0.35530  0.09190  0.38290  Biso   1.000  C
  C44      1.0000 0.64470  0.90810  0.61710  Biso   1.000  C
  H37      1.0000 0.36160  0.10090  0.44380  Biso   1.000  H
  H38      1.0000 0.63840  0.89910  0.55620  Biso   1.000  H
  C45      1.0000 0.42400  0.99050  0.36540  Biso   1.000  C
  C46      1.0000 0.57600  0.00950  0.63460  Biso   1.000  C
  H39      1.0000 0.47330  0.92950  0.41550  Biso   1.000  H
  H40      1.0000 0.52670  0.07050  0.58450  Biso   1.000  H
  C47      1.0000 0.42030  0.97880  0.27600  Biso   1.000  C
  C48      1.0000 0.57970  0.02120  0.72400  Biso   1.000  C
  H41      1.0000 0.47160  0.91150  0.26190  Biso   1.000  H
  H42      1.0000 0.52840  0.08850  0.73810  Biso   1.000  H
  C49      1.0000 0.34340  0.06320  0.20580  Biso   1.000  C
  C50      1.0000 0.65660  0.93680  0.79420  Biso   1.000  C
  H43      1.0000 0.33810  0.05200  0.14570  Biso   1.000  H
  H44      1.0000 0.66190  0.94800  0.85430  Biso   1.000  H
  C51      1.0000 0.27290  0.16580  0.22300  Biso   1.000  C
  C52      1.0000 0.72710  0.83420  0.77700  Biso   1.000  C
  H45      1.0000 0.22180  0.22540  0.17360  Biso   1.000  H
  H46      1.0000 0.77820  0.77460  0.82640  Biso   1.000  H
  P3       1.0000 0.61480  0.69970  0.14050  Biso   1.000  P
  P4       1.0000 0.38520  0.30030  0.85950  Biso   1.000  P
  F1       1.0000 0.71160  0.61210  0.21980  Biso   1.000  F
  F2       1.0000 0.28840  0.38790  0.78020  Biso   1.000  F
  F3       1.0000 0.51660  0.78270  0.06170  Biso   1.000  F
  F4       1.0000 0.48340  0.21730  0.93830  Biso   1.000  F
  F5       1.0000 0.65450  0.80850  0.14480  Biso   1.000  F
  F6       1.0000 0.34550  0.19150  0.85520  Biso   1.000  F
  F7       1.0000 0.73270  0.70590  0.03970  Biso   1.000  F
  F8       1.0000 0.26730  0.29410  0.96030  Biso   1.000  F
  F9       1.0000 0.57750  0.58450  0.14160  Biso   1.000  F
  F10      1.0000 0.42250  0.41550  0.85840  Biso   1.000  F
  F11      1.0000 0.49320  0.69880  0.23890  Biso   1.000  F
  F12      1.0000 0.50680  0.30120  0.76110  Biso   1.000  F
