data_image0
_cell_length_a       14.3365
_cell_length_b       18.757
_cell_length_c       22.7858
_cell_angle_alpha    90
_cell_angle_beta     120.536
_cell_angle_gamma    90

_symmetry_space_group_name_H-M    "P 1"
_symmetry_int_tables_number       1

loop_
  _symmetry_equiv_pos_as_xyz
  'x, y, z'

loop_
  _atom_site_label
  _atom_site_occupancy
  _atom_site_fract_x
  _atom_site_fract_y
  _atom_site_fract_z
  _atom_site_thermal_displace_type
  _atom_site_B_iso_or_equiv
  _atom_site_type_symbol
  Cu1      1.0000 0.38673  0.93658  0.73138  Biso   1.000  Cu
  Cu2      1.0000 0.61327  0.43658  0.76862  Biso   1.000  Cu
  Cu3      1.0000 0.61327  0.06342  0.26862  Biso   1.000  Cu
  Cu4      1.0000 0.38673  0.56342  0.23138  Biso   1.000  Cu
  P1       1.0000 0.43181  0.96072  0.84043  Biso   1.000  P
  P2       1.0000 0.56819  0.46072  0.65957  Biso   1.000  P
  P3       1.0000 0.56819  0.03928  0.15957  Biso   1.000  P
  P4       1.0000 0.43181  0.53928  0.34043  Biso   1.000  P
  P5       1.0000 0.22831  0.96577  0.63672  Biso   1.000  P
  P6       1.0000 0.77169  0.46577  0.86328  Biso   1.000  P
  P7       1.0000 0.77169  0.03423  0.36328  Biso   1.000  P
  P8       1.0000 0.22831  0.53423  0.13672  Biso   1.000  P
  N1       1.0000 0.39620  0.82554  0.73121  Biso   1.000  N
  N2       1.0000 0.60380  0.32554  0.76879  Biso   1.000  N
  N3       1.0000 0.60380  0.17446  0.26879  Biso   1.000  N
  N4       1.0000 0.39620  0.67446  0.23121  Biso   1.000  N
  N5       1.0000 0.49790  0.48820  0.78353  Biso   1.000  N
  N6       1.0000 0.50210  0.98820  0.71647  Biso   1.000  N
  N7       1.0000 0.50210  0.51180  0.21647  Biso   1.000  N
  N8       1.0000 0.49790  0.01180  0.28353  Biso   1.000  N
  C1       1.0000 0.48550  0.78790  0.74700  Biso   1.000  C
  C2       1.0000 0.51450  0.28790  0.75300  Biso   1.000  C
  C3       1.0000 0.51450  0.21210  0.25300  Biso   1.000  C
  C4       1.0000 0.48550  0.71210  0.24700  Biso   1.000  C
  H1       1.0000 0.54460  0.81180  0.74880  Biso   1.000  H
  H2       1.0000 0.45540  0.31180  0.75120  Biso   1.000  H
  H3       1.0000 0.45540  0.18820  0.25120  Biso   1.000  H
  H4       1.0000 0.54460  0.68820  0.24880  Biso   1.000  H
  C5       1.0000 0.49460  0.71580  0.76060  Biso   1.000  C
  C6       1.0000 0.50540  0.21580  0.73940  Biso   1.000  C
  C7       1.0000 0.50540  0.28420  0.23940  Biso   1.000  C
  C8       1.0000 0.49460  0.78420  0.26060  Biso   1.000  C
  H5       1.0000 0.55830  0.69140  0.77060  Biso   1.000  H
  H6       1.0000 0.44170  0.19140  0.72940  Biso   1.000  H
  H7       1.0000 0.44170  0.30860  0.22940  Biso   1.000  H
  H8       1.0000 0.55830  0.80860  0.27060  Biso   1.000  H
  C9       1.0000 0.40980  0.67930  0.75954  Biso   1.000  C
  C10      1.0000 0.59020  0.17930  0.74046  Biso   1.000  C
  C11      1.0000 0.59020  0.32070  0.24046  Biso   1.000  C
  C12      1.0000 0.40980  0.82070  0.25954  Biso   1.000  C
  C13      1.0000 0.31640  0.71780  0.74170  Biso   1.000  C
  C14      1.0000 0.68360  0.21780  0.75830  Biso   1.000  C
  C15      1.0000 0.68360  0.28220  0.25830  Biso   1.000  C
  C16      1.0000 0.31640  0.78220  0.24170  Biso   1.000  C
  H9       1.0000 0.25590  0.69510  0.73900  Biso   1.000  H
  H10      1.0000 0.74410  0.19510  0.76100  Biso   1.000  H
  H11      1.0000 0.74410  0.30490  0.26100  Biso   1.000  H
  H12      1.0000 0.25590  0.80490  0.23900  Biso   1.000  H
  C17      1.0000 0.31300  0.78960  0.72810  Biso   1.000  C
  C18      1.0000 0.68700  0.28960  0.77190  Biso   1.000  C
  C19      1.0000 0.68700  0.21040  0.27190  Biso   1.000  C
  C20      1.0000 0.31300  0.71040  0.22810  Biso   1.000  C
  H13      1.0000 0.24900  0.81470  0.71590  Biso   1.000  H
  H14      1.0000 0.75100  0.31470  0.78410  Biso   1.000  H
  H15      1.0000 0.75100  0.18530  0.28410  Biso   1.000  H
  H16      1.0000 0.24900  0.68530  0.21590  Biso   1.000  H
  C21      1.0000 0.41910  0.60307  0.77866  Biso   1.000  C
  C22      1.0000 0.58090  0.10307  0.72134  Biso   1.000  C
  C23      1.0000 0.58090  0.39693  0.22134  Biso   1.000  C
  C24      1.0000 0.41910  0.89693  0.27866  Biso   1.000  C
  C25      1.0000 0.48190  0.55717  0.76544  Biso   1.000  C
  C26      1.0000 0.51810  0.05717  0.73456  Biso   1.000  C
  C27      1.0000 0.51810  0.44283  0.23456  Biso   1.000  C
  C28      1.0000 0.48190  0.94283  0.26544  Biso   1.000  C
  H17      1.0000 0.51540  0.57550  0.74230  Biso   1.000  H
  H18      1.0000 0.48460  0.07550  0.75770  Biso   1.000  H
  H19      1.0000 0.48460  0.42450  0.25770  Biso   1.000  H
  H20      1.0000 0.51540  0.92450  0.24230  Biso   1.000  H
  C29      1.0000 0.44770  0.46300  0.81470  Biso   1.000  C
  C30      1.0000 0.55230  0.96300  0.68530  Biso   1.000  C
  C31      1.0000 0.55230  0.53700  0.18530  Biso   1.000  C
  C32      1.0000 0.44770  0.03700  0.31470  Biso   1.000  C
  H21      1.0000 0.45770  0.41480  0.82800  Biso   1.000  H
  H22      1.0000 0.54230  0.91480  0.67200  Biso   1.000  H
  H23      1.0000 0.54230  0.58520  0.17200  Biso   1.000  H
  H24      1.0000 0.45770  0.08520  0.32800  Biso   1.000  H
  C33      1.0000 0.38210  0.50390  0.82850  Biso   1.000  C
  C34      1.0000 0.61790  0.00390  0.67150  Biso   1.000  C
  C35      1.0000 0.61790  0.49610  0.17150  Biso   1.000  C
  C36      1.0000 0.38210  0.99610  0.32850  Biso   1.000  C
  H25      1.0000 0.34720  0.48360  0.85000  Biso   1.000  H
  H26      1.0000 0.65280  0.98360  0.65000  Biso   1.000  H
  H27      1.0000 0.65280  0.51640  0.15000  Biso   1.000  H
  H28      1.0000 0.34720  0.01640  0.35000  Biso   1.000  H
  C37      1.0000 0.36700  0.57520  0.81080  Biso   1.000  C
  C38      1.0000 0.63300  0.07520  0.68920  Biso   1.000  C
  C39      1.0000 0.63300  0.42480  0.18920  Biso   1.000  C
  C40      1.0000 0.36700  0.92480  0.31080  Biso   1.000  C
  H29      1.0000 0.32270  0.60410  0.82030  Biso   1.000  H
  H30      1.0000 0.67730  0.10410  0.67970  Biso   1.000  H
  H31      1.0000 0.67730  0.39590  0.17970  Biso   1.000  H
  H32      1.0000 0.32270  0.89590  0.32030  Biso   1.000  H
  C41      1.0000 0.34350  0.91950  0.86672  Biso   1.000  C
  C42      1.0000 0.65650  0.41950  0.63328  Biso   1.000  C
  C43      1.0000 0.65650  0.08050  0.13328  Biso   1.000  C
  C44      1.0000 0.34350  0.58050  0.36672  Biso   1.000  C
  C45      1.0000 0.56500  0.92770  0.90390  Biso   1.000  C
  C46      1.0000 0.43500  0.42770  0.59610  Biso   1.000  C
  C47      1.0000 0.43500  0.07230  0.09610  Biso   1.000  C
  C48      1.0000 0.56500  0.57230  0.40390  Biso   1.000  C
  C49      1.0000 0.43290  0.05540  0.85840  Biso   1.000  C
  C50      1.0000 0.56710  0.55540  0.64160  Biso   1.000  C
  C51      1.0000 0.56710  0.94460  0.14160  Biso   1.000  C
  C52      1.0000 0.43290  0.44460  0.35840  Biso   1.000  C
  C53      1.0000 0.34390  0.84570  0.87080  Biso   1.000  C
  C54      1.0000 0.65610  0.34570  0.62920  Biso   1.000  C
  C55      1.0000 0.65610  0.15430  0.12920  Biso   1.000  C
  C56      1.0000 0.34390  0.65430  0.37080  Biso   1.000  C
  H33      1.0000 0.39540  0.81950  0.86590  Biso   1.000  H
  H34      1.0000 0.60460  0.31950  0.63410  Biso   1.000  H
  H35      1.0000 0.60460  0.18050  0.13410  Biso   1.000  H
  H36      1.0000 0.39540  0.68050  0.36590  Biso   1.000  H
  C57      1.0000 0.59240  0.91380  0.97050  Biso   1.000  C
  C58      1.0000 0.40760  0.41380  0.52950  Biso   1.000  C
  C59      1.0000 0.40760  0.08620  0.02950  Biso   1.000  C
  C60      1.0000 0.59240  0.58620  0.47050  Biso   1.000  C
  H37      1.0000 0.54200  0.92290  0.98440  Biso   1.000  H
  H38      1.0000 0.45800  0.42290  0.51560  Biso   1.000  H
  H39      1.0000 0.45800  0.07710  0.01560  Biso   1.000  H
  H40      1.0000 0.54200  0.57710  0.48440  Biso   1.000  H
  C61      1.0000 0.51840  0.08960  0.91370  Biso   1.000  C
  C62      1.0000 0.48160  0.58960  0.58630  Biso   1.000  C
  C63      1.0000 0.48160  0.91040  0.08630  Biso   1.000  C
  C64      1.0000 0.51840  0.41040  0.41370  Biso   1.000  C
  H41      1.0000 0.57810  0.06320  0.94620  Biso   1.000  H
  H42      1.0000 0.42190  0.56320  0.55380  Biso   1.000  H
  H43      1.0000 0.42190  0.93680  0.05380  Biso   1.000  H
  H44      1.0000 0.57810  0.43680  0.44620  Biso   1.000  H
  C65      1.0000 0.27020  0.81020  0.88180  Biso   1.000  C
  C66      1.0000 0.72980  0.31020  0.61820  Biso   1.000  C
  C67      1.0000 0.72980  0.18980  0.11820  Biso   1.000  C
  C68      1.0000 0.27020  0.68980  0.38180  Biso   1.000  C
  H45      1.0000 0.27170  0.76010  0.88440  Biso   1.000  H
  H46      1.0000 0.72830  0.26010  0.61560  Biso   1.000  H
  H47      1.0000 0.72830  0.23990  0.11560  Biso   1.000  H
  H48      1.0000 0.27170  0.73990  0.38440  Biso   1.000  H
  C69      1.0000 0.69390  0.88630  0.01690  Biso   1.000  C
  C70      1.0000 0.30610  0.38630  0.48310  Biso   1.000  C
  C71      1.0000 0.30610  0.11370  0.98310  Biso   1.000  C
  C72      1.0000 0.69390  0.61370  0.51690  Biso   1.000  C
  H49      1.0000 0.71180  0.87680  0.06190  Biso   1.000  H
  H50      1.0000 0.28820  0.37680  0.43810  Biso   1.000  H
  H51      1.0000 0.28820  0.12320  0.93810  Biso   1.000  H
  H52      1.0000 0.71180  0.62320  0.56190  Biso   1.000  H
  C73      1.0000 0.51550  0.16290  0.92080  Biso   1.000  C
  C74      1.0000 0.48450  0.66290  0.57920  Biso   1.000  C
  C75      1.0000 0.48450  0.83710  0.07920  Biso   1.000  C
  C76      1.0000 0.51550  0.33710  0.42080  Biso   1.000  C
  H53      1.0000 0.57360  0.18570  0.95830  Biso   1.000  H
  H54      1.0000 0.42640  0.68570  0.54170  Biso   1.000  H
  H55      1.0000 0.42640  0.81430  0.04170  Biso   1.000  H
  H56      1.0000 0.57360  0.31430  0.45830  Biso   1.000  H
  C77      1.0000 0.19470  0.84760  0.88900  Biso   1.000  C
  C78      1.0000 0.80530  0.34760  0.61100  Biso   1.000  C
  C79      1.0000 0.80530  0.15240  0.11100  Biso   1.000  C
  C80      1.0000 0.19470  0.65240  0.38900  Biso   1.000  C
  H57      1.0000 0.14330  0.82330  0.89550  Biso   1.000  H
  H58      1.0000 0.85670  0.32330  0.60450  Biso   1.000  H
  H59      1.0000 0.85670  0.17670  0.10450  Biso   1.000  H
  H60      1.0000 0.14330  0.67670  0.39550  Biso   1.000  H
  C81      1.0000 0.76790  0.87330  0.99670  Biso   1.000  C
  C82      1.0000 0.23210  0.37330  0.50330  Biso   1.000  C
  C83      1.0000 0.23210  0.12670  0.00330  Biso   1.000  C
  C84      1.0000 0.76790  0.62670  0.49670  Biso   1.000  C
  H61      1.0000 0.83630  0.85460  0.02800  Biso   1.000  H
  H62      1.0000 0.16370  0.35460  0.47200  Biso   1.000  H
  H63      1.0000 0.16370  0.14540  0.97200  Biso   1.000  H
  H64      1.0000 0.83630  0.64540  0.52800  Biso   1.000  H
  C85      1.0000 0.43000  0.20250  0.87430  Biso   1.000  C
  C86      1.0000 0.57000  0.70250  0.62570  Biso   1.000  C
  C87      1.0000 0.57000  0.79750  0.12570  Biso   1.000  C
  C88      1.0000 0.43000  0.29750  0.37430  Biso   1.000  C
  H65      1.0000 0.42950  0.25210  0.87990  Biso   1.000  H
  H66      1.0000 0.57050  0.75210  0.62010  Biso   1.000  H
  H67      1.0000 0.57050  0.74790  0.12010  Biso   1.000  H
  H68      1.0000 0.42950  0.24790  0.37990  Biso   1.000  H
  C89      1.0000 0.19450  0.92070  0.88670  Biso   1.000  C
  C90      1.0000 0.80550  0.42070  0.61330  Biso   1.000  C
  C91      1.0000 0.80550  0.07930  0.11330  Biso   1.000  C
  C92      1.0000 0.19450  0.57930  0.38670  Biso   1.000  C
  H69      1.0000 0.14380  0.94650  0.89280  Biso   1.000  H
  H70      1.0000 0.85620  0.44650  0.60720  Biso   1.000  H
  H71      1.0000 0.85620  0.05350  0.10720  Biso   1.000  H
  H72      1.0000 0.14380  0.55350  0.39280  Biso   1.000  H
  C93      1.0000 0.74190  0.88760  0.93060  Biso   1.000  C
  C94      1.0000 0.25810  0.38760  0.56940  Biso   1.000  C
  C95      1.0000 0.25810  0.11240  0.06940  Biso   1.000  C
  C96      1.0000 0.74190  0.61240  0.43060  Biso   1.000  C
  H73      1.0000 0.79300  0.87930  0.91710  Biso   1.000  H
  H74      1.0000 0.20700  0.37930  0.58290  Biso   1.000  H
  H75      1.0000 0.20700  0.12070  0.08290  Biso   1.000  H
  H76      1.0000 0.79300  0.62070  0.41710  Biso   1.000  H
  C97      1.0000 0.34430  0.16990  0.81920  Biso   1.000  C
  C98      1.0000 0.65570  0.66990  0.68080  Biso   1.000  C
  C99      1.0000 0.65570  0.83010  0.18080  Biso   1.000  C
  C100     1.0000 0.34430  0.33010  0.31920  Biso   1.000  C
  H77      1.0000 0.28500  0.19700  0.78710  Biso   1.000  H
  H78      1.0000 0.71500  0.69700  0.71290  Biso   1.000  H
  H79      1.0000 0.71500  0.80300  0.21290  Biso   1.000  H
  H80      1.0000 0.28500  0.30300  0.28710  Biso   1.000  H
  C101     1.0000 0.26820  0.95700  0.87550  Biso   1.000  C
  C102     1.0000 0.73180  0.45700  0.62450  Biso   1.000  C
  C103     1.0000 0.73180  0.04300  0.12450  Biso   1.000  C
  C104     1.0000 0.26820  0.54300  0.37550  Biso   1.000  C
  H81      1.0000 0.26710  0.00710  0.87380  Biso   1.000  H
  H82      1.0000 0.73290  0.50710  0.62620  Biso   1.000  H
  H83      1.0000 0.73290  0.99290  0.12620  Biso   1.000  H
  H84      1.0000 0.26710  0.49290  0.37380  Biso   1.000  H
  C105     1.0000 0.64110  0.91410  0.88470  Biso   1.000  C
  C106     1.0000 0.35890  0.41410  0.61530  Biso   1.000  C
  C107     1.0000 0.35890  0.08590  0.11530  Biso   1.000  C
  C108     1.0000 0.64110  0.58590  0.38470  Biso   1.000  C
  H85      1.0000 0.62340  0.92320  0.83960  Biso   1.000  H
  H86      1.0000 0.37660  0.42320  0.66040  Biso   1.000  H
  H87      1.0000 0.37660  0.07680  0.16040  Biso   1.000  H
  H88      1.0000 0.62340  0.57680  0.33960  Biso   1.000  H
  C109     1.0000 0.34630  0.09680  0.81140  Biso   1.000  C
  C110     1.0000 0.65370  0.59680  0.68860  Biso   1.000  C
  C111     1.0000 0.65370  0.90320  0.18860  Biso   1.000  C
  C112     1.0000 0.34630  0.40320  0.31140  Biso   1.000  C
  H89      1.0000 0.28790  0.07470  0.77360  Biso   1.000  H
  H90      1.0000 0.71210  0.57470  0.72640  Biso   1.000  H
  H91      1.0000 0.71210  0.92530  0.22640  Biso   1.000  H
  H92      1.0000 0.28790  0.42530  0.27360  Biso   1.000  H
  C113     1.0000 0.22410  0.93810  0.55856  Biso   1.000  C
  C114     1.0000 0.77590  0.43810  0.94144  Biso   1.000  C
  C115     1.0000 0.77590  0.06190  0.44144  Biso   1.000  C
  C116     1.0000 0.22410  0.56190  0.05856  Biso   1.000  C
  C117     1.0000 0.19060  0.06000  0.62201  Biso   1.000  C
  C118     1.0000 0.80940  0.56000  0.87799  Biso   1.000  C
  C119     1.0000 0.80940  0.94000  0.37799  Biso   1.000  C
  C120     1.0000 0.19060  0.44000  0.12201  Biso   1.000  C
  C121     1.0000 0.11260  0.92230  0.63358  Biso   1.000  C
  C122     1.0000 0.88740  0.42230  0.86642  Biso   1.000  C
  C123     1.0000 0.88740  0.07770  0.36642  Biso   1.000  C
  C124     1.0000 0.11260  0.57770  0.13358  Biso   1.000  C
  C125     1.0000 0.26990  0.87270  0.55840  Biso   1.000  C
  C126     1.0000 0.73010  0.37270  0.94160  Biso   1.000  C
  C127     1.0000 0.73010  0.12730  0.44160  Biso   1.000  C
  C128     1.0000 0.26990  0.62730  0.05840  Biso   1.000  C
  H93      1.0000 0.30220  0.84450  0.59800  Biso   1.000  H
  H94      1.0000 0.69780  0.34450  0.90200  Biso   1.000  H
  H95      1.0000 0.69780  0.15550  0.40200  Biso   1.000  H
  H96      1.0000 0.30220  0.65550  0.09800  Biso   1.000  H
  C129     1.0000 0.25880  0.10760  0.61530  Biso   1.000  C
  C130     1.0000 0.74120  0.60760  0.88470  Biso   1.000  C
  C131     1.0000 0.74120  0.89240  0.38470  Biso   1.000  C
  C132     1.0000 0.25880  0.39240  0.11530  Biso   1.000  C
  H97      1.0000 0.32110  0.09070  0.61610  Biso   1.000  H
  H98      1.0000 0.67890  0.59070  0.88390  Biso   1.000  H
  H99      1.0000 0.67890  0.90930  0.38390  Biso   1.000  H
  H100     1.0000 0.32110  0.40930  0.11610  Biso   1.000  H
  C133     1.0000 0.03800  0.88150  0.57900  Biso   1.000  C
  C134     1.0000 0.96200  0.38150  0.92100  Biso   1.000  C
  C135     1.0000 0.96200  0.11850  0.42100  Biso   1.000  C
  C136     1.0000 0.03800  0.61850  0.07900  Biso   1.000  C
  H101     1.0000 0.04420  0.87710  0.54000  Biso   1.000  H
  H102     1.0000 0.95580  0.37710  0.96000  Biso   1.000  H
  H103     1.0000 0.95580  0.12290  0.46000  Biso   1.000  H
  H104     1.0000 0.04420  0.62290  0.04000  Biso   1.000  H
  C137     1.0000 0.26830  0.84920  0.50070  Biso   1.000  C
  C138     1.0000 0.73170  0.34920  0.99930  Biso   1.000  C
  C139     1.0000 0.73170  0.15080  0.49930  Biso   1.000  C
  C140     1.0000 0.26830  0.65080  0.00070  Biso   1.000  C
  H105     1.0000 0.29720  0.80420  0.50060  Biso   1.000  H
  H106     1.0000 0.70280  0.30420  0.99940  Biso   1.000  H
  H107     1.0000 0.70280  0.19580  0.49940  Biso   1.000  H
  H108     1.0000 0.29720  0.69580  0.00060  Biso   1.000  H
  C141     1.0000 0.23540  0.18000  0.60750  Biso   1.000  C
  C142     1.0000 0.76460  0.68000  0.89250  Biso   1.000  C
  C143     1.0000 0.76460  0.82000  0.39250  Biso   1.000  C
  C144     1.0000 0.23540  0.32000  0.10750  Biso   1.000  C
  H109     1.0000 0.28130  0.21180  0.60240  Biso   1.000  H
  H110     1.0000 0.71870  0.71180  0.89760  Biso   1.000  H
  H111     1.0000 0.71870  0.78820  0.39760  Biso   1.000  H
  H112     1.0000 0.28130  0.28820  0.10240  Biso   1.000  H
  C145     1.0000 0.95460  0.84740  0.58150  Biso   1.000  C
  C146     1.0000 0.04540  0.34740  0.91850  Biso   1.000  C
  C147     1.0000 0.04540  0.15260  0.41850  Biso   1.000  C
  C148     1.0000 0.95460  0.65260  0.08150  Biso   1.000  C
  H113     1.0000 0.90540  0.81890  0.54480  Biso   1.000  H
  H114     1.0000 0.09460  0.31890  0.95520  Biso   1.000  H
  H115     1.0000 0.09460  0.18110  0.45520  Biso   1.000  H
  H116     1.0000 0.90540  0.68110  0.04480  Biso   1.000  H
  C149     1.0000 0.22480  0.89090  0.44320  Biso   1.000  C
  C150     1.0000 0.77520  0.39090  0.05680  Biso   1.000  C
  C151     1.0000 0.77520  0.10910  0.55680  Biso   1.000  C
  C152     1.0000 0.22480  0.60910  0.94320  Biso   1.000  C
  H117     1.0000 0.22530  0.87500  0.40430  Biso   1.000  H
  H118     1.0000 0.77470  0.37500  0.09570  Biso   1.000  H
  H119     1.0000 0.77470  0.12500  0.59570  Biso   1.000  H
  H120     1.0000 0.22530  0.62500  0.90430  Biso   1.000  H
  C153     1.0000 0.14510  0.20530  0.60730  Biso   1.000  C
  C154     1.0000 0.85490  0.70530  0.89270  Biso   1.000  C
  C155     1.0000 0.85490  0.79470  0.39270  Biso   1.000  C
  C156     1.0000 0.14510  0.29470  0.10730  Biso   1.000  C
  H121     1.0000 0.13040  0.25440  0.60300  Biso   1.000  H
  H122     1.0000 0.86960  0.75440  0.89700  Biso   1.000  H
  H123     1.0000 0.86960  0.74560  0.39700  Biso   1.000  H
  H124     1.0000 0.13040  0.24560  0.10300  Biso   1.000  H
  C157     1.0000 0.94370  0.85540  0.63840  Biso   1.000  C
  C158     1.0000 0.05630  0.35540  0.86160  Biso   1.000  C
  C159     1.0000 0.05630  0.14460  0.36160  Biso   1.000  C
  C160     1.0000 0.94370  0.64460  0.13840  Biso   1.000  C
  H125     1.0000 0.88590  0.83320  0.63970  Biso   1.000  H
  H126     1.0000 0.11410  0.33320  0.86030  Biso   1.000  H
  H127     1.0000 0.11410  0.16680  0.36030  Biso   1.000  H
  H128     1.0000 0.88590  0.66680  0.13970  Biso   1.000  H
  C161     1.0000 0.18070  0.95530  0.44290  Biso   1.000  C
  C162     1.0000 0.81930  0.45530  0.05710  Biso   1.000  C
  C163     1.0000 0.81930  0.04470  0.55710  Biso   1.000  C
  C164     1.0000 0.18070  0.54470  0.94290  Biso   1.000  C
  H129     1.0000 0.15130  0.98410  0.40370  Biso   1.000  H
  H130     1.0000 0.84870  0.48410  0.09630  Biso   1.000  H
  H131     1.0000 0.84870  0.01590  0.59630  Biso   1.000  H
  H132     1.0000 0.15130  0.51590  0.90370  Biso   1.000  H
  C165     1.0000 0.07710  0.15900  0.61330  Biso   1.000  C
  C166     1.0000 0.92290  0.65900  0.88670  Biso   1.000  C
  C167     1.0000 0.92290  0.84100  0.38670  Biso   1.000  C
  C168     1.0000 0.07710  0.34100  0.11330  Biso   1.000  C
  H133     1.0000 0.01490  0.17630  0.61240  Biso   1.000  H
  H134     1.0000 0.98510  0.67630  0.88760  Biso   1.000  H
  H135     1.0000 0.98510  0.82370  0.38760  Biso   1.000  H
  H136     1.0000 0.01490  0.32370  0.11240  Biso   1.000  H
  C169     1.0000 0.01720  0.89560  0.69280  Biso   1.000  C
  C170     1.0000 0.98280  0.39560  0.80720  Biso   1.000  C
  C171     1.0000 0.98280  0.10440  0.30720  Biso   1.000  C
  C172     1.0000 0.01720  0.60440  0.19280  Biso   1.000  C
  H137     1.0000 0.01010  0.90090  0.73140  Biso   1.000  H
  H138     1.0000 0.98990  0.40090  0.76860  Biso   1.000  H
  H139     1.0000 0.98990  0.09910  0.26860  Biso   1.000  H
  H140     1.0000 0.01010  0.59910  0.23140  Biso   1.000  H
  C173     1.0000 0.17900  0.97890  0.49990  Biso   1.000  C
  C174     1.0000 0.82100  0.47890  0.00010  Biso   1.000  C
  C175     1.0000 0.82100  0.02110  0.50010  Biso   1.000  C
  C176     1.0000 0.17900  0.52110  0.99990  Biso   1.000  C
  H141     1.0000 0.14690  0.02300  0.49870  Biso   1.000  H
  H142     1.0000 0.85310  0.52300  0.00130  Biso   1.000  H
  H143     1.0000 0.85310  0.97700  0.50130  Biso   1.000  H
  H144     1.0000 0.14690  0.47700  0.99870  Biso   1.000  H
  C177     1.0000 0.09910  0.08610  0.62070  Biso   1.000  C
  C178     1.0000 0.90090  0.58610  0.87930  Biso   1.000  C
  C179     1.0000 0.90090  0.91390  0.37930  Biso   1.000  C
  C180     1.0000 0.09910  0.41390  0.12070  Biso   1.000  C
  H145     1.0000 0.05180  0.05460  0.62480  Biso   1.000  H
  H146     1.0000 0.94820  0.55460  0.87520  Biso   1.000  H
  H147     1.0000 0.94820  0.94540  0.37520  Biso   1.000  H
  H148     1.0000 0.05180  0.44540  0.12480  Biso   1.000  H
  C181     1.0000 0.10150  0.92800  0.69050  Biso   1.000  C
  C182     1.0000 0.89850  0.42800  0.80950  Biso   1.000  C
  C183     1.0000 0.89850  0.07200  0.30950  Biso   1.000  C
  C184     1.0000 0.10150  0.57200  0.19050  Biso   1.000  C
  H149     1.0000 0.15250  0.95460  0.72830  Biso   1.000  H
  H150     1.0000 0.84750  0.45460  0.77170  Biso   1.000  H
  H151     1.0000 0.84750  0.04540  0.27170  Biso   1.000  H
  H152     1.0000 0.15250  0.54540  0.22830  Biso   1.000  H
  O1       1.0000 0.12790  0.64651  0.77405  Biso   1.000  O
  O2       1.0000 0.87210  0.14651  0.72595  Biso   1.000  O
  O3       1.0000 0.87210  0.35349  0.22595  Biso   1.000  O
  O4       1.0000 0.12790  0.85349  0.27405  Biso   1.000  O
  C185     1.0000 0.04900  0.70010  0.74990  Biso   1.000  C
  C186     1.0000 0.95100  0.20010  0.75010  Biso   1.000  C
  C187     1.0000 0.95100  0.29990  0.25010  Biso   1.000  C
  C188     1.0000 0.04900  0.79990  0.24990  Biso   1.000  C
  H153     1.0000 0.07210  0.74040  0.73290  Biso   1.000  H
  H154     1.0000 0.92790  0.24040  0.76710  Biso   1.000  H
  H155     1.0000 0.92790  0.25960  0.26710  Biso   1.000  H
  H156     1.0000 0.07210  0.75960  0.23290  Biso   1.000  H
  H157     1.0000 0.03920  0.71740  0.78710  Biso   1.000  H
  H158     1.0000 0.96080  0.21740  0.71290  Biso   1.000  H
  H159     1.0000 0.96080  0.28260  0.21290  Biso   1.000  H
  H160     1.0000 0.03920  0.78260  0.28710  Biso   1.000  H
  C189     1.0000 0.94810  0.67160  0.69570  Biso   1.000  C
  C190     1.0000 0.05190  0.17160  0.80430  Biso   1.000  C
  C191     1.0000 0.05190  0.32840  0.30430  Biso   1.000  C
  C192     1.0000 0.94810  0.82840  0.19570  Biso   1.000  C
  H161     1.0000 0.93550  0.68700  0.65120  Biso   1.000  H
  H162     1.0000 0.06450  0.18700  0.84880  Biso   1.000  H
  H163     1.0000 0.06450  0.31300  0.34880  Biso   1.000  H
  H164     1.0000 0.93550  0.81300  0.15120  Biso   1.000  H
  H165     1.0000 0.88720  0.68740  0.70060  Biso   1.000  H
  H166     1.0000 0.11280  0.18740  0.79940  Biso   1.000  H
  H167     1.0000 0.11280  0.31260  0.29940  Biso   1.000  H
  H168     1.0000 0.88720  0.81260  0.20060  Biso   1.000  H
  C193     1.0000 0.96060  0.59370  0.70280  Biso   1.000  C
  C194     1.0000 0.03940  0.09370  0.79720  Biso   1.000  C
  C195     1.0000 0.03940  0.40630  0.29720  Biso   1.000  C
  C196     1.0000 0.96060  0.90630  0.20280  Biso   1.000  C
  H169     1.0000 0.91940  0.57420  0.72270  Biso   1.000  H
  H170     1.0000 0.08060  0.07420  0.77730  Biso   1.000  H
  H171     1.0000 0.08060  0.42580  0.27730  Biso   1.000  H
  H172     1.0000 0.91940  0.92580  0.22270  Biso   1.000  H
  H173     1.0000 0.93490  0.57130  0.65830  Biso   1.000  H
  H174     1.0000 0.06510  0.07130  0.84170  Biso   1.000  H
  H175     1.0000 0.06510  0.42870  0.34170  Biso   1.000  H
  H176     1.0000 0.93490  0.92870  0.15830  Biso   1.000  H
  C197     1.0000 0.07700  0.58100  0.74790  Biso   1.000  C
  C198     1.0000 0.92300  0.08100  0.75210  Biso   1.000  C
  C199     1.0000 0.92300  0.41900  0.25210  Biso   1.000  C
  C200     1.0000 0.07700  0.91900  0.24790  Biso   1.000  C
  H177     1.0000 0.08890  0.54930  0.78530  Biso   1.000  H
  H178     1.0000 0.91110  0.04930  0.71470  Biso   1.000  H
  H179     1.0000 0.91110  0.45070  0.21470  Biso   1.000  H
  H180     1.0000 0.08890  0.95070  0.28530  Biso   1.000  H
  H181     1.0000 0.10720  0.55830  0.72250  Biso   1.000  H
  H182     1.0000 0.89280  0.05830  0.77750  Biso   1.000  H
  H183     1.0000 0.89280  0.44170  0.27750  Biso   1.000  H
  H184     1.0000 0.10720  0.94170  0.22250  Biso   1.000  H
  O5       1.0000 0.46920  0.82920  0.46260  Biso   1.000  O
  O6       1.0000 0.53080  0.32920  0.03740  Biso   1.000  O
  O7       1.0000 0.53080  0.17080  0.53740  Biso   1.000  O
  O8       1.0000 0.46920  0.67080  0.96260  Biso   1.000  O
  C201     1.0000 0.55220  0.78960  0.46280  Biso   1.000  C
  C202     1.0000 0.44780  0.28960  0.03720  Biso   1.000  C
  C203     1.0000 0.44780  0.21040  0.53720  Biso   1.000  C
  C204     1.0000 0.55220  0.71040  0.96280  Biso   1.000  C
  H185     1.0000 0.54840  0.79400  0.41880  Biso   1.000  H
  H186     1.0000 0.45160  0.29400  0.08120  Biso   1.000  H
  H187     1.0000 0.45160  0.20600  0.58120  Biso   1.000  H
  H188     1.0000 0.54840  0.70600  0.91880  Biso   1.000  H
  H189     1.0000 0.54550  0.73910  0.47110  Biso   1.000  H
  H190     1.0000 0.45450  0.23910  0.02890  Biso   1.000  H
  H191     1.0000 0.45450  0.26090  0.52890  Biso   1.000  H
  H192     1.0000 0.54550  0.76090  0.97110  Biso   1.000  H
  C205     1.0000 0.65510  0.81830  0.51740  Biso   1.000  C
  C206     1.0000 0.34490  0.31830  0.98260  Biso   1.000  C
  C207     1.0000 0.34490  0.18170  0.48260  Biso   1.000  C
  C208     1.0000 0.65510  0.68170  0.01740  Biso   1.000  C
  H193     1.0000 0.71080  0.81800  0.50450  Biso   1.000  H
  H194     1.0000 0.28920  0.31800  0.99550  Biso   1.000  H
  H195     1.0000 0.28920  0.18200  0.49550  Biso   1.000  H
  H196     1.0000 0.71080  0.68200  0.00450  Biso   1.000  H
  H197     1.0000 0.68140  0.79150  0.55990  Biso   1.000  H
  H198     1.0000 0.31860  0.29150  0.94010  Biso   1.000  H
  H199     1.0000 0.31860  0.20850  0.44010  Biso   1.000  H
  H200     1.0000 0.68140  0.70850  0.05990  Biso   1.000  H
  C209     1.0000 0.62420  0.89320  0.52410  Biso   1.000  C
  C210     1.0000 0.37580  0.39320  0.97590  Biso   1.000  C
  C211     1.0000 0.37580  0.10680  0.47590  Biso   1.000  C
  C212     1.0000 0.62420  0.60680  0.02410  Biso   1.000  C
  H201     1.0000 0.66640  0.90920  0.57150  Biso   1.000  H
  H202     1.0000 0.33360  0.40920  0.92850  Biso   1.000  H
  H203     1.0000 0.33360  0.09080  0.42850  Biso   1.000  H
  H204     1.0000 0.66640  0.59080  0.07150  Biso   1.000  H
  H205     1.0000 0.63740  0.92590  0.49560  Biso   1.000  H
  H206     1.0000 0.36260  0.42590  0.00440  Biso   1.000  H
  H207     1.0000 0.36260  0.07410  0.50440  Biso   1.000  H
  H208     1.0000 0.63740  0.57410  0.99560  Biso   1.000  H
  C213     1.0000 0.51310  0.89120  0.50250  Biso   1.000  C
  C214     1.0000 0.48690  0.39120  0.99750  Biso   1.000  C
  C215     1.0000 0.48690  0.10880  0.49750  Biso   1.000  C
  C216     1.0000 0.51310  0.60880  0.00250  Biso   1.000  C
  H209     1.0000 0.47680  0.93370  0.47540  Biso   1.000  H
  H210     1.0000 0.52320  0.43370  0.02460  Biso   1.000  H
  H211     1.0000 0.52320  0.06630  0.52460  Biso   1.000  H
  H212     1.0000 0.47680  0.56630  0.97540  Biso   1.000  H
  H213     1.0000 0.50320  0.89000  0.54190  Biso   1.000  H
  H214     1.0000 0.49680  0.39000  0.95810  Biso   1.000  H
  H215     1.0000 0.49680  0.11000  0.45810  Biso   1.000  H
  H216     1.0000 0.50320  0.61000  0.04190  Biso   1.000  H
  O9       1.0000 0.05150  0.63660  0.57120  Biso   1.000  O
  O10      1.0000 0.94850  0.13660  0.92880  Biso   1.000  O
  O11      1.0000 0.94850  0.36340  0.42880  Biso   1.000  O
  O12      1.0000 0.05150  0.86340  0.07120  Biso   1.000  O
  C217     1.0000 0.08640  0.68270  0.54150  Biso   1.000  C
  C218     1.0000 0.91360  0.18270  0.95850  Biso   1.000  C
  C219     1.0000 0.91360  0.31730  0.45850  Biso   1.000  C
  C220     1.0000 0.08640  0.81730  0.04150  Biso   1.000  C
  H217     1.0000 0.08910  0.73110  0.55860  Biso   1.000  H
  H218     1.0000 0.91090  0.23110  0.94140  Biso   1.000  H
  H219     1.0000 0.91090  0.26890  0.44140  Biso   1.000  H
  H220     1.0000 0.08910  0.76890  0.05860  Biso   1.000  H
  H221     1.0000 0.03700  0.68280  0.49200  Biso   1.000  H
  H222     1.0000 0.96300  0.18280  0.00800  Biso   1.000  H
  H223     1.0000 0.96300  0.31720  0.50800  Biso   1.000  H
  H224     1.0000 0.03700  0.81720  0.99200  Biso   1.000  H
  C221     1.0000 0.19630  0.66000  0.55780  Biso   1.000  C
  C222     1.0000 0.80370  0.16000  0.94220  Biso   1.000  C
  C223     1.0000 0.80370  0.34000  0.44220  Biso   1.000  C
  C224     1.0000 0.19630  0.84000  0.05780  Biso   1.000  C
  H225     1.0000 0.20850  0.66850  0.51980  Biso   1.000  H
  H226     1.0000 0.79150  0.16850  0.98020  Biso   1.000  H
  H227     1.0000 0.79150  0.33150  0.48020  Biso   1.000  H
  H228     1.0000 0.20850  0.83150  0.01980  Biso   1.000  H
  H229     1.0000 0.25330  0.68330  0.59900  Biso   1.000  H
  H230     1.0000 0.74670  0.18330  0.90100  Biso   1.000  H
  H231     1.0000 0.74670  0.31670  0.40100  Biso   1.000  H
  H232     1.0000 0.25330  0.81670  0.09900  Biso   1.000  H
  C225     1.0000 0.10360  0.56790  0.57560  Biso   1.000  C
  C226     1.0000 0.89640  0.06790  0.92440  Biso   1.000  C
  C227     1.0000 0.89640  0.43210  0.42440  Biso   1.000  C
  C228     1.0000 0.10360  0.93210  0.07560  Biso   1.000  C
  H233     1.0000 0.12800  0.54500  0.61970  Biso   1.000  H
  H234     1.0000 0.87200  0.04500  0.88030  Biso   1.000  H
  H235     1.0000 0.87200  0.45500  0.38030  Biso   1.000  H
  H236     1.0000 0.12800  0.95500  0.11970  Biso   1.000  H
  H237     1.0000 0.05400  0.53570  0.53920  Biso   1.000  H
  H238     1.0000 0.94600  0.03570  0.96080  Biso   1.000  H
  H239     1.0000 0.94600  0.46430  0.46080  Biso   1.000  H
  H240     1.0000 0.05400  0.96430  0.03920  Biso   1.000  H
  C229     1.0000 0.18810  0.58520  0.56840  Biso   1.000  C
  C230     1.0000 0.81190  0.08520  0.93160  Biso   1.000  C
  C231     1.0000 0.81190  0.41480  0.43160  Biso   1.000  C
  C232     1.0000 0.18810  0.91480  0.06840  Biso   1.000  C
  H241     1.0000 0.18240  0.55870  0.52970  Biso   1.000  H
  H242     1.0000 0.81760  0.05870  0.97030  Biso   1.000  H
  H243     1.0000 0.81760  0.44130  0.47030  Biso   1.000  H
  H244     1.0000 0.18240  0.94130  0.02970  Biso   1.000  H
  H245     1.0000 0.25490  0.56990  0.60930  Biso   1.000  H
  H246     1.0000 0.74510  0.06990  0.89070  Biso   1.000  H
  H247     1.0000 0.74510  0.43010  0.39070  Biso   1.000  H
  H248     1.0000 0.25490  0.93010  0.10930  Biso   1.000  H
  Cl1      1.0000 0.82093  0.85914  0.76968  Biso   1.000  Cl
  Cl2      1.0000 0.17907  0.35914  0.73032  Biso   1.000  Cl
  Cl3      1.0000 0.17907  0.14086  0.23032  Biso   1.000  Cl
  Cl4      1.0000 0.82093  0.64086  0.26968  Biso   1.000  Cl
  O13      1.0000 0.73740  0.84290  0.78030  Biso   1.000  O
  O14      1.0000 0.26260  0.34290  0.71970  Biso   1.000  O
  O15      1.0000 0.26260  0.15710  0.21970  Biso   1.000  O
  O16      1.0000 0.73740  0.65710  0.28030  Biso   1.000  O
  O17      1.0000 0.86310  0.92040  0.79370  Biso   1.000  O
  O18      1.0000 0.13690  0.42040  0.70630  Biso   1.000  O
  O19      1.0000 0.13690  0.07960  0.20630  Biso   1.000  O
  O20      1.0000 0.86310  0.57960  0.29370  Biso   1.000  O
  O21      1.0000 0.77870  0.87300  0.70270  Biso   1.000  O
  O22      1.0000 0.22130  0.37300  0.79730  Biso   1.000  O
  O23      1.0000 0.22130  0.12700  0.29730  Biso   1.000  O
  O24      1.0000 0.77870  0.62700  0.20270  Biso   1.000  O
  O25      1.0000 0.89510  0.80480  0.78740  Biso   1.000  O
  O26      1.0000 0.10490  0.30480  0.71260  Biso   1.000  O
  O27      1.0000 0.10490  0.19520  0.21260  Biso   1.000  O
  O28      1.0000 0.89510  0.69520  0.28740  Biso   1.000  O
