data_image0
_cell_length_a       10.05
_cell_length_b       18.3035
_cell_length_c       24.8967
_cell_angle_alpha    90
_cell_angle_beta     90
_cell_angle_gamma    90

_symmetry_space_group_name_H-M    "P 1"
_symmetry_int_tables_number       1

loop_
  _symmetry_equiv_pos_as_xyz
  'x, y, z'

loop_
  _atom_site_label
  _atom_site_occupancy
  _atom_site_fract_x
  _atom_site_fract_y
  _atom_site_fract_z
  _atom_site_thermal_displace_type
  _atom_site_B_iso_or_equiv
  _atom_site_type_symbol
  Cu1      1.0000 0.94771  0.56845  0.15281  Biso   1.000  Cu
  Cu2      1.0000 0.55229  0.43155  0.65281  Biso   1.000  Cu
  Cu3      1.0000 0.05229  0.06845  0.34719  Biso   1.000  Cu
  Cu4      1.0000 0.44771  0.93155  0.84719  Biso   1.000  Cu
  C1       1.0000 0.02400  0.06963  0.96546  Biso   1.000  C
  C2       1.0000 0.47600  0.93037  0.46546  Biso   1.000  C
  C3       1.0000 0.97600  0.56963  0.53454  Biso   1.000  C
  C4       1.0000 0.52400  0.43037  0.03454  Biso   1.000  C
  H1       1.0000 0.98170  0.02760  0.98280  Biso   1.000  H
  H2       1.0000 0.51830  0.97240  0.48280  Biso   1.000  H
  H3       1.0000 0.01830  0.52760  0.51720  Biso   1.000  H
  H4       1.0000 0.48170  0.47240  0.01720  Biso   1.000  H
  N1       1.0000 0.20030  0.69967  0.84594  Biso   1.000  N
  N2       1.0000 0.29970  0.30033  0.34594  Biso   1.000  N
  N3       1.0000 0.79970  0.19967  0.65406  Biso   1.000  N
  N4       1.0000 0.70030  0.80033  0.15406  Biso   1.000  N
  H5       1.0000 0.20570  0.66890  0.87190  Biso   1.000  H
  H6       1.0000 0.29430  0.33110  0.37190  Biso   1.000  H
  H7       1.0000 0.79430  0.16890  0.62810  Biso   1.000  H
  H8       1.0000 0.70570  0.83110  0.12810  Biso   1.000  H
  C5       1.0000 0.54210  0.69507  0.92767  Biso   1.000  C
  C6       1.0000 0.95790  0.30493  0.42767  Biso   1.000  C
  C7       1.0000 0.45790  0.19507  0.57233  Biso   1.000  C
  C8       1.0000 0.04210  0.80493  0.07233  Biso   1.000  C
  C9       1.0000 0.43740  0.67604  0.83726  Biso   1.000  C
  C10      1.0000 0.06260  0.32396  0.33726  Biso   1.000  C
  C11      1.0000 0.56260  0.17604  0.66274  Biso   1.000  C
  C12      1.0000 0.93740  0.82396  0.16274  Biso   1.000  C
  H9       1.0000 0.42180  0.62480  0.84670  Biso   1.000  H
  H10      1.0000 0.07820  0.37520  0.34670  Biso   1.000  H
  H11      1.0000 0.57820  0.12480  0.65330  Biso   1.000  H
  H12      1.0000 0.92180  0.87520  0.15330  Biso   1.000  H
  N5       1.0000 0.94580  0.46476  0.12932  Biso   1.000  N
  N6       1.0000 0.55420  0.53524  0.62932  Biso   1.000  N
  N7       1.0000 0.05420  0.96476  0.37068  Biso   1.000  N
  N8       1.0000 0.44580  0.03524  0.87068  Biso   1.000  N
  N9       1.0000 0.84110  0.61713  0.09624  Biso   1.000  N
  N10      1.0000 0.65890  0.38287  0.59624  Biso   1.000  N
  N11      1.0000 0.15890  0.11713  0.40376  Biso   1.000  N
  N12      1.0000 0.34110  0.88287  0.90376  Biso   1.000  N
  C13      1.0000 0.70290  0.65471  0.01419  Biso   1.000  C
  C14      1.0000 0.79710  0.34529  0.51419  Biso   1.000  C
  C15      1.0000 0.29710  0.15471  0.48581  Biso   1.000  C
  C16      1.0000 0.20290  0.84529  0.98581  Biso   1.000  C
  N13      1.0000 0.46300  0.71674  0.88629  Biso   1.000  N
  N14      1.0000 0.03700  0.28326  0.38629  Biso   1.000  N
  N15      1.0000 0.53700  0.21674  0.61371  Biso   1.000  N
  N16      1.0000 0.96300  0.78326  0.11371  Biso   1.000  N
  H13      1.0000 0.42450  0.75850  0.88950  Biso   1.000  H
  H14      1.0000 0.07550  0.24150  0.38950  Biso   1.000  H
  H15      1.0000 0.57550  0.25850  0.61050  Biso   1.000  H
  H16      1.0000 0.92450  0.74150  0.11050  Biso   1.000  H
  N17      1.0000 0.62950  0.89010  0.84456  Biso   1.000  N
  N18      1.0000 0.87050  0.10990  0.34456  Biso   1.000  N
  N19      1.0000 0.37050  0.39010  0.65544  Biso   1.000  N
  N20      1.0000 0.12950  0.60990  0.15544  Biso   1.000  N
  C17      1.0000 0.11530  0.09830  0.05759  Biso   1.000  C
  C18      1.0000 0.38470  0.90170  0.55759  Biso   1.000  C
  C19      1.0000 0.88470  0.59830  0.44241  Biso   1.000  C
  C20      1.0000 0.61530  0.40170  0.94241  Biso   1.000  C
  C21      1.0000 0.95350  0.83830  0.80718  Biso   1.000  C
  C22      1.0000 0.54650  0.16170  0.30718  Biso   1.000  C
  C23      1.0000 0.04650  0.33830  0.69282  Biso   1.000  C
  C24      1.0000 0.45350  0.66170  0.19282  Biso   1.000  C
  H17      1.0000 0.94410  0.87770  0.78390  Biso   1.000  H
  H18      1.0000 0.55590  0.12230  0.28390  Biso   1.000  H
  H19      1.0000 0.05590  0.37770  0.71610  Biso   1.000  H
  H20      1.0000 0.44410  0.62230  0.21610  Biso   1.000  H
  N21      1.0000 0.84220  0.15194  0.99516  Biso   1.000  N
  N22      1.0000 0.65780  0.84806  0.49516  Biso   1.000  N
  N23      1.0000 0.15780  0.65194  0.50484  Biso   1.000  N
  N24      1.0000 0.34220  0.34806  0.00484  Biso   1.000  N
  H21      1.0000 0.77530  0.12690  0.00640  Biso   1.000  H
  H22      1.0000 0.72470  0.87310  0.50640  Biso   1.000  H
  H23      1.0000 0.22470  0.62690  0.49360  Biso   1.000  H
  H24      1.0000 0.27530  0.37310  0.99360  Biso   1.000  H
  C25      1.0000 0.78060  0.63406  0.05916  Biso   1.000  C
  C26      1.0000 0.71940  0.36594  0.55916  Biso   1.000  C
  C27      1.0000 0.21940  0.13406  0.44084  Biso   1.000  C
  C28      1.0000 0.28060  0.86594  0.94084  Biso   1.000  C
  C29      1.0000 0.67870  0.60592  0.97236  Biso   1.000  C
  C30      1.0000 0.82130  0.39408  0.47236  Biso   1.000  C
  C31      1.0000 0.32130  0.10592  0.52764  Biso   1.000  C
  C32      1.0000 0.17870  0.89408  0.02764  Biso   1.000  C
  H25      1.0000 0.71640  0.55950  0.97310  Biso   1.000  H
  H26      1.0000 0.78360  0.44050  0.47310  Biso   1.000  H
  H27      1.0000 0.28360  0.05950  0.52690  Biso   1.000  H
  H28      1.0000 0.21640  0.94050  0.02690  Biso   1.000  H
  N25      1.0000 0.11820  0.10141  0.00326  Biso   1.000  N
  N26      1.0000 0.38180  0.89859  0.50326  Biso   1.000  N
  N27      1.0000 0.88180  0.60141  0.49674  Biso   1.000  N
  N28      1.0000 0.61820  0.39859  0.99674  Biso   1.000  N
  H29      1.0000 0.18370  0.12500  0.98940  Biso   1.000  H
  H30      1.0000 0.31630  0.87500  0.48940  Biso   1.000  H
  H31      1.0000 0.81630  0.62500  0.51060  Biso   1.000  H
  H32      1.0000 0.68370  0.37500  0.01060  Biso   1.000  H
  C33      1.0000 0.07140  0.79950  0.80832  Biso   1.000  C
  C34      1.0000 0.42860  0.20050  0.30832  Biso   1.000  C
  C35      1.0000 0.92860  0.29950  0.69168  Biso   1.000  C
  C36      1.0000 0.57140  0.70050  0.19168  Biso   1.000  C
  H33      1.0000 0.14200  0.81430  0.78670  Biso   1.000  H
  H34      1.0000 0.35800  0.18570  0.28670  Biso   1.000  H
  H35      1.0000 0.85800  0.31430  0.71330  Biso   1.000  H
  H36      1.0000 0.64200  0.68570  0.21330  Biso   1.000  H
  C37      1.0000 0.01490  0.06120  0.14107  Biso   1.000  C
  C38      1.0000 0.48510  0.93880  0.64107  Biso   1.000  C
  C39      1.0000 0.98510  0.56120  0.35893  Biso   1.000  C
  C40      1.0000 0.51490  0.43880  0.85893  Biso   1.000  C
  H37      1.0000 0.94590  0.03830  0.15940  Biso   1.000  H
  H38      1.0000 0.55410  0.96170  0.65940  Biso   1.000  H
  H39      1.0000 0.05410  0.53830  0.34060  Biso   1.000  H
  H40      1.0000 0.44590  0.46170  0.84060  Biso   1.000  H
  C41      1.0000 0.59950  0.62626  0.93014  Biso   1.000  C
  C42      1.0000 0.90050  0.37374  0.43014  Biso   1.000  C
  C43      1.0000 0.40050  0.12626  0.56986  Biso   1.000  C
  C44      1.0000 0.09950  0.87374  0.06986  Biso   1.000  C
  H41      1.0000 0.58380  0.59320  0.90250  Biso   1.000  H
  H42      1.0000 0.91620  0.40680  0.40250  Biso   1.000  H
  H43      1.0000 0.41620  0.09320  0.59750  Biso   1.000  H
  H44      1.0000 0.08380  0.90680  0.09750  Biso   1.000  H
  N29      1.0000 0.11500  0.08250  0.27252  Biso   1.000  N
  N30      1.0000 0.38500  0.91750  0.77252  Biso   1.000  N
  N31      1.0000 0.88500  0.58250  0.22748  Biso   1.000  N
  N32      1.0000 0.61500  0.41750  0.72748  Biso   1.000  N
  C45      1.0000 0.84890  0.81880  0.84063  Biso   1.000  C
  C46      1.0000 0.65110  0.18120  0.34063  Biso   1.000  C
  C47      1.0000 0.15110  0.31880  0.65937  Biso   1.000  C
  C48      1.0000 0.34890  0.68120  0.15937  Biso   1.000  C
  C49      1.0000 0.87060  0.21417  0.02207  Biso   1.000  C
  C50      1.0000 0.62940  0.78583  0.52207  Biso   1.000  C
  C51      1.0000 0.12940  0.71417  0.47793  Biso   1.000  C
  C52      1.0000 0.37060  0.28583  0.97793  Biso   1.000  C
  C53      1.0000 0.31340  0.70590  0.81042  Biso   1.000  C
  C54      1.0000 0.18660  0.29410  0.31042  Biso   1.000  C
  C55      1.0000 0.68660  0.20590  0.68958  Biso   1.000  C
  C56      1.0000 0.81340  0.79410  0.18958  Biso   1.000  C
  H45      1.0000 0.32810  0.75790  0.80340  Biso   1.000  H
  H46      1.0000 0.17190  0.24210  0.30340  Biso   1.000  H
  H47      1.0000 0.67190  0.25790  0.69660  Biso   1.000  H
  H48      1.0000 0.82810  0.74210  0.19660  Biso   1.000  H
  C57      1.0000 0.91470  0.12310  0.94865  Biso   1.000  C
  C58      1.0000 0.58530  0.87690  0.44865  Biso   1.000  C
  C59      1.0000 0.08530  0.62310  0.55135  Biso   1.000  C
  C60      1.0000 0.41470  0.37690  0.05135  Biso   1.000  C
  H49      1.0000 0.95720  0.16440  0.93030  Biso   1.000  H
  H50      1.0000 0.54280  0.83560  0.43030  Biso   1.000  H
  H51      1.0000 0.04280  0.66440  0.56970  Biso   1.000  H
  H52      1.0000 0.45720  0.33560  0.06970  Biso   1.000  H
  C61      1.0000 0.95800  0.26832  0.00328  Biso   1.000  C
  C62      1.0000 0.54200  0.73168  0.50328  Biso   1.000  C
  C63      1.0000 0.04200  0.76832  0.49672  Biso   1.000  C
  C64      1.0000 0.45800  0.23168  0.99672  Biso   1.000  C
  H53      1.0000 0.00360  0.26090  0.97120  Biso   1.000  H
  H54      1.0000 0.49640  0.73910  0.47120  Biso   1.000  H
  H55      1.0000 0.99640  0.76090  0.52880  Biso   1.000  H
  H56      1.0000 0.50360  0.23910  0.02880  Biso   1.000  H
  C65      1.0000 0.57130  0.74527  0.96858  Biso   1.000  C
  C66      1.0000 0.92870  0.25473  0.46858  Biso   1.000  C
  C67      1.0000 0.42870  0.24527  0.53142  Biso   1.000  C
  C68      1.0000 0.07130  0.75473  0.03142  Biso   1.000  C
  H57      1.0000 0.53670  0.79240  0.96690  Biso   1.000  H
  H58      1.0000 0.96330  0.20760  0.46690  Biso   1.000  H
  H59      1.0000 0.46330  0.29240  0.53310  Biso   1.000  H
  H60      1.0000 0.03670  0.70760  0.03310  Biso   1.000  H
  C69      1.0000 0.91300  0.34301  0.07981  Biso   1.000  C
  C70      1.0000 0.58700  0.65699  0.57981  Biso   1.000  C
  C71      1.0000 0.08700  0.84301  0.42019  Biso   1.000  C
  C72      1.0000 0.41300  0.15699  0.92019  Biso   1.000  C
  C73      1.0000 0.08570  0.73889  0.84133  Biso   1.000  C
  C74      1.0000 0.41430  0.26111  0.34133  Biso   1.000  C
  C75      1.0000 0.91430  0.23889  0.65867  Biso   1.000  C
  C76      1.0000 0.58570  0.76111  0.15867  Biso   1.000  C
  C77      1.0000 0.01160  0.06450  0.08568  Biso   1.000  C
  C78      1.0000 0.48840  0.93550  0.58568  Biso   1.000  C
  C79      1.0000 0.98840  0.56450  0.41432  Biso   1.000  C
  C80      1.0000 0.51160  0.43550  0.91432  Biso   1.000  C
  H61      1.0000 0.94040  0.04430  0.06700  Biso   1.000  H
  H62      1.0000 0.55960  0.95570  0.56700  Biso   1.000  H
  H63      1.0000 0.05960  0.54430  0.43300  Biso   1.000  H
  H64      1.0000 0.44040  0.45570  0.93300  Biso   1.000  H
  C81      1.0000 0.11880  0.09130  0.16960  Biso   1.000  C
  C82      1.0000 0.38120  0.90870  0.66960  Biso   1.000  C
  C83      1.0000 0.88120  0.59130  0.33040  Biso   1.000  C
  C84      1.0000 0.61880  0.40870  0.83040  Biso   1.000  C
  C85      1.0000 0.97740  0.33160  0.03112  Biso   1.000  C
  C86      1.0000 0.52260  0.66840  0.53112  Biso   1.000  C
  C87      1.0000 0.02260  0.83160  0.46888  Biso   1.000  C
  C88      1.0000 0.47740  0.16840  0.96888  Biso   1.000  C
  H65      1.0000 0.03390  0.36730  0.01750  Biso   1.000  H
  H66      1.0000 0.46610  0.63270  0.51750  Biso   1.000  H
  H67      1.0000 0.96610  0.86730  0.48250  Biso   1.000  H
  H68      1.0000 0.53390  0.13270  0.98250  Biso   1.000  H
  C89      1.0000 0.93140  0.41065  0.10821  Biso   1.000  C
  C90      1.0000 0.56860  0.58935  0.60821  Biso   1.000  C
  C91      1.0000 0.06860  0.91065  0.39179  Biso   1.000  C
  C92      1.0000 0.43140  0.08935  0.89179  Biso   1.000  C
  C93      1.0000 0.82780  0.28944  0.09950  Biso   1.000  C
  C94      1.0000 0.67220  0.71056  0.59950  Biso   1.000  C
  C95      1.0000 0.17220  0.78944  0.40050  Biso   1.000  C
  C96      1.0000 0.32780  0.21056  0.90050  Biso   1.000  C
  H69      1.0000 0.78580  0.29640  0.13240  Biso   1.000  H
  H70      1.0000 0.71420  0.70360  0.63240  Biso   1.000  H
  H71      1.0000 0.21420  0.79640  0.36760  Biso   1.000  H
  H72      1.0000 0.28580  0.20360  0.86760  Biso   1.000  H
  C97      1.0000 0.55640  0.68000  0.79945  Biso   1.000  C
  C98      1.0000 0.94360  0.32000  0.29945  Biso   1.000  C
  C99      1.0000 0.44360  0.18000  0.70055  Biso   1.000  C
  C100     1.0000 0.05640  0.82000  0.20055  Biso   1.000  C
  H73      1.0000 0.63350  0.65870  0.81690  Biso   1.000  H
  H74      1.0000 0.86650  0.34130  0.31690  Biso   1.000  H
  H75      1.0000 0.36650  0.15870  0.68310  Biso   1.000  H
  H76      1.0000 0.13350  0.84130  0.18310  Biso   1.000  H
  H77      1.0000 0.57650  0.73080  0.79180  Biso   1.000  H
  H78      1.0000 0.92350  0.26920  0.29180  Biso   1.000  H
  H79      1.0000 0.42350  0.23080  0.70820  Biso   1.000  H
  H80      1.0000 0.07650  0.76920  0.20820  Biso   1.000  H
  C101     1.0000 0.86400  0.75860  0.87390  Biso   1.000  C
  C102     1.0000 0.63600  0.24140  0.37390  Biso   1.000  C
  C103     1.0000 0.13600  0.25860  0.62610  Biso   1.000  C
  C104     1.0000 0.36400  0.74140  0.12610  Biso   1.000  C
  H81      1.0000 0.79490  0.74520  0.89660  Biso   1.000  H
  H82      1.0000 0.70510  0.25480  0.39660  Biso   1.000  H
  H83      1.0000 0.20510  0.24520  0.60340  Biso   1.000  H
  H84      1.0000 0.29490  0.75480  0.10340  Biso   1.000  H
  C105     1.0000 0.80520  0.22726  0.07148  Biso   1.000  C
  C106     1.0000 0.69480  0.77274  0.57148  Biso   1.000  C
  C107     1.0000 0.19480  0.72726  0.42852  Biso   1.000  C
  C108     1.0000 0.30520  0.27274  0.92852  Biso   1.000  C
  H85      1.0000 0.74590  0.19270  0.08490  Biso   1.000  H
  H86      1.0000 0.75410  0.80730  0.58490  Biso   1.000  H
  H87      1.0000 0.25410  0.69270  0.41510  Biso   1.000  H
  H88      1.0000 0.24590  0.30730  0.91510  Biso   1.000  H
  C109     1.0000 0.65020  0.72540  0.01085  Biso   1.000  C
  C110     1.0000 0.84980  0.27460  0.51085  Biso   1.000  C
  C111     1.0000 0.34980  0.22540  0.48915  Biso   1.000  C
  C112     1.0000 0.15020  0.77460  0.98915  Biso   1.000  C
  H89      1.0000 0.66900  0.75910  0.03770  Biso   1.000  H
  H90      1.0000 0.83100  0.24090  0.53770  Biso   1.000  H
  H91      1.0000 0.33100  0.25910  0.46230  Biso   1.000  H
  H92      1.0000 0.16900  0.74090  0.96230  Biso   1.000  H
  C113     1.0000 0.22100  0.12420  0.14150  Biso   1.000  C
  C114     1.0000 0.27900  0.87580  0.64150  Biso   1.000  C
  C115     1.0000 0.77900  0.62420  0.35850  Biso   1.000  C
  C116     1.0000 0.72100  0.37580  0.85850  Biso   1.000  C
  H93      1.0000 0.29270  0.14390  0.16020  Biso   1.000  H
  H94      1.0000 0.20730  0.85610  0.66020  Biso   1.000  H
  H95      1.0000 0.70730  0.64390  0.33980  Biso   1.000  H
  H96      1.0000 0.79270  0.35610  0.83980  Biso   1.000  H
  C117     1.0000 0.21870  0.12840  0.08716  Biso   1.000  C
  C118     1.0000 0.28130  0.87160  0.58716  Biso   1.000  C
  C119     1.0000 0.78130  0.62840  0.41284  Biso   1.000  C
  C120     1.0000 0.71870  0.37160  0.91284  Biso   1.000  C
  H97      1.0000 0.28780  0.15190  0.06930  Biso   1.000  H
  H98      1.0000 0.21220  0.84810  0.56930  Biso   1.000  H
  H99      1.0000 0.71220  0.65190  0.43070  Biso   1.000  H
  H100     1.0000 0.78780  0.34810  0.93070  Biso   1.000  H
  C121     1.0000 0.09730  0.04250  0.91601  Biso   1.000  C
  C122     1.0000 0.40270  0.95750  0.41601  Biso   1.000  C
  C123     1.0000 0.90270  0.54250  0.58399  Biso   1.000  C
  C124     1.0000 0.59730  0.45750  0.08399  Biso   1.000  C
  H101     1.0000 0.16450  0.00730  0.92670  Biso   1.000  H
  H102     1.0000 0.33550  0.99270  0.42670  Biso   1.000  H
  H103     1.0000 0.83550  0.50730  0.57330  Biso   1.000  H
  H104     1.0000 0.66450  0.49270  0.07330  Biso   1.000  H
  H105     1.0000 0.14170  0.08310  0.89860  Biso   1.000  H
  H106     1.0000 0.35830  0.91690  0.39860  Biso   1.000  H
  H107     1.0000 0.85830  0.58310  0.60140  Biso   1.000  H
  H108     1.0000 0.64170  0.41690  0.10140  Biso   1.000  H
  C125     1.0000 0.40780  0.67360  0.71920  Biso   1.000  C
  C126     1.0000 0.09220  0.32640  0.21920  Biso   1.000  C
  C127     1.0000 0.59220  0.17360  0.78080  Biso   1.000  C
  C128     1.0000 0.90780  0.82640  0.28080  Biso   1.000  C
  H109     1.0000 0.42560  0.72450  0.71090  Biso   1.000  H
  H110     1.0000 0.07440  0.27550  0.21090  Biso   1.000  H
  H111     1.0000 0.57440  0.22450  0.78910  Biso   1.000  H
  H112     1.0000 0.92560  0.77550  0.28910  Biso   1.000  H
  H113     1.0000 0.38910  0.64830  0.68580  Biso   1.000  H
  H114     1.0000 0.11090  0.35170  0.18580  Biso   1.000  H
  H115     1.0000 0.61090  0.14830  0.81420  Biso   1.000  H
  H116     1.0000 0.88910  0.85170  0.31420  Biso   1.000  H
  C129     1.0000 0.28930  0.66820  0.75623  Biso   1.000  C
  C130     1.0000 0.21070  0.33180  0.25623  Biso   1.000  C
  C131     1.0000 0.71070  0.16820  0.74377  Biso   1.000  C
  C132     1.0000 0.78930  0.83180  0.24377  Biso   1.000  C
  H117     1.0000 0.26890  0.61710  0.76240  Biso   1.000  H
  H118     1.0000 0.23110  0.38290  0.26240  Biso   1.000  H
  H119     1.0000 0.73110  0.11710  0.73760  Biso   1.000  H
  H120     1.0000 0.76890  0.88290  0.23760  Biso   1.000  H
  H121     1.0000 0.21270  0.69030  0.73900  Biso   1.000  H
  H122     1.0000 0.28730  0.30970  0.23900  Biso   1.000  H
  H123     1.0000 0.78730  0.19030  0.76100  Biso   1.000  H
  H124     1.0000 0.71270  0.80970  0.26100  Biso   1.000  H
  C133     1.0000 0.81930  0.08690  0.90903  Biso   1.000  C
  C134     1.0000 0.68070  0.91310  0.40903  Biso   1.000  C
  C135     1.0000 0.18070  0.58690  0.59097  Biso   1.000  C
  C136     1.0000 0.31930  0.41310  0.09097  Biso   1.000  C
  H125     1.0000 0.77320  0.04720  0.92690  Biso   1.000  H
  H126     1.0000 0.72680  0.95280  0.42690  Biso   1.000  H
  H127     1.0000 0.22680  0.54720  0.57310  Biso   1.000  H
  H128     1.0000 0.27320  0.45280  0.07310  Biso   1.000  H
  H129     1.0000 0.75320  0.12230  0.89760  Biso   1.000  H
  H130     1.0000 0.74680  0.87770  0.39760  Biso   1.000  H
  H131     1.0000 0.24680  0.62230  0.60240  Biso   1.000  H
  H132     1.0000 0.25320  0.37770  0.10240  Biso   1.000  H
  C137     1.0000 0.97710  0.71940  0.87377  Biso   1.000  C
  C138     1.0000 0.52290  0.28060  0.37377  Biso   1.000  C
  C139     1.0000 0.02290  0.21940  0.62623  Biso   1.000  C
  C140     1.0000 0.47710  0.78060  0.12623  Biso   1.000  C
  H133     1.0000 0.98360  0.67850  0.89570  Biso   1.000  H
  H134     1.0000 0.51640  0.32150  0.39570  Biso   1.000  H
  H135     1.0000 0.01640  0.17850  0.60430  Biso   1.000  H
  H136     1.0000 0.48360  0.82150  0.10430  Biso   1.000  H
  C141     1.0000 0.00140  0.00680  0.87661  Biso   1.000  C
  C142     1.0000 0.49860  0.99320  0.37661  Biso   1.000  C
  C143     1.0000 0.99860  0.50680  0.62339  Biso   1.000  C
  C144     1.0000 0.50140  0.49320  0.12339  Biso   1.000  C
  H137     1.0000 0.04980  0.99200  0.84470  Biso   1.000  H
  H138     1.0000 0.45020  0.00800  0.34470  Biso   1.000  H
  H139     1.0000 0.95020  0.49200  0.65530  Biso   1.000  H
  H140     1.0000 0.54980  0.50800  0.15530  Biso   1.000  H
  H141     1.0000 0.96390  0.96330  0.89290  Biso   1.000  H
  H142     1.0000 0.53610  0.03670  0.39290  Biso   1.000  H
  H143     1.0000 0.03610  0.46330  0.60710  Biso   1.000  H
  H144     1.0000 0.46390  0.53670  0.10710  Biso   1.000  H
  C145     1.0000 0.52940  0.63940  0.74651  Biso   1.000  C
  C146     1.0000 0.97060  0.36060  0.24651  Biso   1.000  C
  C147     1.0000 0.47060  0.13940  0.75349  Biso   1.000  C
  C148     1.0000 0.02940  0.86060  0.25349  Biso   1.000  C
  H145     1.0000 0.60620  0.64310  0.72310  Biso   1.000  H
  H146     1.0000 0.89380  0.35690  0.22310  Biso   1.000  H
  H147     1.0000 0.39380  0.14310  0.77690  Biso   1.000  H
  H148     1.0000 0.10620  0.85690  0.27690  Biso   1.000  H
  H149     1.0000 0.51280  0.58810  0.75370  Biso   1.000  H
  H150     1.0000 0.98720  0.41190  0.25370  Biso   1.000  H
  H151     1.0000 0.48720  0.08810  0.74630  Biso   1.000  H
  H152     1.0000 0.01280  0.91190  0.24630  Biso   1.000  H
  C149     1.0000 0.89010  0.05770  0.86071  Biso   1.000  C
  C150     1.0000 0.60990  0.94230  0.36071  Biso   1.000  C
  C151     1.0000 0.10990  0.55770  0.63929  Biso   1.000  C
  C152     1.0000 0.39010  0.44230  0.13929  Biso   1.000  C
  H153     1.0000 0.92620  0.09810  0.84010  Biso   1.000  H
  H154     1.0000 0.57380  0.90190  0.34010  Biso   1.000  H
  H155     1.0000 0.07380  0.59810  0.65990  Biso   1.000  H
  H156     1.0000 0.42620  0.40190  0.15990  Biso   1.000  H
  H157     1.0000 0.82730  0.03180  0.83810  Biso   1.000  H
  H158     1.0000 0.67270  0.96820  0.33810  Biso   1.000  H
  H159     1.0000 0.17270  0.53180  0.66190  Biso   1.000  H
  H160     1.0000 0.32730  0.46820  0.16190  Biso   1.000  H
  C153     1.0000 0.72810  0.85920  0.84260  Biso   1.000  C
  C154     1.0000 0.77190  0.14080  0.34260  Biso   1.000  C
  C155     1.0000 0.27190  0.35920  0.65740  Biso   1.000  C
  C156     1.0000 0.22810  0.64080  0.15740  Biso   1.000  C
  C157     1.0000 0.11970  0.08680  0.22690  Biso   1.000  C
  C158     1.0000 0.38030  0.91320  0.72690  Biso   1.000  C
  C159     1.0000 0.88030  0.58680  0.27310  Biso   1.000  C
  C160     1.0000 0.61970  0.41320  0.77310  Biso   1.000  C
  P1       1.0000 0.60520  0.98763  0.06644  Biso   1.000  P
  P2       1.0000 0.89480  0.01237  0.56644  Biso   1.000  P
  P3       1.0000 0.39480  0.48763  0.43356  Biso   1.000  P
  P4       1.0000 0.10520  0.51237  0.93356  Biso   1.000  P
  F1       1.0000 0.70380  0.01240  0.02660  Biso   1.000  F
  F2       1.0000 0.79620  0.98760  0.52660  Biso   1.000  F
  F3       1.0000 0.29620  0.51240  0.47340  Biso   1.000  F
  F4       1.0000 0.20380  0.48760  0.97340  Biso   1.000  F
  F5       1.0000 0.61850  0.06560  0.08420  Biso   1.000  F
  F6       1.0000 0.88150  0.93440  0.58420  Biso   1.000  F
  F7       1.0000 0.38150  0.56560  0.41580  Biso   1.000  F
  F8       1.0000 0.11850  0.43440  0.91580  Biso   1.000  F
  F9       1.0000 0.50100  0.97100  0.10940  Biso   1.000  F
  F10      1.0000 0.99900  0.02900  0.60940  Biso   1.000  F
  F11      1.0000 0.49900  0.47100  0.39060  Biso   1.000  F
  F12      1.0000 0.00100  0.52900  0.89060  Biso   1.000  F
  F13      1.0000 0.71320  0.96560  0.10570  Biso   1.000  F
  F14      1.0000 0.78680  0.03440  0.60570  Biso   1.000  F
  F15      1.0000 0.28680  0.46560  0.39430  Biso   1.000  F
  F16      1.0000 0.21320  0.53440  0.89430  Biso   1.000  F
  F17      1.0000 0.59460  0.90660  0.04640  Biso   1.000  F
  F18      1.0000 0.90540  0.09340  0.54640  Biso   1.000  F
  F19      1.0000 0.40540  0.40660  0.45360  Biso   1.000  F
  F20      1.0000 0.09460  0.59340  0.95360  Biso   1.000  F
  F21      1.0000 0.49380  0.00810  0.02780  Biso   1.000  F
  F22      1.0000 0.00620  0.99190  0.52780  Biso   1.000  F
  F23      1.0000 0.50620  0.50810  0.47220  Biso   1.000  F
  F24      1.0000 0.99380  0.49190  0.97220  Biso   1.000  F
