data_image0
_cell_length_a       15.744
_cell_length_b       4.0635
_cell_length_c       18.279
_cell_angle_alpha    90
_cell_angle_beta     92.191
_cell_angle_gamma    90

_symmetry_space_group_name_H-M    "P 1"
_symmetry_int_tables_number       1

loop_
  _symmetry_equiv_pos_as_xyz
  'x, y, z'

loop_
  _atom_site_label
  _atom_site_occupancy
  _atom_site_fract_x
  _atom_site_fract_y
  _atom_site_fract_z
  _atom_site_thermal_displace_type
  _atom_site_B_iso_or_equiv
  _atom_site_type_symbol
  Cu1      1.0000 0.25912  0.75730  0.45306  Biso   1.000  Cu
  Cu2      1.0000 0.74088  0.75730  0.54694  Biso   1.000  Cu
  Cu3      1.0000 0.75912  0.25730  0.45306  Biso   1.000  Cu
  Cu4      1.0000 0.24088  0.25730  0.54694  Biso   1.000  Cu
  I1       1.0000 0.34672  0.76072  0.57702  Biso   1.000  I
  I2       1.0000 0.65328  0.76072  0.42298  Biso   1.000  I
  I3       1.0000 0.84672  0.26072  0.57702  Biso   1.000  I
  I4       1.0000 0.15328  0.26072  0.42298  Biso   1.000  I
  O1       1.0000 0.38440  0.73800  0.12120  Biso   1.000  O
  O2       1.0000 0.61560  0.73800  0.87880  Biso   1.000  O
  O3       1.0000 0.88440  0.23800  0.12120  Biso   1.000  O
  O4       1.0000 0.11560  0.23800  0.87880  Biso   1.000  O
  C1       1.0000 0.31320  0.74700  0.30190  Biso   1.000  C
  C2       1.0000 0.68680  0.74700  0.69810  Biso   1.000  C
  C3       1.0000 0.81320  0.24700  0.30190  Biso   1.000  C
  C4       1.0000 0.18680  0.24700  0.69810  Biso   1.000  C
  H1       1.0000 0.26670  0.89180  0.29310  Biso   1.000  H
  H2       1.0000 0.73330  0.89180  0.70690  Biso   1.000  H
  H3       1.0000 0.76670  0.39180  0.29310  Biso   1.000  H
  H4       1.0000 0.23330  0.39180  0.70690  Biso   1.000  H
  C5       1.0000 0.33020  0.68100  0.16370  Biso   1.000  C
  C6       1.0000 0.66980  0.68100  0.83630  Biso   1.000  C
  C7       1.0000 0.83020  0.18100  0.16370  Biso   1.000  C
  C8       1.0000 0.16980  0.18100  0.83630  Biso   1.000  C
  N1       1.0000 0.34110  0.66690  0.37140  Biso   1.000  N
  N2       1.0000 0.65890  0.66690  0.62860  Biso   1.000  N
  N3       1.0000 0.84110  0.16690  0.37140  Biso   1.000  N
  N4       1.0000 0.15890  0.16690  0.62860  Biso   1.000  N
  C9       1.0000 0.23810  0.66600  0.14210  Biso   1.000  C
  C10      1.0000 0.76190  0.66600  0.85790  Biso   1.000  C
  C11      1.0000 0.73810  0.16600  0.14210  Biso   1.000  C
  C12      1.0000 0.26190  0.16600  0.85790  Biso   1.000  C
  C13      1.0000 0.41230  0.49700  0.38350  Biso   1.000  C
  C14      1.0000 0.58770  0.49700  0.61650  Biso   1.000  C
  C15      1.0000 0.91230  0.99700  0.38350  Biso   1.000  C
  C16      1.0000 0.08770  0.99700  0.61650  Biso   1.000  C
  H5       1.0000 0.43080  0.45570  0.43270  Biso   1.000  H
  H6       1.0000 0.56920  0.45570  0.56730  Biso   1.000  H
  H7       1.0000 0.93080  0.95570  0.43270  Biso   1.000  H
  H8       1.0000 0.06920  0.95570  0.56730  Biso   1.000  H
  C17      1.0000 0.35790  0.60000  0.24240  Biso   1.000  C
  C18      1.0000 0.64210  0.60000  0.75760  Biso   1.000  C
  C19      1.0000 0.85790  0.10000  0.24240  Biso   1.000  C
  C20      1.0000 0.14210  0.10000  0.75760  Biso   1.000  C
  C21      1.0000 0.21370  0.77900  0.07550  Biso   1.000  C
  C22      1.0000 0.78630  0.77900  0.92450  Biso   1.000  C
  C23      1.0000 0.71370  0.27900  0.07550  Biso   1.000  C
  C24      1.0000 0.28630  0.27900  0.92450  Biso   1.000  C
  H9       1.0000 0.25330  0.88610  0.04560  Biso   1.000  H
  H10      1.0000 0.74670  0.88610  0.95440  Biso   1.000  H
  H11      1.0000 0.75330  0.38610  0.04560  Biso   1.000  H
  H12      1.0000 0.24670  0.38610  0.95440  Biso   1.000  H
  C25      1.0000 0.46140  0.37600  0.32730  Biso   1.000  C
  C26      1.0000 0.53860  0.37600  0.67270  Biso   1.000  C
  C27      1.0000 0.96140  0.87600  0.32730  Biso   1.000  C
  C28      1.0000 0.03860  0.87600  0.67270  Biso   1.000  C
  H13      1.0000 0.51290  0.26070  0.33800  Biso   1.000  H
  H14      1.0000 0.48710  0.26070  0.66200  Biso   1.000  H
  H15      1.0000 0.01290  0.76070  0.33800  Biso   1.000  H
  H16      1.0000 0.98710  0.76070  0.66200  Biso   1.000  H
  C29      1.0000 0.43310  0.42900  0.25530  Biso   1.000  C
  C30      1.0000 0.56690  0.42900  0.74470  Biso   1.000  C
  C31      1.0000 0.93310  0.92900  0.25530  Biso   1.000  C
  C32      1.0000 0.06690  0.92900  0.74470  Biso   1.000  C
  H17      1.0000 0.46470  0.34940  0.21570  Biso   1.000  H
  H18      1.0000 0.53530  0.34940  0.78430  Biso   1.000  H
  H19      1.0000 0.96470  0.84940  0.21570  Biso   1.000  H
  H20      1.0000 0.03530  0.84940  0.78430  Biso   1.000  H
  C33      1.0000 0.17910  0.51000  0.18240  Biso   1.000  C
  C34      1.0000 0.82090  0.51000  0.81760  Biso   1.000  C
  C35      1.0000 0.67910  0.01000  0.18240  Biso   1.000  C
  C36      1.0000 0.32090  0.01000  0.81760  Biso   1.000  C
  H21      1.0000 0.19530  0.42140  0.22900  Biso   1.000  H
  H22      1.0000 0.80470  0.42140  0.77100  Biso   1.000  H
  H23      1.0000 0.69530  0.92140  0.22900  Biso   1.000  H
  H24      1.0000 0.30470  0.92140  0.77100  Biso   1.000  H
  C37      1.0000 0.09470  0.47900  0.15580  Biso   1.000  C
  C38      1.0000 0.90530  0.47900  0.84420  Biso   1.000  C
  C39      1.0000 0.59470  0.97900  0.15580  Biso   1.000  C
  C40      1.0000 0.40530  0.97900  0.84420  Biso   1.000  C
  H25      1.0000 0.05490  0.35610  0.18250  Biso   1.000  H
  H26      1.0000 0.94510  0.35610  0.81750  Biso   1.000  H
  H27      1.0000 0.55490  0.85610  0.18250  Biso   1.000  H
  H28      1.0000 0.44510  0.85610  0.81750  Biso   1.000  H
  C41      1.0000 0.07040  0.62700  0.09100  Biso   1.000  C
  C42      1.0000 0.92960  0.62700  0.90900  Biso   1.000  C
  C43      1.0000 0.57040  0.12700  0.09100  Biso   1.000  C
  C44      1.0000 0.42960  0.12700  0.90900  Biso   1.000  C
  H29      1.0000 0.01210  0.64780  0.07620  Biso   1.000  H
  H30      1.0000 0.98790  0.64780  0.92380  Biso   1.000  H
  H31      1.0000 0.51210  0.14780  0.07620  Biso   1.000  H
  H32      1.0000 0.48790  0.14780  0.92380  Biso   1.000  H
  C45      1.0000 0.12970  0.73700  0.05080  Biso   1.000  C
  C46      1.0000 0.87030  0.73700  0.94920  Biso   1.000  C
  C47      1.0000 0.62970  0.23700  0.05080  Biso   1.000  C
  C48      1.0000 0.37030  0.23700  0.94920  Biso   1.000  C
  H33      1.0000 0.11510  0.79320  0.00150  Biso   1.000  H
  H34      1.0000 0.88490  0.79320  0.99850  Biso   1.000  H
  H35      1.0000 0.61510  0.29320  0.00150  Biso   1.000  H
  H36      1.0000 0.38490  0.29320  0.99850  Biso   1.000  H
