data_image0
_cell_length_a       13.6666
_cell_length_b       15.3303
_cell_length_c       7.8477
_cell_angle_alpha    90
_cell_angle_beta     96.751
_cell_angle_gamma    90

_symmetry_space_group_name_H-M    "P 1"
_symmetry_int_tables_number       1

loop_
  _symmetry_equiv_pos_as_xyz
  'x, y, z'

loop_
  _atom_site_label
  _atom_site_occupancy
  _atom_site_fract_x
  _atom_site_fract_y
  _atom_site_fract_z
  _atom_site_thermal_displace_type
  _atom_site_B_iso_or_equiv
  _atom_site_type_symbol
  Cu1      1.0000 0.00000  0.00000  0.00000  Biso   1.000  Cu
  Cu2      1.0000 0.50000  0.50000  0.00000  Biso   1.000  Cu
  Cu3      1.0000 0.33200  0.00000  0.82680  Biso   1.000  Cu
  Cu4      1.0000 0.66800  0.00000  0.17320  Biso   1.000  Cu
  Cu5      1.0000 0.83200  0.50000  0.82680  Biso   1.000  Cu
  Cu6      1.0000 0.16800  0.50000  0.17320  Biso   1.000  Cu
  N1       1.0000 0.35390  0.08600  0.62730  Biso   1.000  N
  N2       1.0000 0.64610  0.08600  0.37270  Biso   1.000  N
  N3       1.0000 0.85390  0.58600  0.62730  Biso   1.000  N
  N4       1.0000 0.14610  0.58600  0.37270  Biso   1.000  N
  N5       1.0000 0.64610  0.91400  0.37270  Biso   1.000  N
  N6       1.0000 0.35390  0.91400  0.62730  Biso   1.000  N
  N7       1.0000 0.14610  0.41400  0.37270  Biso   1.000  N
  N8       1.0000 0.85390  0.41400  0.62730  Biso   1.000  N
  C1       1.0000 0.36780  0.04880  0.47890  Biso   1.000  C
  C2       1.0000 0.63220  0.04880  0.52110  Biso   1.000  C
  C3       1.0000 0.86780  0.54880  0.47890  Biso   1.000  C
  C4       1.0000 0.13220  0.54880  0.52110  Biso   1.000  C
  C5       1.0000 0.63220  0.95120  0.52110  Biso   1.000  C
  C6       1.0000 0.36780  0.95120  0.47890  Biso   1.000  C
  C7       1.0000 0.13220  0.45120  0.52110  Biso   1.000  C
  C8       1.0000 0.86780  0.45120  0.47890  Biso   1.000  C
  C9       1.0000 0.38510  0.09810  0.33310  Biso   1.000  C
  C10      1.0000 0.61490  0.09810  0.66690  Biso   1.000  C
  C11      1.0000 0.88510  0.59810  0.33310  Biso   1.000  C
  C12      1.0000 0.11490  0.59810  0.66690  Biso   1.000  C
  C13      1.0000 0.61490  0.90190  0.66690  Biso   1.000  C
  C14      1.0000 0.38510  0.90190  0.33310  Biso   1.000  C
  C15      1.0000 0.11490  0.40190  0.66690  Biso   1.000  C
  C16      1.0000 0.88510  0.40190  0.33310  Biso   1.000  C
  C17      1.0000 0.38780  0.18710  0.34430  Biso   1.000  C
  C18      1.0000 0.61220  0.18710  0.65570  Biso   1.000  C
  C19      1.0000 0.88780  0.68710  0.34430  Biso   1.000  C
  C20      1.0000 0.11220  0.68710  0.65570  Biso   1.000  C
  C21      1.0000 0.61220  0.81290  0.65570  Biso   1.000  C
  C22      1.0000 0.38780  0.81290  0.34430  Biso   1.000  C
  C23      1.0000 0.11220  0.31290  0.65570  Biso   1.000  C
  C24      1.0000 0.88780  0.31290  0.34430  Biso   1.000  C
  C25      1.0000 0.37450  0.22870  0.50030  Biso   1.000  C
  C26      1.0000 0.62550  0.22870  0.49970  Biso   1.000  C
  C27      1.0000 0.87450  0.72870  0.50030  Biso   1.000  C
  C28      1.0000 0.12550  0.72870  0.49970  Biso   1.000  C
  C29      1.0000 0.62550  0.77130  0.49970  Biso   1.000  C
  C30      1.0000 0.37450  0.77130  0.50030  Biso   1.000  C
  C31      1.0000 0.12550  0.27130  0.49970  Biso   1.000  C
  C32      1.0000 0.87450  0.27130  0.50030  Biso   1.000  C
  C33      1.0000 0.37790  0.32090  0.52360  Biso   1.000  C
  C34      1.0000 0.62210  0.32090  0.47640  Biso   1.000  C
  C35      1.0000 0.87790  0.82090  0.52360  Biso   1.000  C
  C36      1.0000 0.12210  0.82090  0.47640  Biso   1.000  C
  C37      1.0000 0.62210  0.67910  0.47640  Biso   1.000  C
  C38      1.0000 0.37790  0.67910  0.52360  Biso   1.000  C
  C39      1.0000 0.12210  0.17910  0.47640  Biso   1.000  C
  C40      1.0000 0.87790  0.17910  0.52360  Biso   1.000  C
  C41      1.0000 0.36780  0.35610  0.68040  Biso   1.000  C
  C42      1.0000 0.63220  0.35610  0.31960  Biso   1.000  C
  C43      1.0000 0.86780  0.85610  0.68040  Biso   1.000  C
  C44      1.0000 0.13220  0.85610  0.31960  Biso   1.000  C
  C45      1.0000 0.63220  0.64390  0.31960  Biso   1.000  C
  C46      1.0000 0.36780  0.64390  0.68040  Biso   1.000  C
  C47      1.0000 0.13220  0.14390  0.31960  Biso   1.000  C
  C48      1.0000 0.86780  0.14390  0.68040  Biso   1.000  C
  C49      1.0000 0.35320  0.30230  0.82060  Biso   1.000  C
  C50      1.0000 0.64680  0.30230  0.17940  Biso   1.000  C
  C51      1.0000 0.85320  0.80230  0.82060  Biso   1.000  C
  C52      1.0000 0.14680  0.80230  0.17940  Biso   1.000  C
  C53      1.0000 0.64680  0.69770  0.17940  Biso   1.000  C
  C54      1.0000 0.35320  0.69770  0.82060  Biso   1.000  C
  C55      1.0000 0.14680  0.19770  0.17940  Biso   1.000  C
  C56      1.0000 0.85320  0.19770  0.82060  Biso   1.000  C
  C57      1.0000 0.34780  0.21350  0.80190  Biso   1.000  C
  C58      1.0000 0.65220  0.21350  0.19810  Biso   1.000  C
  C59      1.0000 0.84780  0.71350  0.80190  Biso   1.000  C
  C60      1.0000 0.15220  0.71350  0.19810  Biso   1.000  C
  C61      1.0000 0.65220  0.78650  0.19810  Biso   1.000  C
  C62      1.0000 0.34780  0.78650  0.80190  Biso   1.000  C
  C63      1.0000 0.15220  0.28650  0.19810  Biso   1.000  C
  C64      1.0000 0.84780  0.28650  0.80190  Biso   1.000  C
  C65      1.0000 0.35810  0.17500  0.64100  Biso   1.000  C
  C66      1.0000 0.64190  0.17500  0.35900  Biso   1.000  C
  C67      1.0000 0.85810  0.67500  0.64100  Biso   1.000  C
  C68      1.0000 0.14190  0.67500  0.35900  Biso   1.000  C
  C69      1.0000 0.64190  0.82500  0.35900  Biso   1.000  C
  C70      1.0000 0.35810  0.82500  0.64100  Biso   1.000  C
  C71      1.0000 0.14190  0.32500  0.35900  Biso   1.000  C
  C72      1.0000 0.85810  0.32500  0.64100  Biso   1.000  C
  C73      1.0000 0.12430  0.00000  0.93570  Biso   1.000  C
  C74      1.0000 0.87570  0.00000  0.06430  Biso   1.000  C
  C75      1.0000 0.62430  0.50000  0.93570  Biso   1.000  C
  C76      1.0000 0.37570  0.50000  0.06430  Biso   1.000  C
  C77      1.0000 0.20360  0.00000  0.89760  Biso   1.000  C
  C78      1.0000 0.79640  0.00000  0.10240  Biso   1.000  C
  C79      1.0000 0.70360  0.50000  0.89760  Biso   1.000  C
  C80      1.0000 0.29640  0.50000  0.10240  Biso   1.000  C
  C81      1.0000 0.45990  0.00000  0.96600  Biso   1.000  C
  C82      1.0000 0.54010  0.00000  0.03400  Biso   1.000  C
  C83      1.0000 0.95990  0.50000  0.96600  Biso   1.000  C
  C84      1.0000 0.04010  0.50000  0.03400  Biso   1.000  C
  H1       1.0000 0.39450  0.07040  0.23090  Biso   1.000  H
  H2       1.0000 0.60550  0.07040  0.76910  Biso   1.000  H
  H3       1.0000 0.89450  0.57040  0.23090  Biso   1.000  H
  H4       1.0000 0.10550  0.57040  0.76910  Biso   1.000  H
  H5       1.0000 0.60550  0.92960  0.76910  Biso   1.000  H
  H6       1.0000 0.39450  0.92960  0.23090  Biso   1.000  H
  H7       1.0000 0.10550  0.42960  0.76910  Biso   1.000  H
  H8       1.0000 0.89450  0.42960  0.23090  Biso   1.000  H
  H9       1.0000 0.39850  0.22020  0.24890  Biso   1.000  H
  H10      1.0000 0.60150  0.22020  0.75110  Biso   1.000  H
  H11      1.0000 0.89850  0.72020  0.24890  Biso   1.000  H
  H12      1.0000 0.10150  0.72020  0.75110  Biso   1.000  H
  H13      1.0000 0.60150  0.77980  0.75110  Biso   1.000  H
  H14      1.0000 0.39850  0.77980  0.24890  Biso   1.000  H
  H15      1.0000 0.10150  0.27980  0.75110  Biso   1.000  H
  H16      1.0000 0.89850  0.27980  0.24890  Biso   1.000  H
  H17      1.0000 0.38700  0.35720  0.43180  Biso   1.000  H
  H18      1.0000 0.61300  0.35720  0.56820  Biso   1.000  H
  H19      1.0000 0.88700  0.85720  0.43180  Biso   1.000  H
  H20      1.0000 0.11300  0.85720  0.56820  Biso   1.000  H
  H21      1.0000 0.61300  0.64280  0.56820  Biso   1.000  H
  H22      1.0000 0.38700  0.64280  0.43180  Biso   1.000  H
  H23      1.0000 0.11300  0.14280  0.56820  Biso   1.000  H
  H24      1.0000 0.88700  0.14280  0.43180  Biso   1.000  H
  H25      1.0000 0.37060  0.41630  0.69470  Biso   1.000  H
  H26      1.0000 0.62940  0.41630  0.30530  Biso   1.000  H
  H27      1.0000 0.87060  0.91630  0.69470  Biso   1.000  H
  H28      1.0000 0.12940  0.91630  0.30530  Biso   1.000  H
  H29      1.0000 0.62940  0.58370  0.30530  Biso   1.000  H
  H30      1.0000 0.37060  0.58370  0.69470  Biso   1.000  H
  H31      1.0000 0.12940  0.08370  0.30530  Biso   1.000  H
  H32      1.0000 0.87060  0.08370  0.69470  Biso   1.000  H
  H33      1.0000 0.34720  0.32730  0.92680  Biso   1.000  H
  H34      1.0000 0.65280  0.32730  0.07320  Biso   1.000  H
  H35      1.0000 0.84720  0.82730  0.92680  Biso   1.000  H
  H36      1.0000 0.15280  0.82730  0.07320  Biso   1.000  H
  H37      1.0000 0.65280  0.67270  0.07320  Biso   1.000  H
  H38      1.0000 0.34720  0.67270  0.92680  Biso   1.000  H
  H39      1.0000 0.15280  0.17270  0.07320  Biso   1.000  H
  H40      1.0000 0.84720  0.17270  0.92680  Biso   1.000  H
  H41      1.0000 0.33730  0.17860  0.89490  Biso   1.000  H
  H42      1.0000 0.66270  0.17860  0.10510  Biso   1.000  H
  H43      1.0000 0.83730  0.67860  0.89490  Biso   1.000  H
  H44      1.0000 0.16270  0.67860  0.10510  Biso   1.000  H
  H45      1.0000 0.66270  0.82140  0.10510  Biso   1.000  H
  H46      1.0000 0.33730  0.82140  0.89490  Biso   1.000  H
  H47      1.0000 0.16270  0.32140  0.10510  Biso   1.000  H
  H48      1.0000 0.83730  0.32140  0.89490  Biso   1.000  H
