data_image0
_cell_length_a       13.626
_cell_length_b       15.322
_cell_length_c       7.908
_cell_angle_alpha    90
_cell_angle_beta     95.89
_cell_angle_gamma    90

_symmetry_space_group_name_H-M    "P 1"
_symmetry_int_tables_number       1

loop_
  _symmetry_equiv_pos_as_xyz
  'x, y, z'

loop_
  _atom_site_label
  _atom_site_occupancy
  _atom_site_fract_x
  _atom_site_fract_y
  _atom_site_fract_z
  _atom_site_thermal_displace_type
  _atom_site_B_iso_or_equiv
  _atom_site_type_symbol
  Cu1      1.0000 0.00000  0.00000  0.00000  Biso   1.000  Cu
  Cu2      1.0000 0.50000  0.50000  0.00000  Biso   1.000  Cu
  Cu3      1.0000 0.33337  0.00000  0.82883  Biso   1.000  Cu
  Cu4      1.0000 0.83337  0.50000  0.82883  Biso   1.000  Cu
  Cu5      1.0000 0.66663  0.00000  0.17117  Biso   1.000  Cu
  Cu6      1.0000 0.16663  0.50000  0.17117  Biso   1.000  Cu
  N1       1.0000 0.12490  0.00000  0.93650  Biso   1.000  N
  N2       1.0000 0.62490  0.50000  0.93650  Biso   1.000  N
  N3       1.0000 0.87510  0.00000  0.06350  Biso   1.000  N
  N4       1.0000 0.37510  0.50000  0.06350  Biso   1.000  N
  N5       1.0000 0.35490  0.08580  0.62950  Biso   1.000  N
  N6       1.0000 0.85490  0.58580  0.62950  Biso   1.000  N
  N7       1.0000 0.64510  0.08580  0.37050  Biso   1.000  N
  N8       1.0000 0.14510  0.58580  0.37050  Biso   1.000  N
  N9       1.0000 0.64510  0.91420  0.37050  Biso   1.000  N
  N10      1.0000 0.14510  0.41420  0.37050  Biso   1.000  N
  N11      1.0000 0.35490  0.91420  0.62950  Biso   1.000  N
  N12      1.0000 0.85490  0.41420  0.62950  Biso   1.000  N
  C1       1.0000 0.46030  0.00000  0.96620  Biso   1.000  C
  C2       1.0000 0.96030  0.50000  0.96620  Biso   1.000  C
  C3       1.0000 0.53970  0.00000  0.03380  Biso   1.000  C
  C4       1.0000 0.03970  0.50000  0.03380  Biso   1.000  C
  C5       1.0000 0.20460  0.00000  0.89940  Biso   1.000  C
  C6       1.0000 0.70460  0.50000  0.89940  Biso   1.000  C
  C7       1.0000 0.79540  0.00000  0.10060  Biso   1.000  C
  C8       1.0000 0.29540  0.50000  0.10060  Biso   1.000  C
  C9       1.0000 0.35930  0.17450  0.64100  Biso   1.000  C
  C10      1.0000 0.85930  0.67450  0.64100  Biso   1.000  C
  C11      1.0000 0.64070  0.17450  0.35900  Biso   1.000  C
  C12      1.0000 0.14070  0.67450  0.35900  Biso   1.000  C
  C13      1.0000 0.64070  0.82550  0.35900  Biso   1.000  C
  C14      1.0000 0.14070  0.32550  0.35900  Biso   1.000  C
  C15      1.0000 0.35930  0.82550  0.64100  Biso   1.000  C
  C16      1.0000 0.85930  0.32550  0.64100  Biso   1.000  C
  C17      1.0000 0.35020  0.21340  0.80210  Biso   1.000  C
  C18      1.0000 0.85020  0.71340  0.80210  Biso   1.000  C
  C19      1.0000 0.64980  0.21340  0.19790  Biso   1.000  C
  C20      1.0000 0.14980  0.71340  0.19790  Biso   1.000  C
  C21      1.0000 0.64980  0.78660  0.19790  Biso   1.000  C
  C22      1.0000 0.14980  0.28660  0.19790  Biso   1.000  C
  C23      1.0000 0.35020  0.78660  0.80210  Biso   1.000  C
  C24      1.0000 0.85020  0.28660  0.80210  Biso   1.000  C
  C25      1.0000 0.35620  0.30190  0.81900  Biso   1.000  C
  C26      1.0000 0.85620  0.80190  0.81900  Biso   1.000  C
  C27      1.0000 0.64380  0.30190  0.18100  Biso   1.000  C
  C28      1.0000 0.14380  0.80190  0.18100  Biso   1.000  C
  C29      1.0000 0.64380  0.69810  0.18100  Biso   1.000  C
  C30      1.0000 0.14380  0.19810  0.18100  Biso   1.000  C
  C31      1.0000 0.35620  0.69810  0.81900  Biso   1.000  C
  C32      1.0000 0.85620  0.19810  0.81900  Biso   1.000  C
  C33      1.0000 0.36970  0.35530  0.67870  Biso   1.000  C
  C34      1.0000 0.86970  0.85530  0.67870  Biso   1.000  C
  C35      1.0000 0.63030  0.35530  0.32130  Biso   1.000  C
  C36      1.0000 0.13030  0.85530  0.32130  Biso   1.000  C
  C37      1.0000 0.63030  0.64470  0.32130  Biso   1.000  C
  C38      1.0000 0.13030  0.14470  0.32130  Biso   1.000  C
  C39      1.0000 0.36970  0.64470  0.67870  Biso   1.000  C
  C40      1.0000 0.86970  0.14470  0.67870  Biso   1.000  C
  C41      1.0000 0.37780  0.31970  0.52440  Biso   1.000  C
  C42      1.0000 0.87780  0.81970  0.52440  Biso   1.000  C
  C43      1.0000 0.62220  0.31970  0.47560  Biso   1.000  C
  C44      1.0000 0.12220  0.81970  0.47560  Biso   1.000  C
  C45      1.0000 0.62220  0.68030  0.47560  Biso   1.000  C
  C46      1.0000 0.12220  0.18030  0.47560  Biso   1.000  C
  C47      1.0000 0.37780  0.68030  0.52440  Biso   1.000  C
  C48      1.0000 0.87780  0.18030  0.52440  Biso   1.000  C
  C49      1.0000 0.37410  0.22860  0.50130  Biso   1.000  C
  C50      1.0000 0.87410  0.72860  0.50130  Biso   1.000  C
  C51      1.0000 0.62590  0.22860  0.49870  Biso   1.000  C
  C52      1.0000 0.12590  0.72860  0.49870  Biso   1.000  C
  C53      1.0000 0.62590  0.77140  0.49870  Biso   1.000  C
  C54      1.0000 0.12590  0.27140  0.49870  Biso   1.000  C
  C55      1.0000 0.37410  0.77140  0.50130  Biso   1.000  C
  C56      1.0000 0.87410  0.27140  0.50130  Biso   1.000  C
  C57      1.0000 0.38630  0.18630  0.34650  Biso   1.000  C
  C58      1.0000 0.88630  0.68630  0.34650  Biso   1.000  C
  C59      1.0000 0.61370  0.18630  0.65350  Biso   1.000  C
  C60      1.0000 0.11370  0.68630  0.65350  Biso   1.000  C
  C61      1.0000 0.61370  0.81370  0.65350  Biso   1.000  C
  C62      1.0000 0.11370  0.31370  0.65350  Biso   1.000  C
  C63      1.0000 0.38630  0.81370  0.34650  Biso   1.000  C
  C64      1.0000 0.88630  0.31370  0.34650  Biso   1.000  C
  C65      1.0000 0.38300  0.09750  0.33520  Biso   1.000  C
  C66      1.0000 0.88300  0.59750  0.33520  Biso   1.000  C
  C67      1.0000 0.61700  0.09750  0.66480  Biso   1.000  C
  C68      1.0000 0.11700  0.59750  0.66480  Biso   1.000  C
  C69      1.0000 0.61700  0.90250  0.66480  Biso   1.000  C
  C70      1.0000 0.11700  0.40250  0.66480  Biso   1.000  C
  C71      1.0000 0.38300  0.90250  0.33520  Biso   1.000  C
  C72      1.0000 0.88300  0.40250  0.33520  Biso   1.000  C
  C73      1.0000 0.36760  0.04830  0.48160  Biso   1.000  C
  C74      1.0000 0.86760  0.54830  0.48160  Biso   1.000  C
  C75      1.0000 0.63240  0.04830  0.51840  Biso   1.000  C
  C76      1.0000 0.13240  0.54830  0.51840  Biso   1.000  C
  C77      1.0000 0.63240  0.95170  0.51840  Biso   1.000  C
  C78      1.0000 0.13240  0.45170  0.51840  Biso   1.000  C
  C79      1.0000 0.36760  0.95170  0.48160  Biso   1.000  C
  C80      1.0000 0.86760  0.45170  0.48160  Biso   1.000  C
