data_image0
_cell_length_a       10.7824
_cell_length_b       17.348
_cell_length_c       14.0835
_cell_angle_alpha    90
_cell_angle_beta     97.405
_cell_angle_gamma    90

_symmetry_space_group_name_H-M    "P 1"
_symmetry_int_tables_number       1

loop_
  _symmetry_equiv_pos_as_xyz
  'x, y, z'

loop_
  _atom_site_label
  _atom_site_occupancy
  _atom_site_fract_x
  _atom_site_fract_y
  _atom_site_fract_z
  _atom_site_thermal_displace_type
  _atom_site_B_iso_or_equiv
  _atom_site_type_symbol
  Cu1      1.0000 0.60721  0.17679  0.76757  Biso   1.000  Cu
  Cu2      1.0000 0.60721  0.32321  0.26757  Biso   1.000  Cu
  Cu3      1.0000 0.39279  0.82321  0.23243  Biso   1.000  Cu
  Cu4      1.0000 0.39279  0.67679  0.73243  Biso   1.000  Cu
  Cu5      1.0000 0.11195  0.21779  0.82796  Biso   1.000  Cu
  Cu6      1.0000 0.11195  0.28221  0.32796  Biso   1.000  Cu
  Cu7      1.0000 0.88805  0.78221  0.17204  Biso   1.000  Cu
  Cu8      1.0000 0.88805  0.71779  0.67204  Biso   1.000  Cu
  S1       1.0000 0.18846  0.10114  0.78503  Biso   1.000  S
  S2       1.0000 0.18846  0.39886  0.28503  Biso   1.000  S
  S3       1.0000 0.81154  0.89886  0.21497  Biso   1.000  S
  S4       1.0000 0.81154  0.60114  0.71497  Biso   1.000  S
  S5       1.0000 0.70498  0.20729  0.92025  Biso   1.000  S
  S6       1.0000 0.70498  0.29271  0.42025  Biso   1.000  S
  S7       1.0000 0.29502  0.79271  0.07975  Biso   1.000  S
  S8       1.0000 0.29502  0.70729  0.57975  Biso   1.000  S
  N1       1.0000 0.44050  0.13410  0.77010  Biso   1.000  N
  N2       1.0000 0.44050  0.36590  0.27010  Biso   1.000  N
  N3       1.0000 0.55950  0.86590  0.22990  Biso   1.000  N
  N4       1.0000 0.55950  0.63410  0.72990  Biso   1.000  N
  N5       1.0000 0.95370  0.21670  0.88310  Biso   1.000  N
  N6       1.0000 0.95370  0.28330  0.38310  Biso   1.000  N
  N7       1.0000 0.04630  0.78330  0.11690  Biso   1.000  N
  N8       1.0000 0.04630  0.71670  0.61690  Biso   1.000  N
  N9       1.0000 0.57090  0.28100  0.68910  Biso   1.000  N
  N10      1.0000 0.57090  0.21900  0.18910  Biso   1.000  N
  N11      1.0000 0.42910  0.71900  0.31090  Biso   1.000  N
  N12      1.0000 0.42910  0.78100  0.81090  Biso   1.000  N
  N13      1.0000 0.73120  0.11820  0.69620  Biso   1.000  N
  N14      1.0000 0.73120  0.38180  0.19620  Biso   1.000  N
  N15      1.0000 0.26880  0.88180  0.30380  Biso   1.000  N
  N16      1.0000 0.26880  0.61820  0.80380  Biso   1.000  N
  N17      1.0000 0.93490  0.70720  0.28970  Biso   1.000  N
  N18      1.0000 0.93490  0.79280  0.78970  Biso   1.000  N
  N19      1.0000 0.06510  0.29280  0.71030  Biso   1.000  N
  N20      1.0000 0.06510  0.20720  0.21030  Biso   1.000  N
  N21      1.0000 0.24350  0.28880  0.90700  Biso   1.000  N
  N22      1.0000 0.24350  0.21120  0.40700  Biso   1.000  N
  N23      1.0000 0.75650  0.71120  0.09300  Biso   1.000  N
  N24      1.0000 0.75650  0.78880  0.59300  Biso   1.000  N
  C1       1.0000 0.33670  0.12140  0.77690  Biso   1.000  C
  C2       1.0000 0.33670  0.37860  0.27690  Biso   1.000  C
  C3       1.0000 0.66330  0.87860  0.22310  Biso   1.000  C
  C4       1.0000 0.66330  0.62140  0.72310  Biso   1.000  C
  C5       1.0000 0.85190  0.21330  0.89780  Biso   1.000  C
  C6       1.0000 0.85190  0.28670  0.39780  Biso   1.000  C
  C7       1.0000 0.14810  0.78670  0.10220  Biso   1.000  C
  C8       1.0000 0.14810  0.71330  0.60220  Biso   1.000  C
  C9       1.0000 0.61110  0.35040  0.71930  Biso   1.000  C
  C10      1.0000 0.61110  0.14960  0.21930  Biso   1.000  C
  C11      1.0000 0.38890  0.64960  0.28070  Biso   1.000  C
  C12      1.0000 0.38890  0.85040  0.78070  Biso   1.000  C
  H1       1.0000 0.66660  0.35350  0.77550  Biso   1.000  H
  H2       1.0000 0.66660  0.14650  0.27550  Biso   1.000  H
  H3       1.0000 0.33340  0.64650  0.22450  Biso   1.000  H
  H4       1.0000 0.33340  0.85350  0.72450  Biso   1.000  H
  C13      1.0000 0.57530  0.41760  0.67240  Biso   1.000  C
  C14      1.0000 0.57530  0.08240  0.17240  Biso   1.000  C
  C15      1.0000 0.42470  0.58240  0.32760  Biso   1.000  C
  C16      1.0000 0.42470  0.91760  0.82760  Biso   1.000  C
  H5       1.0000 0.60560  0.46450  0.69760  Biso   1.000  H
  H6       1.0000 0.60560  0.03550  0.19760  Biso   1.000  H
  H7       1.0000 0.39440  0.53550  0.30240  Biso   1.000  H
  H8       1.0000 0.39440  0.96450  0.80240  Biso   1.000  H
  C17      1.0000 0.49460  0.41600  0.58810  Biso   1.000  C
  C18      1.0000 0.49460  0.08400  0.08810  Biso   1.000  C
  C19      1.0000 0.50540  0.58400  0.41190  Biso   1.000  C
  C20      1.0000 0.50540  0.91600  0.91190  Biso   1.000  C
  C21      1.0000 0.45370  0.34420  0.55520  Biso   1.000  C
  C22      1.0000 0.45370  0.15580  0.05520  Biso   1.000  C
  C23      1.0000 0.54630  0.65580  0.44480  Biso   1.000  C
  C24      1.0000 0.54630  0.84420  0.94480  Biso   1.000  C
  H9       1.0000 0.40000  0.33960  0.49830  Biso   1.000  H
  H10      1.0000 0.40000  0.16040  0.99830  Biso   1.000  H
  H11      1.0000 0.60000  0.66040  0.50170  Biso   1.000  H
  H12      1.0000 0.60000  0.83960  0.00170  Biso   1.000  H
  C25      1.0000 0.49280  0.27980  0.60690  Biso   1.000  C
  C26      1.0000 0.49280  0.22020  0.10690  Biso   1.000  C
  C27      1.0000 0.50720  0.72020  0.39310  Biso   1.000  C
  C28      1.0000 0.50720  0.77980  0.89310  Biso   1.000  C
  H13      1.0000 0.46310  0.23230  0.58350  Biso   1.000  H
  H14      1.0000 0.46310  0.26770  0.08350  Biso   1.000  H
  H15      1.0000 0.53690  0.76770  0.41650  Biso   1.000  H
  H16      1.0000 0.53690  0.73230  0.91650  Biso   1.000  H
  C29      1.0000 0.45420  0.48860  0.53250  Biso   1.000  C
  C30      1.0000 0.45420  0.01140  0.03250  Biso   1.000  C
  C31      1.0000 0.54580  0.51140  0.46750  Biso   1.000  C
  C32      1.0000 0.54580  0.98860  0.96750  Biso   1.000  C
  H17      1.0000 0.37330  0.48000  0.49510  Biso   1.000  H
  H18      1.0000 0.37330  0.02000  0.99510  Biso   1.000  H
  H19      1.0000 0.62670  0.52000  0.50490  Biso   1.000  H
  H20      1.0000 0.62670  0.98000  0.00490  Biso   1.000  H
  H21      1.0000 0.44520  0.53030  0.57710  Biso   1.000  H
  H22      1.0000 0.44520  0.96970  0.07710  Biso   1.000  H
  H23      1.0000 0.55480  0.46970  0.42290  Biso   1.000  H
  H24      1.0000 0.55480  0.03030  0.92290  Biso   1.000  H
  C33      1.0000 0.77560  0.14650  0.61920  Biso   1.000  C
  C34      1.0000 0.77560  0.35350  0.11920  Biso   1.000  C
  C35      1.0000 0.22440  0.85350  0.38080  Biso   1.000  C
  C36      1.0000 0.22440  0.64650  0.88080  Biso   1.000  C
  H25      1.0000 0.74800  0.19510  0.59780  Biso   1.000  H
  H26      1.0000 0.74800  0.30490  0.09780  Biso   1.000  H
  H27      1.0000 0.25200  0.80490  0.40220  Biso   1.000  H
  H28      1.0000 0.25200  0.69510  0.90220  Biso   1.000  H
  C37      1.0000 0.85890  0.10910  0.56920  Biso   1.000  C
  C38      1.0000 0.85890  0.39090  0.06920  Biso   1.000  C
  C39      1.0000 0.14110  0.89090  0.43080  Biso   1.000  C
  C40      1.0000 0.14110  0.60910  0.93080  Biso   1.000  C
  H29      1.0000 0.88430  0.13190  0.51510  Biso   1.000  H
  H30      1.0000 0.88430  0.36810  0.01510  Biso   1.000  H
  H31      1.0000 0.11570  0.86810  0.48490  Biso   1.000  H
  H32      1.0000 0.11570  0.63190  0.98490  Biso   1.000  H
  C41      1.0000 0.90470  0.03820  0.59920  Biso   1.000  C
  C42      1.0000 0.90470  0.46180  0.09920  Biso   1.000  C
  C43      1.0000 0.09530  0.96180  0.40080  Biso   1.000  C
  C44      1.0000 0.09530  0.53820  0.90080  Biso   1.000  C
  C45      1.0000 0.86100  0.00850  0.67900  Biso   1.000  C
  C46      1.0000 0.86100  0.49150  0.17900  Biso   1.000  C
  C47      1.0000 0.13900  0.99150  0.32100  Biso   1.000  C
  C48      1.0000 0.13900  0.50850  0.82100  Biso   1.000  C
  H33      1.0000 0.88830  0.96050  0.70250  Biso   1.000  H
  H34      1.0000 0.88830  0.53950  0.20250  Biso   1.000  H
  H35      1.0000 0.11170  0.03950  0.29750  Biso   1.000  H
  H36      1.0000 0.11170  0.46050  0.79750  Biso   1.000  H
  C49      1.0000 0.77680  0.04990  0.72430  Biso   1.000  C
  C50      1.0000 0.77680  0.45010  0.22430  Biso   1.000  C
  C51      1.0000 0.22320  0.95010  0.27570  Biso   1.000  C
  C52      1.0000 0.22320  0.54990  0.77570  Biso   1.000  C
  H37      1.0000 0.75000  0.02830  0.77860  Biso   1.000  H
  H38      1.0000 0.75000  0.47170  0.27860  Biso   1.000  H
  H39      1.0000 0.25000  0.97170  0.22140  Biso   1.000  H
  H40      1.0000 0.25000  0.52830  0.72140  Biso   1.000  H
  C53      1.0000 0.99750  0.99300  0.55080  Biso   1.000  C
  C54      1.0000 0.99750  0.50700  0.05080  Biso   1.000  C
  C55      1.0000 0.00250  0.00700  0.44920  Biso   1.000  C
  C56      1.0000 0.00250  0.49300  0.94920  Biso   1.000  C
  H41      1.0000 0.08010  0.00300  0.58480  Biso   1.000  H
  H42      1.0000 0.08010  0.49700  0.08480  Biso   1.000  H
  H43      1.0000 0.91990  0.99700  0.41520  Biso   1.000  H
  H44      1.0000 0.91990  0.50300  0.91520  Biso   1.000  H
  H45      1.0000 0.98020  0.93860  0.55870  Biso   1.000  H
  H46      1.0000 0.98020  0.56140  0.05870  Biso   1.000  H
  H47      1.0000 0.01980  0.06140  0.44130  Biso   1.000  H
  H48      1.0000 0.01980  0.43860  0.94130  Biso   1.000  H
  C57      1.0000 0.85330  0.68580  0.34840  Biso   1.000  C
  C58      1.0000 0.85330  0.81420  0.84840  Biso   1.000  C
  C59      1.0000 0.14670  0.31420  0.65160  Biso   1.000  C
  C60      1.0000 0.14670  0.18580  0.15160  Biso   1.000  C
  H49      1.0000 0.77480  0.70880  0.34130  Biso   1.000  H
  H50      1.0000 0.77480  0.79120  0.84130  Biso   1.000  H
  H51      1.0000 0.22520  0.29120  0.65870  Biso   1.000  H
  H52      1.0000 0.22520  0.20880  0.15870  Biso   1.000  H
  C61      1.0000 0.88030  0.63100  0.41930  Biso   1.000  C
  C62      1.0000 0.88030  0.86900  0.91930  Biso   1.000  C
  C63      1.0000 0.11970  0.36900  0.58070  Biso   1.000  C
  C64      1.0000 0.11970  0.13100  0.08070  Biso   1.000  C
  H53      1.0000 0.81990  0.61730  0.45780  Biso   1.000  H
  H54      1.0000 0.81990  0.88270  0.95780  Biso   1.000  H
  H55      1.0000 0.18010  0.38270  0.54220  Biso   1.000  H
  H56      1.0000 0.18010  0.11730  0.04220  Biso   1.000  H
  C65      1.0000 0.99580  0.59670  0.43320  Biso   1.000  C
  C66      1.0000 0.99580  0.90330  0.93320  Biso   1.000  C
  C67      1.0000 0.00420  0.40330  0.56680  Biso   1.000  C
  C68      1.0000 0.00420  0.09670  0.06680  Biso   1.000  C
  C69      1.0000 0.07870  0.61800  0.37260  Biso   1.000  C
  C70      1.0000 0.07870  0.88200  0.87260  Biso   1.000  C
  C71      1.0000 0.92130  0.38200  0.62740  Biso   1.000  C
  C72      1.0000 0.92130  0.11800  0.12740  Biso   1.000  C
  H57      1.0000 0.15750  0.59540  0.37770  Biso   1.000  H
  H58      1.0000 0.15750  0.90460  0.87770  Biso   1.000  H
  H59      1.0000 0.84250  0.40460  0.62230  Biso   1.000  H
  H60      1.0000 0.84250  0.09540  0.12230  Biso   1.000  H
  C73      1.0000 0.04530  0.67290  0.30450  Biso   1.000  C
  C74      1.0000 0.04530  0.82710  0.80450  Biso   1.000  C
  C75      1.0000 0.95470  0.32710  0.69550  Biso   1.000  C
  C76      1.0000 0.95470  0.17290  0.19550  Biso   1.000  C
  H61      1.0000 0.10470  0.68720  0.26550  Biso   1.000  H
  H62      1.0000 0.10470  0.81280  0.76550  Biso   1.000  H
  H63      1.0000 0.89530  0.31280  0.73450  Biso   1.000  H
  H64      1.0000 0.89530  0.18720  0.23450  Biso   1.000  H
  C77      1.0000 0.02860  0.53800  0.51190  Biso   1.000  C
  C78      1.0000 0.02860  0.96200  0.01190  Biso   1.000  C
  C79      1.0000 0.97140  0.46200  0.48810  Biso   1.000  C
  C80      1.0000 0.97140  0.03800  0.98810  Biso   1.000  C
  H65      1.0000 0.99930  0.44320  0.42950  Biso   1.000  H
  H66      1.0000 0.99930  0.05680  0.92950  Biso   1.000  H
  H67      1.0000 0.00070  0.55680  0.57050  Biso   1.000  H
  H68      1.0000 0.00070  0.94320  0.07050  Biso   1.000  H
  H69      1.0000 0.88120  0.46780  0.47650  Biso   1.000  H
  H70      1.0000 0.88120  0.03220  0.97650  Biso   1.000  H
  H71      1.0000 0.11880  0.53220  0.52350  Biso   1.000  H
  H72      1.0000 0.11880  0.96780  0.02350  Biso   1.000  H
  C81      1.0000 0.35010  0.30810  0.87440  Biso   1.000  C
  C82      1.0000 0.35010  0.19190  0.37440  Biso   1.000  C
  C83      1.0000 0.64990  0.69190  0.12560  Biso   1.000  C
  C84      1.0000 0.64990  0.80810  0.62560  Biso   1.000  C
  H73      1.0000 0.37510  0.28000  0.82390  Biso   1.000  H
  H74      1.0000 0.37510  0.22000  0.32390  Biso   1.000  H
  H75      1.0000 0.62490  0.72000  0.17610  Biso   1.000  H
  H76      1.0000 0.62490  0.78000  0.67610  Biso   1.000  H
  C85      1.0000 0.42480  0.36830  0.91250  Biso   1.000  C
  C86      1.0000 0.42480  0.13170  0.41250  Biso   1.000  C
  C87      1.0000 0.57520  0.63170  0.08750  Biso   1.000  C
  C88      1.0000 0.57520  0.86830  0.58750  Biso   1.000  C
  H77      1.0000 0.49760  0.38040  0.88670  Biso   1.000  H
  H78      1.0000 0.49760  0.11960  0.38670  Biso   1.000  H
  H79      1.0000 0.50240  0.61960  0.11330  Biso   1.000  H
  H80      1.0000 0.50240  0.88040  0.61330  Biso   1.000  H
  C89      1.0000 0.39210  0.41050  0.98840  Biso   1.000  C
  C90      1.0000 0.39210  0.08950  0.48840  Biso   1.000  C
  C91      1.0000 0.60790  0.58950  0.01160  Biso   1.000  C
  C92      1.0000 0.60790  0.91050  0.51160  Biso   1.000  C
  C93      1.0000 0.28430  0.38840  0.02270  Biso   1.000  C
  C94      1.0000 0.28430  0.11160  0.52270  Biso   1.000  C
  C95      1.0000 0.71570  0.61160  0.97730  Biso   1.000  C
  C96      1.0000 0.71570  0.88840  0.47730  Biso   1.000  C
  H81      1.0000 0.25930  0.41420  0.07490  Biso   1.000  H
  H82      1.0000 0.25930  0.08580  0.57490  Biso   1.000  H
  H83      1.0000 0.74070  0.58580  0.92510  Biso   1.000  H
  H84      1.0000 0.74070  0.91420  0.42510  Biso   1.000  H
  C97      1.0000 0.21270  0.32900  0.98160  Biso   1.000  C
  C98      1.0000 0.21270  0.17100  0.48160  Biso   1.000  C
  C99      1.0000 0.78730  0.67100  0.01840  Biso   1.000  C
  C100     1.0000 0.78730  0.82900  0.51840  Biso   1.000  C
  H85      1.0000 0.13970  0.31610  0.00650  Biso   1.000  H
  H86      1.0000 0.13970  0.18390  0.50650  Biso   1.000  H
  H87      1.0000 0.86030  0.68390  0.99350  Biso   1.000  H
  H88      1.0000 0.86030  0.81610  0.49350  Biso   1.000  H
  C101     1.0000 0.46790  0.47800  0.03060  Biso   1.000  C
  C102     1.0000 0.46790  0.02200  0.53060  Biso   1.000  C
  C103     1.0000 0.53210  0.52200  0.96940  Biso   1.000  C
  C104     1.0000 0.53210  0.97800  0.46940  Biso   1.000  C
  H89      1.0000 0.58790  0.48780  0.94060  Biso   1.000  H
  H90      1.0000 0.58790  0.01220  0.44060  Biso   1.000  H
  H91      1.0000 0.41210  0.51220  0.05940  Biso   1.000  H
  H92      1.0000 0.41210  0.98780  0.55940  Biso   1.000  H
  H93      1.0000 0.47130  0.54120  0.91810  Biso   1.000  H
  H94      1.0000 0.47130  0.95880  0.41810  Biso   1.000  H
  H95      1.0000 0.52870  0.45880  0.08190  Biso   1.000  H
  H96      1.0000 0.52870  0.04120  0.58190  Biso   1.000  H
