data_image0
_cell_length_a       12.123
_cell_length_b       13.302
_cell_length_c       13.366
_cell_angle_alpha    108.049
_cell_angle_beta     115.446
_cell_angle_gamma    103.088

_symmetry_space_group_name_H-M    "P 1"
_symmetry_int_tables_number       1

loop_
  _symmetry_equiv_pos_as_xyz
  'x, y, z'

loop_
  _atom_site_label
  _atom_site_occupancy
  _atom_site_fract_x
  _atom_site_fract_y
  _atom_site_fract_z
  _atom_site_thermal_displace_type
  _atom_site_B_iso_or_equiv
  _atom_site_type_symbol
  Cu1      1.0000 0.78030  0.46822  0.86040  Biso   1.000  Cu
  Cu2      1.0000 0.21970  0.53178  0.13960  Biso   1.000  Cu
  Si1      1.0000 0.00000  0.50000  0.50000  Biso   1.000  Si
  W1       1.0000 0.70889  0.52425  0.30619  Biso   1.000  W
  W2       1.0000 0.29111  0.47575  0.69381  Biso   1.000  W
  W3       1.0000 0.02703  0.76071  0.48049  Biso   1.000  W
  W4       1.0000 0.97297  0.23929  0.51951  Biso   1.000  W
  W5       1.0000 0.68086  0.26157  0.32619  Biso   1.000  W
  W6       1.0000 0.31914  0.73843  0.67381  Biso   1.000  W
  W7       1.0000 0.76144  0.51387  0.58110  Biso   1.000  W
  W8       1.0000 0.23856  0.48613  0.41890  Biso   1.000  W
  W9       1.0000 0.08081  0.75009  0.75807  Biso   1.000  W
  W10      1.0000 0.91919  0.24991  0.24193  Biso   1.000  W
  W11      1.0000 0.94694  0.51121  0.22358  Biso   1.000  W
  W12      1.0000 0.05306  0.48879  0.77642  Biso   1.000  W
  C1       1.0000 0.93900  0.70930  0.99620  Biso   1.000  C
  C2       1.0000 0.06100  0.29070  0.00380  Biso   1.000  C
  H1       1.0000 0.00640  0.68480  0.02820  Biso   1.000  H
  H2       1.0000 0.99360  0.31520  0.97180  Biso   1.000  H
  C3       1.0000 0.97660  0.82770  0.03620  Biso   1.000  C
  C4       1.0000 0.02340  0.17230  0.96380  Biso   1.000  C
  H3       1.0000 0.06660  0.88010  0.09030  Biso   1.000  H
  H4       1.0000 0.93340  0.11990  0.90970  Biso   1.000  H
  C5       1.0000 0.87800  0.86530  0.99410  Biso   1.000  C
  C6       1.0000 0.12200  0.13470  0.00590  Biso   1.000  C
  H5       1.0000 0.89900  0.94440  0.02210  Biso   1.000  H
  H6       1.0000 0.10100  0.05560  0.97790  Biso   1.000  H
  C7       1.0000 0.74970  0.78560  0.91130  Biso   1.000  C
  C8       1.0000 0.25030  0.21440  0.08870  Biso   1.000  C
  H7       1.0000 0.68150  0.80940  0.87920  Biso   1.000  H
  H8       1.0000 0.31850  0.19060  0.12080  Biso   1.000  H
  C9       1.0000 0.71890  0.66740  0.87370  Biso   1.000  C
  C10      1.0000 0.28110  0.33260  0.12630  Biso   1.000  C
  H9       1.0000 0.62960  0.61360  0.81760  Biso   1.000  H
  H10      1.0000 0.37040  0.38640  0.18240  Biso   1.000  H
  C11      1.0000 0.70040  0.24470  0.85220  Biso   1.000  C
  C12      1.0000 0.29960  0.75530  0.14780  Biso   1.000  C
  H11      1.0000 0.71080  0.28640  0.92820  Biso   1.000  H
  H12      1.0000 0.28920  0.71360  0.07180  Biso   1.000  H
  C13      1.0000 0.65700  0.12550  0.80600  Biso   1.000  C
  C14      1.0000 0.34300  0.87450  0.19400  Biso   1.000  C
  H13      1.0000 0.64200  0.08740  0.84990  Biso   1.000  H
  H14      1.0000 0.35800  0.91260  0.15010  Biso   1.000  H
  C15      1.0000 0.63800  0.06730  0.69100  Biso   1.000  C
  C16      1.0000 0.36200  0.93270  0.30900  Biso   1.000  C
  H15      1.0000 0.60020  0.98630  0.65200  Biso   1.000  H
  H16      1.0000 0.39980  0.01370  0.34800  Biso   1.000  H
  C17      1.0000 0.67030  0.12020  0.63600  Biso   1.000  C
  C18      1.0000 0.32970  0.87980  0.36400  Biso   1.000  C
  H17      1.0000 0.66450  0.07770  0.56310  Biso   1.000  H
  H18      1.0000 0.33550  0.92230  0.43690  Biso   1.000  H
  C19      1.0000 0.71520  0.24350  0.68560  Biso   1.000  C
  C20      1.0000 0.28480  0.75650  0.31440  Biso   1.000  C
  H19      1.0000 0.73490  0.28120  0.64350  Biso   1.000  H
  H20      1.0000 0.26510  0.71880  0.35650  Biso   1.000  H
  N1       1.0000 0.81470  0.62880  0.91630  Biso   1.000  N
  N2       1.0000 0.18530  0.37120  0.08370  Biso   1.000  N
  N3       1.0000 0.72840  0.30450  0.79640  Biso   1.000  N
  N4       1.0000 0.27160  0.69550  0.20360  Biso   1.000  N
  O1       1.0000 0.57040  0.53760  0.21530  Biso   1.000  O
  O2       1.0000 0.42960  0.46240  0.78470  Biso   1.000  O
  O3       1.0000 0.32800  0.62720  0.72500  Biso   1.000  O
  O4       1.0000 0.67200  0.37280  0.27500  Biso   1.000  O
  O5       1.0000 0.60100  0.35280  0.24200  Biso   1.000  O
  O6       1.0000 0.39900  0.64720  0.75800  Biso   1.000  O
  O7       1.0000 0.77670  0.49450  0.20190  Biso   1.000  O
  O8       1.0000 0.22330  0.50550  0.79810  Biso   1.000  O
  O9       1.0000 0.84180  0.67960  0.39800  Biso   1.000  O
  O10      1.0000 0.15820  0.32040  0.60200  Biso   1.000  O
  O11      1.0000 0.03210  0.79700  0.63130  Biso   1.000  O
  O12      1.0000 0.96790  0.20300  0.36870  Biso   1.000  O
  O13      1.0000 0.03570  0.88740  0.47090  Biso   1.000  O
  O14      1.0000 0.96430  0.11260  0.52910  Biso   1.000  O
  O15      1.0000 0.01120  0.67000  0.32960  Biso   1.000  O
  O16      1.0000 0.98880  0.33000  0.67040  Biso   1.000  O
  O17      1.0000 0.20730  0.78910  0.56540  Biso   1.000  O
  O18      1.0000 0.79270  0.21090  0.43460  Biso   1.000  O
  O19      1.0000 0.53080  0.14880  0.24510  Biso   1.000  O
  O20      1.0000 0.46920  0.85120  0.75490  Biso   1.000  O
  O21      1.0000 0.72100  0.37030  0.47900  Biso   1.000  O
  O22      1.0000 0.27900  0.62970  0.52100  Biso   1.000  O
  O23      1.0000 0.35600  0.65820  0.54600  Biso   1.000  O
  O24      1.0000 0.64400  0.34180  0.45400  Biso   1.000  O
  O25      1.0000 0.07530  0.63710  0.57380  Biso   1.000  O
  O26      1.0000 0.92470  0.36290  0.42620  Biso   1.000  O
  O27      1.0000 0.83830  0.45870  0.44290  Biso   1.000  O
  O28      1.0000 0.16170  0.54130  0.55710  Biso   1.000  O
  O29      1.0000 0.87400  0.46200  0.67600  Biso   1.000  O
  O30      1.0000 0.12600  0.53800  0.32400  Biso   1.000  O
  O31      1.0000 0.12200  0.51300  0.27000  Biso   1.000  O
  O32      1.0000 0.87800  0.48700  0.73000  Biso   1.000  O
  O33      1.0000 0.65300  0.51890  0.62070  Biso   1.000  O
  O34      1.0000 0.34700  0.48110  0.37930  Biso   1.000  O
  O35      1.0000 0.26500  0.43770  0.53460  Biso   1.000  O
  O36      1.0000 0.73500  0.56230  0.46540  Biso   1.000  O
  O37      1.0000 0.66000  0.53870  0.43200  Biso   1.000  O
  O38      1.0000 0.34000  0.46130  0.56800  Biso   1.000  O
  O39      1.0000 0.89450  0.66800  0.68100  Biso   1.000  O
  O40      1.0000 0.10550  0.33200  0.31900  Biso   1.000  O
  O41      1.0000 0.12180  0.87180  0.88050  Biso   1.000  O
  O42      1.0000 0.87820  0.12820  0.11950  Biso   1.000  O
  O43      1.0000 0.75050  0.22030  0.22370  Biso   1.000  O
  O44      1.0000 0.24950  0.77970  0.77630  Biso   1.000  O
  O45      1.0000 0.11450  0.64860  0.82670  Biso   1.000  O
  O46      1.0000 0.88550  0.35140  0.17330  Biso   1.000  O
  O47      1.0000 0.92430  0.51370  0.09430  Biso   1.000  O
  O48      1.0000 0.07570  0.48630  0.90570  Biso   1.000  O
  O49      1.0000 0.98760  0.55060  0.62230  Biso   1.000  O
  O50      1.0000 0.01240  0.44940  0.37770  Biso   1.000  O
  O51      1.0000 0.05350  0.43890  0.58830  Biso   1.000  O
  O52      1.0000 0.94650  0.56110  0.41170  Biso   1.000  O
  Cu3      1.0000 0.02080  0.02584  0.68150  Biso   1.000  Cu
  Cu4      1.0000 0.97920  0.97416  0.31850  Biso   1.000  Cu
  N5       1.0000 0.83730  0.92270  0.59900  Biso   1.000  N
  N6       1.0000 0.16270  0.07730  0.40100  Biso   1.000  N
  N7       1.0000 0.20780  0.12080  0.79060  Biso   1.000  N
  N8       1.0000 0.79220  0.87920  0.20940  Biso   1.000  N
  C21      1.0000 0.75360  0.89100  0.48080  Biso   1.000  C
  C22      1.0000 0.24640  0.10900  0.51920  Biso   1.000  C
  H21      1.0000 0.77980  0.93010  0.44250  Biso   1.000  H
  H22      1.0000 0.22020  0.06990  0.55750  Biso   1.000  H
  C23      1.0000 0.29960  0.07830  0.83220  Biso   1.000  C
  C24      1.0000 0.70040  0.92170  0.16780  Biso   1.000  C
  H23      1.0000 0.26900  0.99790  0.80080  Biso   1.000  H
  H24      1.0000 0.73100  0.00210  0.19920  Biso   1.000  H
  C25      1.0000 0.79540  0.86810  0.65260  Biso   1.000  C
  C26      1.0000 0.20460  0.13190  0.34740  Biso   1.000  C
  H25      1.0000 0.85290  0.89380  0.73760  Biso   1.000  H
  H26      1.0000 0.14710  0.10620  0.26240  Biso   1.000  H
  C27      1.0000 0.67300  0.77660  0.59100  Biso   1.000  C
  C28      1.0000 0.32700  0.22340  0.40900  Biso   1.000  C
  H27      1.0000 0.65200  0.73610  0.63020  Biso   1.000  H
  H28      1.0000 0.34800  0.26390  0.36980  Biso   1.000  H
  C29      1.0000 0.62700  0.80060  0.41190  Biso   1.000  C
  C30      1.0000 0.37300  0.19940  0.58810  Biso   1.000  C
  H29      1.0000 0.57180  0.77650  0.32690  Biso   1.000  H
  H30      1.0000 0.42820  0.22350  0.67310  Biso   1.000  H
  C31      1.0000 0.58200  0.74620  0.46800  Biso   1.000  C
  C32      1.0000 0.41800  0.25380  0.53200  Biso   1.000  C
  H31      1.0000 0.49420  0.69100  0.42440  Biso   1.000  H
  H32      1.0000 0.50580  0.30900  0.57560  Biso   1.000  H
  C33      1.0000 0.25600  0.23610  0.83700  Biso   1.000  C
  C34      1.0000 0.74400  0.76390  0.16300  Biso   1.000  C
  H33      1.0000 0.19620  0.26930  0.81030  Biso   1.000  H
  H34      1.0000 0.80380  0.73070  0.18970  Biso   1.000  H
  C35      1.0000 0.47600  0.25900  0.96390  Biso   1.000  C
  C36      1.0000 0.52400  0.74100  0.03610  Biso   1.000  C
  H35      1.0000 0.56610  0.30530  0.02590  Biso   1.000  H
  H36      1.0000 0.43390  0.69470  0.97410  Biso   1.000  H
  C37      1.0000 0.38900  0.30800  0.92210  Biso   1.000  C
  C38      1.0000 0.61100  0.69200  0.07790  Biso   1.000  C
  H37      1.0000 0.42000  0.38790  0.95090  Biso   1.000  H
  H38      1.0000 0.58000  0.61210  0.04910  Biso   1.000  H
  C39      1.0000 0.42500  0.14000  0.91100  Biso   1.000  C
  C40      1.0000 0.57500  0.86000  0.08900  Biso   1.000  C
  H39      1.0000 0.48240  0.10390  0.93370  Biso   1.000  H
  H40      1.0000 0.51760  0.89610  0.06630  Biso   1.000  H
