data_image0
_cell_length_a       11.487
_cell_length_b       21.699
_cell_length_c       16.246
_cell_angle_alpha    90
_cell_angle_beta     108.218
_cell_angle_gamma    90

_symmetry_space_group_name_H-M    "P 1"
_symmetry_int_tables_number       1

loop_
  _symmetry_equiv_pos_as_xyz
  'x, y, z'

loop_
  _atom_site_label
  _atom_site_occupancy
  _atom_site_fract_x
  _atom_site_fract_y
  _atom_site_fract_z
  _atom_site_thermal_displace_type
  _atom_site_B_iso_or_equiv
  _atom_site_type_symbol
  Cu1      1.0000 0.33207  0.25746  0.93694  Biso   1.000  Cu
  Cu2      1.0000 0.83207  0.24254  0.43694  Biso   1.000  Cu
  Cu3      1.0000 0.66793  0.74254  0.06306  Biso   1.000  Cu
  Cu4      1.0000 0.16793  0.75746  0.56306  Biso   1.000  Cu
  S1       1.0000 0.41852  0.34571  0.01580  Biso   1.000  S
  S2       1.0000 0.91852  0.15429  0.51580  Biso   1.000  S
  S3       1.0000 0.58148  0.65429  0.98420  Biso   1.000  S
  S4       1.0000 0.08148  0.84571  0.48420  Biso   1.000  S
  S5       1.0000 0.30610  0.34584  0.16170  Biso   1.000  S
  S6       1.0000 0.80610  0.15416  0.66170  Biso   1.000  S
  S7       1.0000 0.69390  0.65416  0.83830  Biso   1.000  S
  S8       1.0000 0.19390  0.84584  0.33830  Biso   1.000  S
  S9       1.0000 0.55269  0.37103  0.33717  Biso   1.000  S
  S10      1.0000 0.05269  0.12897  0.83717  Biso   1.000  S
  S11      1.0000 0.44731  0.62897  0.66283  Biso   1.000  S
  S12      1.0000 0.94731  0.87103  0.16283  Biso   1.000  S
  S13      1.0000 0.61631  0.24142  0.40415  Biso   1.000  S
  S14      1.0000 0.11631  0.25858  0.90415  Biso   1.000  S
  S15      1.0000 0.38369  0.75858  0.59585  Biso   1.000  S
  S16      1.0000 0.88369  0.74142  0.09585  Biso   1.000  S
  S17      1.0000 0.40016  0.16541  0.01294  Biso   1.000  S
  S18      1.0000 0.90016  0.33459  0.51294  Biso   1.000  S
  S19      1.0000 0.59984  0.83459  0.98706  Biso   1.000  S
  S20      1.0000 0.09984  0.66541  0.48706  Biso   1.000  S
  S21      1.0000 0.66677  0.16855  0.02079  Biso   1.000  S
  S22      1.0000 0.16677  0.33145  0.52079  Biso   1.000  S
  S23      1.0000 0.33323  0.83145  0.97921  Biso   1.000  S
  S24      1.0000 0.83323  0.66855  0.47921  Biso   1.000  S
  S25      1.0000 0.80484  0.12303  0.22833  Biso   1.000  S
  S26      1.0000 0.30484  0.37697  0.72833  Biso   1.000  S
  S27      1.0000 0.19516  0.87697  0.77167  Biso   1.000  S
  S28      1.0000 0.69516  0.62303  0.27167  Biso   1.000  S
  S29      1.0000 0.89475  0.24545  0.31273  Biso   1.000  S
  S30      1.0000 0.39475  0.25455  0.81273  Biso   1.000  S
  S31      1.0000 0.10525  0.75455  0.68727  Biso   1.000  S
  S32      1.0000 0.60525  0.74545  0.18727  Biso   1.000  S
  N1       1.0000 0.22270  0.40920  0.01960  Biso   1.000  N
  N2       1.0000 0.72270  0.09080  0.51960  Biso   1.000  N
  N3       1.0000 0.77730  0.59080  0.98040  Biso   1.000  N
  N4       1.0000 0.27730  0.90920  0.48040  Biso   1.000  N
  N5       1.0000 0.59670  0.33910  0.49790  Biso   1.000  N
  N6       1.0000 0.09670  0.16090  0.99790  Biso   1.000  N
  N7       1.0000 0.40330  0.66090  0.50210  Biso   1.000  N
  N8       1.0000 0.90330  0.83910  0.00210  Biso   1.000  N
  N9       1.0000 0.50000  0.10200  0.91310  Biso   1.000  N
  N10      1.0000 0.00000  0.39800  0.41310  Biso   1.000  N
  N11      1.0000 0.50000  0.89800  0.08690  Biso   1.000  N
  N12      1.0000 0.00000  0.60200  0.58690  Biso   1.000  N
  N13      1.0000 0.03130  0.14660  0.31410  Biso   1.000  N
  N14      1.0000 0.53130  0.35340  0.81410  Biso   1.000  N
  N15      1.0000 0.96870  0.85340  0.68590  Biso   1.000  N
  N16      1.0000 0.46870  0.64660  0.18590  Biso   1.000  N
  C1       1.0000 0.02160  0.39620  0.04430  Biso   1.000  C
  C2       1.0000 0.52160  0.10380  0.54430  Biso   1.000  C
  C3       1.0000 0.97840  0.60380  0.95570  Biso   1.000  C
  C4       1.0000 0.47840  0.89620  0.45570  Biso   1.000  C
  H1       1.0000 0.96620  0.41570  0.06980  Biso   1.000  H
  H2       1.0000 0.46620  0.08430  0.56980  Biso   1.000  H
  H3       1.0000 0.03380  0.58430  0.93020  Biso   1.000  H
  H4       1.0000 0.53380  0.91570  0.43020  Biso   1.000  H
  H5       1.0000 0.04330  0.35610  0.06950  Biso   1.000  H
  H6       1.0000 0.54330  0.14390  0.56950  Biso   1.000  H
  H7       1.0000 0.95670  0.64390  0.93050  Biso   1.000  H
  H8       1.0000 0.45670  0.85610  0.43050  Biso   1.000  H
  H9       1.0000 0.98270  0.39200  0.98300  Biso   1.000  H
  H10      1.0000 0.48270  0.10800  0.48300  Biso   1.000  H
  H11      1.0000 0.01730  0.60800  0.01700  Biso   1.000  H
  H12      1.0000 0.51730  0.89200  0.51700  Biso   1.000  H
  C5       1.0000 0.13540  0.43480  0.06070  Biso   1.000  C
  C6       1.0000 0.63540  0.06520  0.56070  Biso   1.000  C
  C7       1.0000 0.86460  0.56520  0.93930  Biso   1.000  C
  C8       1.0000 0.36460  0.93480  0.43930  Biso   1.000  C
  H13      1.0000 0.11230  0.47610  0.03870  Biso   1.000  H
  H14      1.0000 0.61230  0.02390  0.53870  Biso   1.000  H
  H15      1.0000 0.88770  0.52390  0.96130  Biso   1.000  H
  H16      1.0000 0.38770  0.97610  0.46130  Biso   1.000  H
  H17      1.0000 0.17550  0.43790  0.12270  Biso   1.000  H
  H18      1.0000 0.67550  0.06210  0.62270  Biso   1.000  H
  H19      1.0000 0.82450  0.56210  0.87730  Biso   1.000  H
  H20      1.0000 0.32450  0.93790  0.37730  Biso   1.000  H
  C9       1.0000 0.26320  0.48950  0.92470  Biso   1.000  C
  C10      1.0000 0.76320  0.01050  0.42470  Biso   1.000  C
  C11      1.0000 0.73680  0.51050  0.07530  Biso   1.000  C
  C12      1.0000 0.23680  0.98950  0.57530  Biso   1.000  C
  H21      1.0000 0.24170  0.50280  0.86540  Biso   1.000  H
  H22      1.0000 0.74170  0.99720  0.36540  Biso   1.000  H
  H23      1.0000 0.75830  0.49720  0.13460  Biso   1.000  H
  H24      1.0000 0.25830  0.00280  0.63460  Biso   1.000  H
  H25      1.0000 0.35050  0.48480  0.94780  Biso   1.000  H
  H26      1.0000 0.85050  0.01520  0.44780  Biso   1.000  H
  H27      1.0000 0.64950  0.51520  0.05220  Biso   1.000  H
  H28      1.0000 0.14950  0.98480  0.55220  Biso   1.000  H
  H29      1.0000 0.23640  0.51970  0.95800  Biso   1.000  H
  H30      1.0000 0.73640  0.98030  0.45800  Biso   1.000  H
  H31      1.0000 0.76360  0.48030  0.04200  Biso   1.000  H
  H32      1.0000 0.26360  0.01970  0.54200  Biso   1.000  H
  C13      1.0000 0.20220  0.42890  0.92920  Biso   1.000  C
  C14      1.0000 0.70220  0.07110  0.42920  Biso   1.000  C
  C15      1.0000 0.79780  0.57110  0.07080  Biso   1.000  C
  C16      1.0000 0.29780  0.92890  0.57080  Biso   1.000  C
  H33      1.0000 0.11480  0.43260  0.90000  Biso   1.000  H
  H34      1.0000 0.61480  0.06740  0.40000  Biso   1.000  H
  H35      1.0000 0.88520  0.56740  0.10000  Biso   1.000  H
  H36      1.0000 0.38520  0.93260  0.60000  Biso   1.000  H
  H37      1.0000 0.23410  0.39770  0.89920  Biso   1.000  H
  H38      1.0000 0.73410  0.10230  0.39920  Biso   1.000  H
  H39      1.0000 0.76590  0.60230  0.10080  Biso   1.000  H
  H40      1.0000 0.26590  0.89770  0.60080  Biso   1.000  H
  C17      1.0000 0.30930  0.37030  0.05890  Biso   1.000  C
  C18      1.0000 0.80930  0.12970  0.55890  Biso   1.000  C
  C19      1.0000 0.69070  0.62970  0.94110  Biso   1.000  C
  C20      1.0000 0.19070  0.87030  0.44110  Biso   1.000  C
  C21      1.0000 0.43480  0.29500  0.19990  Biso   1.000  C
  C22      1.0000 0.93480  0.20500  0.69990  Biso   1.000  C
  C23      1.0000 0.56520  0.70500  0.80010  Biso   1.000  C
  C24      1.0000 0.06520  0.79500  0.30010  Biso   1.000  C
  H41      1.0000 0.41910  0.26620  0.24100  Biso   1.000  H
  H42      1.0000 0.91910  0.23380  0.74100  Biso   1.000  H
  H43      1.0000 0.58090  0.73380  0.75900  Biso   1.000  H
  H44      1.0000 0.08090  0.76620  0.25900  Biso   1.000  H
  H45      1.0000 0.44280  0.27120  0.15130  Biso   1.000  H
  H46      1.0000 0.94280  0.22880  0.65130  Biso   1.000  H
  H47      1.0000 0.55720  0.72880  0.84870  Biso   1.000  H
  H48      1.0000 0.05720  0.77120  0.34870  Biso   1.000  H
  C25      1.0000 0.55440  0.32810  0.24290  Biso   1.000  C
  C26      1.0000 0.05440  0.17190  0.74290  Biso   1.000  C
  C27      1.0000 0.44560  0.67190  0.75710  Biso   1.000  C
  C28      1.0000 0.94560  0.82810  0.25710  Biso   1.000  C
  H49      1.0000 0.57130  0.35600  0.20140  Biso   1.000  H
  H50      1.0000 0.07130  0.14400  0.70140  Biso   1.000  H
  H51      1.0000 0.42870  0.64400  0.79860  Biso   1.000  H
  H52      1.0000 0.92870  0.85600  0.29860  Biso   1.000  H
  H53      1.0000 0.62020  0.29810  0.25950  Biso   1.000  H
  H54      1.0000 0.12020  0.20190  0.75950  Biso   1.000  H
  H55      1.0000 0.37980  0.70190  0.74050  Biso   1.000  H
  H56      1.0000 0.87980  0.79810  0.24050  Biso   1.000  H
  C29      1.0000 0.59220  0.31610  0.42200  Biso   1.000  C
  C30      1.0000 0.09220  0.18390  0.92200  Biso   1.000  C
  C31      1.0000 0.40780  0.68390  0.57800  Biso   1.000  C
  C32      1.0000 0.90780  0.81610  0.07800  Biso   1.000  C
  C33      1.0000 0.43920  0.41950  0.49270  Biso   1.000  C
  C34      1.0000 0.93920  0.08050  0.99270  Biso   1.000  C
  C35      1.0000 0.56080  0.58050  0.50730  Biso   1.000  C
  C36      1.0000 0.06080  0.91950  0.00730  Biso   1.000  C
  H57      1.0000 0.43050  0.45940  0.51580  Biso   1.000  H
  H58      1.0000 0.93050  0.04060  0.01580  Biso   1.000  H
  H59      1.0000 0.56950  0.54060  0.48420  Biso   1.000  H
  H60      1.0000 0.06950  0.95940  0.98420  Biso   1.000  H
  H61      1.0000 0.40180  0.38890  0.51900  Biso   1.000  H
  H62      1.0000 0.90180  0.11110  0.01900  Biso   1.000  H
  H63      1.0000 0.59820  0.61110  0.48100  Biso   1.000  H
  H64      1.0000 0.09820  0.88890  0.98100  Biso   1.000  H
  H65      1.0000 0.39980  0.41960  0.43120  Biso   1.000  H
  H66      1.0000 0.89980  0.08040  0.93120  Biso   1.000  H
  H67      1.0000 0.60020  0.58040  0.56880  Biso   1.000  H
  H68      1.0000 0.10020  0.91960  0.06880  Biso   1.000  H
  C37      1.0000 0.57670  0.40450  0.51230  Biso   1.000  C
  C38      1.0000 0.07670  0.09550  0.01230  Biso   1.000  C
  C39      1.0000 0.42330  0.59550  0.48770  Biso   1.000  C
  C40      1.0000 0.92330  0.90450  0.98770  Biso   1.000  C
  H69      1.0000 0.60990  0.42950  0.47540  Biso   1.000  H
  H70      1.0000 0.10990  0.07050  0.97540  Biso   1.000  H
  H71      1.0000 0.39010  0.57050  0.52460  Biso   1.000  H
  H72      1.0000 0.89010  0.92950  0.02460  Biso   1.000  H
  H73      1.0000 0.62020  0.41510  0.57200  Biso   1.000  H
  H74      1.0000 0.12020  0.08490  0.07200  Biso   1.000  H
  H75      1.0000 0.37980  0.58490  0.42800  Biso   1.000  H
  H76      1.0000 0.87980  0.91510  0.92800  Biso   1.000  H
  C41      1.0000 0.51530  0.27870  0.59740  Biso   1.000  C
  C42      1.0000 0.01530  0.22130  0.09740  Biso   1.000  C
  C43      1.0000 0.48470  0.72130  0.40260  Biso   1.000  C
  C44      1.0000 0.98470  0.77870  0.90260  Biso   1.000  C
  H77      1.0000 0.47350  0.31360  0.61110  Biso   1.000  H
  H78      1.0000 0.97350  0.18640  0.11110  Biso   1.000  H
  H79      1.0000 0.52650  0.68640  0.38890  Biso   1.000  H
  H80      1.0000 0.02650  0.81360  0.88890  Biso   1.000  H
  H81      1.0000 0.53930  0.25120  0.64610  Biso   1.000  H
  H82      1.0000 0.03930  0.24880  0.14610  Biso   1.000  H
  H83      1.0000 0.46070  0.74880  0.35390  Biso   1.000  H
  H84      1.0000 0.96070  0.75120  0.85390  Biso   1.000  H
  H85      1.0000 0.46170  0.25750  0.54820  Biso   1.000  H
  H86      1.0000 0.96170  0.24250  0.04820  Biso   1.000  H
  H87      1.0000 0.53830  0.74250  0.45180  Biso   1.000  H
  H88      1.0000 0.03830  0.75750  0.95180  Biso   1.000  H
  C45      1.0000 0.62830  0.30040  0.57640  Biso   1.000  C
  C46      1.0000 0.12830  0.19960  0.07640  Biso   1.000  C
  C47      1.0000 0.37170  0.69960  0.42360  Biso   1.000  C
  C48      1.0000 0.87170  0.80040  0.92360  Biso   1.000  C
  H89      1.0000 0.68000  0.32380  0.62500  Biso   1.000  H
  H90      1.0000 0.18000  0.17620  0.12500  Biso   1.000  H
  H91      1.0000 0.32000  0.67620  0.37500  Biso   1.000  H
  H92      1.0000 0.82000  0.82380  0.87500  Biso   1.000  H
  H93      1.0000 0.67450  0.26490  0.56800  Biso   1.000  H
  H94      1.0000 0.17450  0.23510  0.06800  Biso   1.000  H
  H95      1.0000 0.32550  0.73510  0.43200  Biso   1.000  H
  H96      1.0000 0.82550  0.76490  0.93200  Biso   1.000  H
  C49      1.0000 0.34840  0.01970  0.90530  Biso   1.000  C
  C50      1.0000 0.84840  0.48030  0.40530  Biso   1.000  C
  C51      1.0000 0.65160  0.98030  0.09470  Biso   1.000  C
  C52      1.0000 0.15160  0.51970  0.59470  Biso   1.000  C
  H97      1.0000 0.40690  0.98830  0.90460  Biso   1.000  H
  H98      1.0000 0.90690  0.51170  0.40460  Biso   1.000  H
  H99      1.0000 0.59310  0.01170  0.09540  Biso   1.000  H
  H100     1.0000 0.09310  0.48830  0.59540  Biso   1.000  H
  H101     1.0000 0.26760  0.00600  0.87280  Biso   1.000  H
  H102     1.0000 0.76760  0.49400  0.37280  Biso   1.000  H
  H103     1.0000 0.73240  0.99400  0.12720  Biso   1.000  H
  H104     1.0000 0.23240  0.50600  0.62720  Biso   1.000  H
  H105     1.0000 0.35160  0.02790  0.96400  Biso   1.000  H
  H106     1.0000 0.85160  0.47210  0.46400  Biso   1.000  H
  H107     1.0000 0.64840  0.97210  0.03600  Biso   1.000  H
  H108     1.0000 0.14840  0.52790  0.53600  Biso   1.000  H
  C53      1.0000 0.37850  0.07820  0.86480  Biso   1.000  C
  C54      1.0000 0.87850  0.42180  0.36480  Biso   1.000  C
  C55      1.0000 0.62150  0.92180  0.13520  Biso   1.000  C
  C56      1.0000 0.12150  0.57820  0.63520  Biso   1.000  C
  H109     1.0000 0.37550  0.06980  0.80560  Biso   1.000  H
  H110     1.0000 0.87550  0.43020  0.30560  Biso   1.000  H
  H111     1.0000 0.62450  0.93020  0.19440  Biso   1.000  H
  H112     1.0000 0.12450  0.56980  0.69440  Biso   1.000  H
  H113     1.0000 0.31720  0.10930  0.86340  Biso   1.000  H
  H114     1.0000 0.81720  0.39070  0.36340  Biso   1.000  H
  H115     1.0000 0.68280  0.89070  0.13660  Biso   1.000  H
  H116     1.0000 0.18280  0.60930  0.63660  Biso   1.000  H
  C57      1.0000 0.61970  0.11340  0.81100  Biso   1.000  C
  C58      1.0000 0.11970  0.38660  0.31100  Biso   1.000  C
  C59      1.0000 0.38030  0.88660  0.18900  Biso   1.000  C
  C60      1.0000 0.88030  0.61340  0.68900  Biso   1.000  C
  H117     1.0000 0.68140  0.09400  0.79150  Biso   1.000  H
  H118     1.0000 0.18140  0.40600  0.29150  Biso   1.000  H
  H119     1.0000 0.31860  0.90600  0.20850  Biso   1.000  H
  H120     1.0000 0.81860  0.59400  0.70850  Biso   1.000  H
  H121     1.0000 0.64520  0.15460  0.83010  Biso   1.000  H
  H122     1.0000 0.14520  0.34540  0.33010  Biso   1.000  H
  H123     1.0000 0.35480  0.84540  0.16990  Biso   1.000  H
  H124     1.0000 0.85480  0.65460  0.66990  Biso   1.000  H
  H125     1.0000 0.54400  0.11500  0.76420  Biso   1.000  H
  H126     1.0000 0.04400  0.38500  0.26420  Biso   1.000  H
  H127     1.0000 0.45600  0.88500  0.23580  Biso   1.000  H
  H128     1.0000 0.95600  0.61500  0.73580  Biso   1.000  H
  C61      1.0000 0.60160  0.07700  0.88520  Biso   1.000  C
  C62      1.0000 0.10160  0.42300  0.38520  Biso   1.000  C
  C63      1.0000 0.39840  0.92300  0.11480  Biso   1.000  C
  C64      1.0000 0.89840  0.57700  0.61480  Biso   1.000  C
  H129     1.0000 0.58410  0.03440  0.86750  Biso   1.000  H
  H130     1.0000 0.08410  0.46560  0.36750  Biso   1.000  H
  H131     1.0000 0.41590  0.96560  0.13250  Biso   1.000  H
  H132     1.0000 0.91590  0.53440  0.63250  Biso   1.000  H
  H133     1.0000 0.67660  0.07780  0.93380  Biso   1.000  H
  H134     1.0000 0.17660  0.42220  0.43380  Biso   1.000  H
  H135     1.0000 0.32340  0.92220  0.06620  Biso   1.000  H
  H136     1.0000 0.82340  0.57780  0.56620  Biso   1.000  H
  C65      1.0000 0.51610  0.14210  0.97630  Biso   1.000  C
  C66      1.0000 0.01610  0.35790  0.47630  Biso   1.000  C
  C67      1.0000 0.48390  0.85790  0.02370  Biso   1.000  C
  C68      1.0000 0.98390  0.64210  0.52370  Biso   1.000  C
  C69      1.0000 0.66490  0.21070  0.11550  Biso   1.000  C
  C70      1.0000 0.16490  0.28930  0.61550  Biso   1.000  C
  C71      1.0000 0.33510  0.78930  0.88450  Biso   1.000  C
  C72      1.0000 0.83510  0.71070  0.38450  Biso   1.000  C
  H137     1.0000 0.73400  0.23880  0.13130  Biso   1.000  H
  H138     1.0000 0.23400  0.26120  0.63130  Biso   1.000  H
  H139     1.0000 0.26600  0.76120  0.86870  Biso   1.000  H
  H140     1.0000 0.76600  0.73880  0.36870  Biso   1.000  H
  H141     1.0000 0.59070  0.23520  0.10120  Biso   1.000  H
  H142     1.0000 0.09070  0.26480  0.60120  Biso   1.000  H
  H143     1.0000 0.40930  0.76480  0.89880  Biso   1.000  H
  H144     1.0000 0.90930  0.73520  0.39880  Biso   1.000  H
  C73      1.0000 0.67070  0.17090  0.19270  Biso   1.000  C
  C74      1.0000 0.17070  0.32910  0.69270  Biso   1.000  C
  C75      1.0000 0.32930  0.82910  0.80730  Biso   1.000  C
  C76      1.0000 0.82930  0.67090  0.30730  Biso   1.000  C
  H145     1.0000 0.59860  0.14470  0.17820  Biso   1.000  H
  H146     1.0000 0.09860  0.35530  0.67820  Biso   1.000  H
  H147     1.0000 0.40140  0.85530  0.82180  Biso   1.000  H
  H148     1.0000 0.90140  0.64470  0.32180  Biso   1.000  H
  H149     1.0000 0.66820  0.19730  0.24030  Biso   1.000  H
  H150     1.0000 0.16820  0.30270  0.74030  Biso   1.000  H
  H151     1.0000 0.33180  0.80270  0.75970  Biso   1.000  H
  H152     1.0000 0.83180  0.69730  0.25970  Biso   1.000  H
  C77      1.0000 0.92030  0.17190  0.28970  Biso   1.000  C
  C78      1.0000 0.42030  0.32810  0.78970  Biso   1.000  C
  C79      1.0000 0.07970  0.82810  0.71030  Biso   1.000  C
  C80      1.0000 0.57970  0.67190  0.21030  Biso   1.000  C
  C81      1.0000 0.20580  0.20690  0.34450  Biso   1.000  C
  C82      1.0000 0.70580  0.29310  0.84450  Biso   1.000  C
  C83      1.0000 0.79420  0.79310  0.65550  Biso   1.000  C
  C84      1.0000 0.29420  0.70690  0.15550  Biso   1.000  C
  H153     1.0000 0.27440  0.22700  0.38510  Biso   1.000  H
  H154     1.0000 0.77440  0.27300  0.88510  Biso   1.000  H
  H155     1.0000 0.72560  0.77300  0.61490  Biso   1.000  H
  H156     1.0000 0.22560  0.72700  0.11490  Biso   1.000  H
  H157     1.0000 0.15230  0.23730  0.30910  Biso   1.000  H
  H158     1.0000 0.65230  0.26270  0.80910  Biso   1.000  H
  H159     1.0000 0.84770  0.76270  0.69090  Biso   1.000  H
  H160     1.0000 0.34770  0.73730  0.19090  Biso   1.000  H
  H161     1.0000 0.23470  0.17980  0.30830  Biso   1.000  H
  H162     1.0000 0.73470  0.32020  0.80830  Biso   1.000  H
  H163     1.0000 0.76530  0.82020  0.69170  Biso   1.000  H
  H164     1.0000 0.26530  0.67980  0.19170  Biso   1.000  H
  C85      1.0000 0.14280  0.17320  0.38890  Biso   1.000  C
  C86      1.0000 0.64280  0.32680  0.88890  Biso   1.000  C
  C87      1.0000 0.85720  0.82680  0.61110  Biso   1.000  C
  C88      1.0000 0.35720  0.67320  0.11110  Biso   1.000  C
  H165     1.0000 0.11500  0.19930  0.42750  Biso   1.000  H
  H166     1.0000 0.61500  0.30070  0.92750  Biso   1.000  H
  H167     1.0000 0.88500  0.80070  0.57250  Biso   1.000  H
  H168     1.0000 0.38500  0.69930  0.07250  Biso   1.000  H
  H169     1.0000 0.19330  0.14040  0.42230  Biso   1.000  H
  H170     1.0000 0.69330  0.35960  0.92230  Biso   1.000  H
  H171     1.0000 0.80670  0.85960  0.57770  Biso   1.000  H
  H172     1.0000 0.30670  0.64040  0.07770  Biso   1.000  H
  C89      1.0000 0.04470  0.03450  0.33730  Biso   1.000  C
  C90      1.0000 0.54470  0.46550  0.83730  Biso   1.000  C
  C91      1.0000 0.95530  0.96550  0.66270  Biso   1.000  C
  C92      1.0000 0.45530  0.53450  0.16270  Biso   1.000  C
  H173     1.0000 0.08460  0.99840  0.32480  Biso   1.000  H
  H174     1.0000 0.58460  0.50160  0.82480  Biso   1.000  H
  H175     1.0000 0.91540  0.00160  0.67520  Biso   1.000  H
  H176     1.0000 0.41540  0.49840  0.17520  Biso   1.000  H
  H177     1.0000 0.95930  0.02600  0.32660  Biso   1.000  H
  H178     1.0000 0.45930  0.47400  0.82660  Biso   1.000  H
  H179     1.0000 0.04070  0.97400  0.67340  Biso   1.000  H
  H180     1.0000 0.54070  0.52600  0.17340  Biso   1.000  H
  H181     1.0000 0.08140  0.04570  0.39700  Biso   1.000  H
  H182     1.0000 0.58140  0.45430  0.89700  Biso   1.000  H
  H183     1.0000 0.91860  0.95430  0.60300  Biso   1.000  H
  H184     1.0000 0.41860  0.54570  0.10300  Biso   1.000  H
  C93      1.0000 0.05850  0.08530  0.28190  Biso   1.000  C
  C94      1.0000 0.55850  0.41470  0.78190  Biso   1.000  C
  C95      1.0000 0.94150  0.91470  0.71810  Biso   1.000  C
  C96      1.0000 0.44150  0.58530  0.21810  Biso   1.000  C
  H185     1.0000 0.00350  0.07880  0.22360  Biso   1.000  H
  H186     1.0000 0.50350  0.42120  0.72360  Biso   1.000  H
  H187     1.0000 0.99650  0.92120  0.77640  Biso   1.000  H
  H188     1.0000 0.49650  0.57880  0.27640  Biso   1.000  H
  H189     1.0000 0.14160  0.08550  0.27920  Biso   1.000  H
  H190     1.0000 0.64160  0.41450  0.77920  Biso   1.000  H
  H191     1.0000 0.85840  0.91450  0.72080  Biso   1.000  H
  H192     1.0000 0.35840  0.58550  0.22080  Biso   1.000  H
  Cl1      1.0000 0.88560  0.43216  0.74848  Biso   1.000  Cl
  Cl2      1.0000 0.38560  0.06784  0.24848  Biso   1.000  Cl
  Cl3      1.0000 0.11440  0.56784  0.25152  Biso   1.000  Cl
  Cl4      1.0000 0.61440  0.93216  0.75152  Biso   1.000  Cl
  O1       1.0000 0.87980  0.36830  0.73840  Biso   1.000  O
  O2       1.0000 0.37980  0.13170  0.23840  Biso   1.000  O
  O3       1.0000 0.12020  0.63170  0.26160  Biso   1.000  O
  O4       1.0000 0.62020  0.86830  0.76160  Biso   1.000  O
  O5       1.0000 0.78440  0.45970  0.68910  Biso   1.000  O
  O6       1.0000 0.28440  0.04030  0.18910  Biso   1.000  O
  O7       1.0000 0.21560  0.54030  0.31090  Biso   1.000  O
  O8       1.0000 0.71560  0.95970  0.81090  Biso   1.000  O
  O9       1.0000 0.88200  0.44260  0.83130  Biso   1.000  O
  O10      1.0000 0.38200  0.05740  0.33130  Biso   1.000  O
  O11      1.0000 0.11800  0.55740  0.16870  Biso   1.000  O
  O12      1.0000 0.61800  0.94260  0.66870  Biso   1.000  O
  O13      1.0000 0.99570  0.45300  0.73810  Biso   1.000  O
  O14      1.0000 0.49570  0.04700  0.23810  Biso   1.000  O
  O15      1.0000 0.00430  0.54700  0.26190  Biso   1.000  O
  O16      1.0000 0.50430  0.95300  0.76190  Biso   1.000  O
