data_image0
_cell_length_a       3.7203
_cell_length_b       30.35
_cell_length_c       6.154
_cell_angle_alpha    90
_cell_angle_beta     92.71
_cell_angle_gamma    90

_symmetry_space_group_name_H-M    "P 1"
_symmetry_int_tables_number       1

loop_
  _symmetry_equiv_pos_as_xyz
  'x, y, z'

loop_
  _atom_site_label
  _atom_site_occupancy
  _atom_site_fract_x
  _atom_site_fract_y
  _atom_site_fract_z
  _atom_site_thermal_displace_type
  _atom_site_B_iso_or_equiv
  _atom_site_type_symbol
  Cu1      1.0000 0.05615  0.22333  0.15341  Biso   1.000  Cu
  Cu2      1.0000 0.44385  0.72333  0.34659  Biso   1.000  Cu
  Cu3      1.0000 0.94385  0.77667  0.84659  Biso   1.000  Cu
  Cu4      1.0000 0.55615  0.27667  0.65341  Biso   1.000  Cu
  Cl1      1.0000 0.03620  0.27850  0.41328  Biso   1.000  Cl
  Cl2      1.0000 0.46380  0.77850  0.08672  Biso   1.000  Cl
  Cl3      1.0000 0.96380  0.72150  0.58672  Biso   1.000  Cl
  Cl4      1.0000 0.53620  0.22150  0.91328  Biso   1.000  Cl
  O1       1.0000 0.28280  0.01000  0.24120  Biso   1.000  O
  O2       1.0000 0.21720  0.51000  0.25880  Biso   1.000  O
  O3       1.0000 0.71720  0.99000  0.75880  Biso   1.000  O
  O4       1.0000 0.78280  0.49000  0.74120  Biso   1.000  O
  H1       1.0000 0.35000  0.98700  0.15600  Biso   1.000  H
  H2       1.0000 0.15000  0.48700  0.34400  Biso   1.000  H
  H3       1.0000 0.65000  0.01300  0.84400  Biso   1.000  H
  H4       1.0000 0.85000  0.51300  0.65600  Biso   1.000  H
  O5       1.0000 0.47100  0.05537  0.98480  Biso   1.000  O
  O6       1.0000 0.02900  0.55537  0.51520  Biso   1.000  O
  O7       1.0000 0.52900  0.94463  0.01520  Biso   1.000  O
  O8       1.0000 0.97100  0.44463  0.48480  Biso   1.000  O
  N1       1.0000 0.10360  0.16419  0.31040  Biso   1.000  N
  N2       1.0000 0.39640  0.66419  0.18960  Biso   1.000  N
  N3       1.0000 0.89640  0.83581  0.68960  Biso   1.000  N
  N4       1.0000 0.60360  0.33581  0.81040  Biso   1.000  N
  C1       1.0000 0.21670  0.12859  0.20510  Biso   1.000  C
  C2       1.0000 0.28330  0.62859  0.29490  Biso   1.000  C
  C3       1.0000 0.78330  0.87141  0.79490  Biso   1.000  C
  C4       1.0000 0.71670  0.37141  0.70510  Biso   1.000  C
  H5       1.0000 0.31210  0.13250  0.06590  Biso   1.000  H
  H6       1.0000 0.18790  0.63250  0.43410  Biso   1.000  H
  H7       1.0000 0.68790  0.86750  0.93410  Biso   1.000  H
  H8       1.0000 0.81210  0.36750  0.56590  Biso   1.000  H
  C5       1.0000 0.20120  0.08610  0.28970  Biso   1.000  C
  C6       1.0000 0.29880  0.58610  0.21030  Biso   1.000  C
  C7       1.0000 0.79880  0.91390  0.71030  Biso   1.000  C
  C8       1.0000 0.70120  0.41390  0.78970  Biso   1.000  C
  C9       1.0000 0.06740  0.08025  0.49540  Biso   1.000  C
  C10      1.0000 0.43260  0.58025  0.00460  Biso   1.000  C
  C11      1.0000 0.93260  0.91975  0.50460  Biso   1.000  C
  C12      1.0000 0.56740  0.41975  0.99540  Biso   1.000  C
  H9       1.0000 0.05180  0.05170  0.55760  Biso   1.000  H
  H10      1.0000 0.44820  0.55170  0.94240  Biso   1.000  H
  H11      1.0000 0.94820  0.94830  0.44240  Biso   1.000  H
  H12      1.0000 0.55180  0.44830  0.05760  Biso   1.000  H
  C13      1.0000 0.95790  0.11712  0.60640  Biso   1.000  C
  C14      1.0000 0.54210  0.61712  0.89360  Biso   1.000  C
  C15      1.0000 0.04210  0.88288  0.39360  Biso   1.000  C
  C16      1.0000 0.45790  0.38288  0.10640  Biso   1.000  C
  H13      1.0000 0.86810  0.11440  0.74780  Biso   1.000  H
  H14      1.0000 0.63190  0.61440  0.75220  Biso   1.000  H
  H15      1.0000 0.13190  0.88560  0.25220  Biso   1.000  H
  H16      1.0000 0.36810  0.38560  0.24780  Biso   1.000  H
  C17      1.0000 0.98060  0.15802  0.50930  Biso   1.000  C
  C18      1.0000 0.51940  0.65802  0.99070  Biso   1.000  C
  C19      1.0000 0.01940  0.84198  0.49070  Biso   1.000  C
  C20      1.0000 0.48060  0.34198  0.00930  Biso   1.000  C
  H17      1.0000 0.90500  0.18310  0.58770  Biso   1.000  H
  H18      1.0000 0.59500  0.68310  0.91230  Biso   1.000  H
  H19      1.0000 0.09500  0.81690  0.41230  Biso   1.000  H
  H20      1.0000 0.40500  0.31690  0.08770  Biso   1.000  H
  C21      1.0000 0.32750  0.04772  0.15990  Biso   1.000  C
  C22      1.0000 0.17250  0.54772  0.34010  Biso   1.000  C
  C23      1.0000 0.67250  0.95228  0.84010  Biso   1.000  C
  C24      1.0000 0.82750  0.45228  0.65990  Biso   1.000  C
