data_image0
_cell_length_a       5.994
_cell_length_b       7.949
_cell_length_c       13.868
_cell_angle_alpha    101.154
_cell_angle_beta     95.823
_cell_angle_gamma    101.176

_symmetry_space_group_name_H-M    "P 1"
_symmetry_int_tables_number       1

loop_
  _symmetry_equiv_pos_as_xyz
  'x, y, z'

loop_
  _atom_site_label
  _atom_site_occupancy
  _atom_site_fract_x
  _atom_site_fract_y
  _atom_site_fract_z
  _atom_site_thermal_displace_type
  _atom_site_B_iso_or_equiv
  _atom_site_type_symbol
  Cu1      1.0000 0.10499  0.95118  0.68362  Biso   1.000  Cu
  Cu2      1.0000 0.89501  0.04882  0.31638  Biso   1.000  Cu
  P1       1.0000 0.60282  0.87126  0.77600  Biso   1.000  P
  P2       1.0000 0.39718  0.12874  0.22400  Biso   1.000  P
  S1       1.0000 0.90448  0.79885  0.77535  Biso   1.000  S
  S2       1.0000 0.09552  0.20115  0.22465  Biso   1.000  S
  S3       1.0000 0.43715  0.86595  0.64374  Biso   1.000  S
  S4       1.0000 0.56285  0.13405  0.35626  Biso   1.000  S
  O1       1.0000 0.45080  0.75444  0.83716  Biso   1.000  O
  O2       1.0000 0.54920  0.24556  0.16284  Biso   1.000  O
  O3       1.0000 0.62570  0.06193  0.84176  Biso   1.000  O
  O4       1.0000 0.37430  0.93807  0.15824  Biso   1.000  O
  N1       1.0000 0.06740  0.15352  0.62223  Biso   1.000  N
  N2       1.0000 0.93260  0.84648  0.37777  Biso   1.000  N
  C1       1.0000 0.20640  0.20090  0.55719  Biso   1.000  C
  C2       1.0000 0.79360  0.79910  0.44281  Biso   1.000  C
  H1       1.0000 0.32300  0.14200  0.54760  Biso   1.000  H
  H2       1.0000 0.67700  0.85800  0.45240  Biso   1.000  H
  C3       1.0000 0.18580  0.33440  0.50849  Biso   1.000  C
  C4       1.0000 0.81420  0.66560  0.49151  Biso   1.000  C
  H3       1.0000 0.27900  0.35600  0.46400  Biso   1.000  H
  H4       1.0000 0.72100  0.64400  0.53600  Biso   1.000  H
  C5       1.0000 0.01470  0.42830  0.52595  Biso   1.000  C
  C6       1.0000 0.98530  0.57170  0.47405  Biso   1.000  C
  C7       1.0000 0.87180  0.37980  0.59398  Biso   1.000  C
  C8       1.0000 0.12820  0.62020  0.40602  Biso   1.000  C
  H5       1.0000 0.75800  0.43300  0.60810  Biso   1.000  H
  H6       1.0000 0.24200  0.56700  0.39190  Biso   1.000  H
  C9       1.0000 0.90210  0.24440  0.63938  Biso   1.000  C
  C10      1.0000 0.09790  0.75560  0.36062  Biso   1.000  C
  H7       1.0000 0.81000  0.21100  0.68490  Biso   1.000  H
  H8       1.0000 0.19000  0.78900  0.31510  Biso   1.000  H
  C11      1.0000 0.35390  0.56870  0.79597  Biso   1.000  C
  C12      1.0000 0.64610  0.43130  0.20403  Biso   1.000  C
  H9       1.0000 0.20600  0.54600  0.81080  Biso   1.000  H
  H10      1.0000 0.79400  0.45400  0.18920  Biso   1.000  H
  H11      1.0000 0.34400  0.55000  0.72450  Biso   1.000  H
  H12      1.0000 0.65600  0.45000  0.27550  Biso   1.000  H
  C13      1.0000 0.49100  0.45530  0.83863  Biso   1.000  C
  C14      1.0000 0.50900  0.54470  0.16137  Biso   1.000  C
  H13      1.0000 0.41400  0.33200  0.80960  Biso   1.000  H
  H14      1.0000 0.58600  0.66800  0.19040  Biso   1.000  H
  H15      1.0000 0.64600  0.48000  0.82200  Biso   1.000  H
  H16      1.0000 0.35400  0.52000  0.17800  Biso   1.000  H
  H17      1.0000 0.49300  0.47300  0.90900  Biso   1.000  H
  H18      1.0000 0.50700  0.52700  0.09100  Biso   1.000  H
  C15      1.0000 0.75350  0.11400  0.94291  Biso   1.000  C
  C16      1.0000 0.24650  0.88600  0.05709  Biso   1.000  C
  H19      1.0000 0.78700  0.01100  0.96360  Biso   1.000  H
  H20      1.0000 0.21300  0.98900  0.03640  Biso   1.000  H
  H21      1.0000 0.65400  0.15800  0.97890  Biso   1.000  H
  H22      1.0000 0.34600  0.84200  0.02110  Biso   1.000  H
  C17      1.0000 0.97200  0.24500  0.94478  Biso   1.000  C
  C18      1.0000 0.02800  0.75500  0.05522  Biso   1.000  C
  H23      1.0000 0.05300  0.28300  0.01300  Biso   1.000  H
  H24      1.0000 0.94700  0.71700  0.98700  Biso   1.000  H
  H25      1.0000 0.94200  0.33800  0.92000  Biso   1.000  H
  H26      1.0000 0.05800  0.66200  0.08000  Biso   1.000  H
  H27      1.0000 0.07300  0.19300  0.89900  Biso   1.000  H
  H28      1.0000 0.92700  0.80700  0.10100  Biso   1.000  H
