data_image0
_cell_length_a       15.437
_cell_length_b       18.402
_cell_length_c       13.078
_cell_angle_alpha    90
_cell_angle_beta     92.964
_cell_angle_gamma    90

_symmetry_space_group_name_H-M    "P 1"
_symmetry_int_tables_number       1

loop_
  _symmetry_equiv_pos_as_xyz
  'x, y, z'

loop_
  _atom_site_label
  _atom_site_occupancy
  _atom_site_fract_x
  _atom_site_fract_y
  _atom_site_fract_z
  _atom_site_thermal_displace_type
  _atom_site_B_iso_or_equiv
  _atom_site_type_symbol
  Cu1      1.0000 0.36078  0.20971  0.72968  Biso   1.000  Cu
  Cu2      1.0000 0.86078  0.70971  0.72968  Biso   1.000  Cu
  Cu3      1.0000 0.63922  0.20971  0.77032  Biso   1.000  Cu
  Cu4      1.0000 0.13922  0.70971  0.77032  Biso   1.000  Cu
  Cu5      1.0000 0.63922  0.79029  0.27032  Biso   1.000  Cu
  Cu6      1.0000 0.13922  0.29029  0.27032  Biso   1.000  Cu
  Cu7      1.0000 0.36078  0.79029  0.22968  Biso   1.000  Cu
  Cu8      1.0000 0.86078  0.29029  0.22968  Biso   1.000  Cu
  Cu9      1.0000 0.50880  0.32553  0.64102  Biso   1.000  Cu
  Cu10     1.0000 0.00880  0.82553  0.64102  Biso   1.000  Cu
  Cu11     1.0000 0.49120  0.32553  0.85898  Biso   1.000  Cu
  Cu12     1.0000 0.99120  0.82553  0.85898  Biso   1.000  Cu
  Cu13     1.0000 0.49120  0.67447  0.35898  Biso   1.000  Cu
  Cu14     1.0000 0.99120  0.17447  0.35898  Biso   1.000  Cu
  Cu15     1.0000 0.50880  0.67447  0.14102  Biso   1.000  Cu
  Cu16     1.0000 0.00880  0.17447  0.14102  Biso   1.000  Cu
  S1       1.0000 0.36323  0.31889  0.63550  Biso   1.000  S
  S2       1.0000 0.86323  0.81889  0.63550  Biso   1.000  S
  S3       1.0000 0.63677  0.31889  0.86450  Biso   1.000  S
  S4       1.0000 0.13677  0.81889  0.86450  Biso   1.000  S
  S5       1.0000 0.63677  0.68111  0.36450  Biso   1.000  S
  S6       1.0000 0.13677  0.18111  0.36450  Biso   1.000  S
  S7       1.0000 0.36323  0.68111  0.13550  Biso   1.000  S
  S8       1.0000 0.86323  0.18111  0.13550  Biso   1.000  S
  P1       1.0000 0.49760  0.15330  0.94917  Biso   1.000  P
  P2       1.0000 0.99760  0.65330  0.94917  Biso   1.000  P
  P3       1.0000 0.50240  0.15330  0.55083  Biso   1.000  P
  P4       1.0000 0.00240  0.65330  0.55083  Biso   1.000  P
  P5       1.0000 0.50240  0.84670  0.05083  Biso   1.000  P
  P6       1.0000 0.00240  0.34670  0.05083  Biso   1.000  P
  P7       1.0000 0.49760  0.84670  0.44917  Biso   1.000  P
  P8       1.0000 0.99760  0.34670  0.44917  Biso   1.000  P
  S9       1.0000 0.40987  0.22850  0.89859  Biso   1.000  S
  S10      1.0000 0.90987  0.72850  0.89859  Biso   1.000  S
  S11      1.0000 0.59013  0.22850  0.60141  Biso   1.000  S
  S12      1.0000 0.09013  0.72850  0.60141  Biso   1.000  S
  S13      1.0000 0.59013  0.77150  0.10141  Biso   1.000  S
  S14      1.0000 0.09013  0.27150  0.10141  Biso   1.000  S
  S15      1.0000 0.40987  0.77150  0.39859  Biso   1.000  S
  S16      1.0000 0.90987  0.27150  0.39859  Biso   1.000  S
  P9       1.0000 0.32842  0.39737  0.73346  Biso   1.000  P
  P10      1.0000 0.82842  0.89737  0.73346  Biso   1.000  P
  P11      1.0000 0.67158  0.39737  0.76654  Biso   1.000  P
  P12      1.0000 0.17158  0.89737  0.76654  Biso   1.000  P
  P13      1.0000 0.67158  0.60263  0.26654  Biso   1.000  P
  P14      1.0000 0.17158  0.10263  0.26654  Biso   1.000  P
  P15      1.0000 0.32842  0.60263  0.23346  Biso   1.000  P
  P16      1.0000 0.82842  0.10263  0.23346  Biso   1.000  P
  S17      1.0000 0.58683  0.43078  0.65805  Biso   1.000  S
  S18      1.0000 0.08683  0.93078  0.65805  Biso   1.000  S
  S19      1.0000 0.41317  0.43078  0.84195  Biso   1.000  S
  S20      1.0000 0.91317  0.93078  0.84195  Biso   1.000  S
  S21      1.0000 0.41317  0.56922  0.34195  Biso   1.000  S
  S22      1.0000 0.91317  0.06922  0.34195  Biso   1.000  S
  S23      1.0000 0.58683  0.56922  0.15805  Biso   1.000  S
  S24      1.0000 0.08683  0.06922  0.15805  Biso   1.000  S
  S25      1.0000 0.41351  0.11520  0.63923  Biso   1.000  S
  S26      1.0000 0.91351  0.61520  0.63923  Biso   1.000  S
  S27      1.0000 0.58649  0.11520  0.86077  Biso   1.000  S
  S28      1.0000 0.08649  0.61520  0.86077  Biso   1.000  S
  S29      1.0000 0.58649  0.88480  0.36077  Biso   1.000  S
  S30      1.0000 0.08649  0.38480  0.36077  Biso   1.000  S
  S31      1.0000 0.41351  0.88480  0.13923  Biso   1.000  S
  S32      1.0000 0.91351  0.38480  0.13923  Biso   1.000  S
  O1       1.0000 0.44571  0.08618  0.99233  Biso   1.000  O
  O2       1.0000 0.94571  0.58618  0.99233  Biso   1.000  O
  O3       1.0000 0.55429  0.08618  0.50767  Biso   1.000  O
  O4       1.0000 0.05429  0.58618  0.50767  Biso   1.000  O
  O5       1.0000 0.55429  0.91382  0.00767  Biso   1.000  O
  O6       1.0000 0.05429  0.41382  0.00767  Biso   1.000  O
  O7       1.0000 0.44571  0.91382  0.49233  Biso   1.000  O
  O8       1.0000 0.94571  0.41382  0.49233  Biso   1.000  O
  O9       1.0000 0.53508  0.18967  0.05159  Biso   1.000  O
  O10      1.0000 0.03508  0.68967  0.05159  Biso   1.000  O
  O11      1.0000 0.46492  0.18967  0.44841  Biso   1.000  O
  O12      1.0000 0.96492  0.68967  0.44841  Biso   1.000  O
  O13      1.0000 0.46492  0.81033  0.94841  Biso   1.000  O
  O14      1.0000 0.96492  0.31033  0.94841  Biso   1.000  O
  O15      1.0000 0.53508  0.81033  0.55159  Biso   1.000  O
  O16      1.0000 0.03508  0.31033  0.55159  Biso   1.000  O
  O17      1.0000 0.29239  0.46531  0.66884  Biso   1.000  O
  O18      1.0000 0.79239  0.96531  0.66884  Biso   1.000  O
  O19      1.0000 0.70761  0.46531  0.83116  Biso   1.000  O
  O20      1.0000 0.20761  0.96531  0.83116  Biso   1.000  O
  O21      1.0000 0.70761  0.53469  0.33116  Biso   1.000  O
  O22      1.0000 0.20761  0.03469  0.33116  Biso   1.000  O
  O23      1.0000 0.29239  0.53469  0.16884  Biso   1.000  O
  O24      1.0000 0.79239  0.03469  0.16884  Biso   1.000  O
  N1       1.0000 0.22953  0.18227  0.74388  Biso   1.000  N
  N2       1.0000 0.72953  0.68227  0.74388  Biso   1.000  N
  N3       1.0000 0.77047  0.18227  0.75612  Biso   1.000  N
  N4       1.0000 0.27047  0.68227  0.75612  Biso   1.000  N
  N5       1.0000 0.77047  0.81773  0.25612  Biso   1.000  N
  N6       1.0000 0.27047  0.31773  0.25612  Biso   1.000  N
  N7       1.0000 0.22953  0.81773  0.24388  Biso   1.000  N
  N8       1.0000 0.72953  0.31773  0.24388  Biso   1.000  N
  O25      1.0000 0.24190  0.36724  0.77653  Biso   1.000  O
  O26      1.0000 0.74190  0.86724  0.77653  Biso   1.000  O
  O27      1.0000 0.75810  0.36724  0.72347  Biso   1.000  O
  O28      1.0000 0.25810  0.86724  0.72347  Biso   1.000  O
  O29      1.0000 0.75810  0.63276  0.22347  Biso   1.000  O
  O30      1.0000 0.25810  0.13276  0.22347  Biso   1.000  O
  O31      1.0000 0.24190  0.63276  0.27653  Biso   1.000  O
  O32      1.0000 0.74190  0.13276  0.27653  Biso   1.000  O
  C1       1.0000 0.09866  0.19440  0.83380  Biso   1.000  C
  C2       1.0000 0.59866  0.69440  0.83380  Biso   1.000  C
  C3       1.0000 0.90134  0.19440  0.66620  Biso   1.000  C
  C4       1.0000 0.40134  0.69440  0.66620  Biso   1.000  C
  C5       1.0000 0.90134  0.80560  0.16620  Biso   1.000  C
  C6       1.0000 0.40134  0.30560  0.16620  Biso   1.000  C
  C7       1.0000 0.09866  0.80560  0.33380  Biso   1.000  C
  C8       1.0000 0.59866  0.30560  0.33380  Biso   1.000  C
  H1       1.0000 0.07280  0.20670  0.89410  Biso   1.000  H
  H2       1.0000 0.57280  0.70670  0.89410  Biso   1.000  H
  H3       1.0000 0.92720  0.20670  0.60590  Biso   1.000  H
  H4       1.0000 0.42720  0.70670  0.60590  Biso   1.000  H
  H5       1.0000 0.92720  0.79330  0.10590  Biso   1.000  H
  H6       1.0000 0.42720  0.29330  0.10590  Biso   1.000  H
  H7       1.0000 0.07280  0.79330  0.39410  Biso   1.000  H
  H8       1.0000 0.57280  0.29330  0.39410  Biso   1.000  H
  C9       1.0000 0.04796  0.17043  0.74893  Biso   1.000  C
  C10      1.0000 0.54796  0.67043  0.74893  Biso   1.000  C
  C11      1.0000 0.95204  0.17043  0.75107  Biso   1.000  C
  C12      1.0000 0.45204  0.67043  0.75107  Biso   1.000  C
  C13      1.0000 0.95204  0.82957  0.25107  Biso   1.000  C
  C14      1.0000 0.45204  0.32957  0.25107  Biso   1.000  C
  C15      1.0000 0.04796  0.82957  0.24893  Biso   1.000  C
  C16      1.0000 0.54796  0.32957  0.24893  Biso   1.000  C
  C17      1.0000 0.18055  0.15691  0.66310  Biso   1.000  C
  C18      1.0000 0.68055  0.65691  0.66310  Biso   1.000  C
  C19      1.0000 0.81945  0.15691  0.83690  Biso   1.000  C
  C20      1.0000 0.31945  0.65691  0.83690  Biso   1.000  C
  C21      1.0000 0.81945  0.84309  0.33690  Biso   1.000  C
  C22      1.0000 0.31945  0.34309  0.33690  Biso   1.000  C
  C23      1.0000 0.18055  0.84309  0.16310  Biso   1.000  C
  C24      1.0000 0.68055  0.34309  0.16310  Biso   1.000  C
  H9       1.0000 0.20830  0.14310  0.60470  Biso   1.000  H
  H10      1.0000 0.70830  0.64310  0.60470  Biso   1.000  H
  H11      1.0000 0.79170  0.14310  0.89530  Biso   1.000  H
  H12      1.0000 0.29170  0.64310  0.89530  Biso   1.000  H
  H13      1.0000 0.79170  0.85690  0.39530  Biso   1.000  H
  H14      1.0000 0.29170  0.35690  0.39530  Biso   1.000  H
  H15      1.0000 0.20830  0.85690  0.10470  Biso   1.000  H
  H16      1.0000 0.70830  0.35690  0.10470  Biso   1.000  H
  C25      1.0000 0.09120  0.15041  0.66270  Biso   1.000  C
  C26      1.0000 0.59120  0.65041  0.66270  Biso   1.000  C
  C27      1.0000 0.90880  0.15041  0.83730  Biso   1.000  C
  C28      1.0000 0.40880  0.65041  0.83730  Biso   1.000  C
  C29      1.0000 0.90880  0.84959  0.33730  Biso   1.000  C
  C30      1.0000 0.40880  0.34959  0.33730  Biso   1.000  C
  C31      1.0000 0.09120  0.84959  0.16270  Biso   1.000  C
  C32      1.0000 0.59120  0.34959  0.16270  Biso   1.000  C
  H17      1.0000 0.06030  0.13270  0.60510  Biso   1.000  H
  H18      1.0000 0.56030  0.63270  0.60510  Biso   1.000  H
  H19      1.0000 0.93970  0.13270  0.89490  Biso   1.000  H
  H20      1.0000 0.43970  0.63270  0.89490  Biso   1.000  H
  H21      1.0000 0.93970  0.86730  0.39490  Biso   1.000  H
  H22      1.0000 0.43970  0.36730  0.39490  Biso   1.000  H
  H23      1.0000 0.06030  0.86730  0.10510  Biso   1.000  H
  H24      1.0000 0.56030  0.36730  0.10510  Biso   1.000  H
  C33      1.0000 0.18740  0.19968  0.82780  Biso   1.000  C
  C34      1.0000 0.68740  0.69968  0.82780  Biso   1.000  C
  C35      1.0000 0.81260  0.19968  0.67220  Biso   1.000  C
  C36      1.0000 0.31260  0.69968  0.67220  Biso   1.000  C
  C37      1.0000 0.81260  0.80032  0.17220  Biso   1.000  C
  C38      1.0000 0.31260  0.30032  0.17220  Biso   1.000  C
  C39      1.0000 0.18740  0.80032  0.32780  Biso   1.000  C
  C40      1.0000 0.68740  0.30032  0.32780  Biso   1.000  C
  H25      1.0000 0.21980  0.21620  0.88510  Biso   1.000  H
  H26      1.0000 0.71980  0.71620  0.88510  Biso   1.000  H
  H27      1.0000 0.78020  0.21620  0.61490  Biso   1.000  H
  H28      1.0000 0.28020  0.71620  0.61490  Biso   1.000  H
  H29      1.0000 0.78020  0.78380  0.11490  Biso   1.000  H
  H30      1.0000 0.28020  0.28380  0.11490  Biso   1.000  H
  H31      1.0000 0.21980  0.78380  0.38510  Biso   1.000  H
  H32      1.0000 0.71980  0.28380  0.38510  Biso   1.000  H
  C41      1.0000 0.39680  0.03968  0.92260  Biso   1.000  C
  C42      1.0000 0.89680  0.53968  0.92260  Biso   1.000  C
  C43      1.0000 0.60320  0.03968  0.57740  Biso   1.000  C
  C44      1.0000 0.10320  0.53968  0.57740  Biso   1.000  C
  C45      1.0000 0.60320  0.96032  0.07740  Biso   1.000  C
  C46      1.0000 0.10320  0.46032  0.07740  Biso   1.000  C
  C47      1.0000 0.39680  0.96032  0.42260  Biso   1.000  C
  C48      1.0000 0.89680  0.46032  0.42260  Biso   1.000  C
  H33      1.0000 0.36990  0.00180  0.96020  Biso   1.000  H
  H34      1.0000 0.86990  0.50180  0.96020  Biso   1.000  H
  H35      1.0000 0.63010  0.00180  0.53980  Biso   1.000  H
  H36      1.0000 0.13010  0.50180  0.53980  Biso   1.000  H
  H37      1.0000 0.63010  0.99820  0.03980  Biso   1.000  H
  H38      1.0000 0.13010  0.49820  0.03980  Biso   1.000  H
  H39      1.0000 0.36990  0.99820  0.46020  Biso   1.000  H
  H40      1.0000 0.86990  0.49820  0.46020  Biso   1.000  H
  H41      1.0000 0.43490  0.01850  0.87510  Biso   1.000  H
  H42      1.0000 0.93490  0.51850  0.87510  Biso   1.000  H
  H43      1.0000 0.56510  0.01850  0.62490  Biso   1.000  H
  H44      1.0000 0.06510  0.51850  0.62490  Biso   1.000  H
  H45      1.0000 0.56510  0.98150  0.12490  Biso   1.000  H
  H46      1.0000 0.06510  0.48150  0.12490  Biso   1.000  H
  H47      1.0000 0.43490  0.98150  0.37510  Biso   1.000  H
  H48      1.0000 0.93490  0.48150  0.37510  Biso   1.000  H
  H49      1.0000 0.35290  0.06760  0.88580  Biso   1.000  H
  H50      1.0000 0.85290  0.56760  0.88580  Biso   1.000  H
  H51      1.0000 0.64710  0.06760  0.61420  Biso   1.000  H
  H52      1.0000 0.14710  0.56760  0.61420  Biso   1.000  H
  H53      1.0000 0.64710  0.93240  0.11420  Biso   1.000  H
  H54      1.0000 0.14710  0.43240  0.11420  Biso   1.000  H
  H55      1.0000 0.35290  0.93240  0.38580  Biso   1.000  H
  H56      1.0000 0.85290  0.43240  0.38580  Biso   1.000  H
  C49      1.0000 0.60710  0.15956  0.11190  Biso   1.000  C
  C50      1.0000 0.10710  0.65956  0.11190  Biso   1.000  C
  C51      1.0000 0.39290  0.15956  0.38810  Biso   1.000  C
  C52      1.0000 0.89290  0.65956  0.38810  Biso   1.000  C
  C53      1.0000 0.39290  0.84044  0.88810  Biso   1.000  C
  C54      1.0000 0.89290  0.34044  0.88810  Biso   1.000  C
  C55      1.0000 0.60710  0.84044  0.61190  Biso   1.000  C
  C56      1.0000 0.10710  0.34044  0.61190  Biso   1.000  C
  H57      1.0000 0.61950  0.18960  0.17090  Biso   1.000  H
  H58      1.0000 0.11950  0.68960  0.17090  Biso   1.000  H
  H59      1.0000 0.38050  0.18960  0.32910  Biso   1.000  H
  H60      1.0000 0.88050  0.68960  0.32910  Biso   1.000  H
  H61      1.0000 0.38050  0.81040  0.82910  Biso   1.000  H
  H62      1.0000 0.88050  0.31040  0.82910  Biso   1.000  H
  H63      1.0000 0.61950  0.81040  0.67090  Biso   1.000  H
  H64      1.0000 0.11950  0.31040  0.67090  Biso   1.000  H
  H65      1.0000 0.65720  0.15760  0.07140  Biso   1.000  H
  H66      1.0000 0.15720  0.65760  0.07140  Biso   1.000  H
  H67      1.0000 0.34280  0.15760  0.42860  Biso   1.000  H
  H68      1.0000 0.84280  0.65760  0.42860  Biso   1.000  H
  H69      1.0000 0.34280  0.84240  0.92860  Biso   1.000  H
  H70      1.0000 0.84280  0.34240  0.92860  Biso   1.000  H
  H71      1.0000 0.65720  0.84240  0.57140  Biso   1.000  H
  H72      1.0000 0.15720  0.34240  0.57140  Biso   1.000  H
  H73      1.0000 0.59280  0.11140  0.13370  Biso   1.000  H
  H74      1.0000 0.09280  0.61140  0.13370  Biso   1.000  H
  H75      1.0000 0.40720  0.11140  0.36630  Biso   1.000  H
  H76      1.0000 0.90720  0.61140  0.36630  Biso   1.000  H
  H77      1.0000 0.40720  0.88860  0.86630  Biso   1.000  H
  H78      1.0000 0.90720  0.38860  0.86630  Biso   1.000  H
  H79      1.0000 0.59280  0.88860  0.63370  Biso   1.000  H
  H80      1.0000 0.09280  0.38860  0.63370  Biso   1.000  H
  C57      1.0000 0.35060  0.50547  0.60770  Biso   1.000  C
  C58      1.0000 0.85060  0.00547  0.60770  Biso   1.000  C
  C59      1.0000 0.64940  0.50547  0.89230  Biso   1.000  C
  C60      1.0000 0.14940  0.00547  0.89230  Biso   1.000  C
  C61      1.0000 0.64940  0.49453  0.39230  Biso   1.000  C
  C62      1.0000 0.14940  0.99453  0.39230  Biso   1.000  C
  C63      1.0000 0.35060  0.49453  0.10770  Biso   1.000  C
  C64      1.0000 0.85060  0.99453  0.10770  Biso   1.000  C
  H81      1.0000 0.31960  0.54440  0.57330  Biso   1.000  H
  H82      1.0000 0.81960  0.04440  0.57330  Biso   1.000  H
  H83      1.0000 0.68040  0.54440  0.92670  Biso   1.000  H
  H84      1.0000 0.18040  0.04440  0.92670  Biso   1.000  H
  H85      1.0000 0.68040  0.45560  0.42670  Biso   1.000  H
  H86      1.0000 0.18040  0.95560  0.42670  Biso   1.000  H
  H87      1.0000 0.31960  0.45560  0.07330  Biso   1.000  H
  H88      1.0000 0.81960  0.95560  0.07330  Biso   1.000  H
  H89      1.0000 0.37410  0.47370  0.55790  Biso   1.000  H
  H90      1.0000 0.87410  0.97370  0.55790  Biso   1.000  H
  H91      1.0000 0.62590  0.47370  0.94210  Biso   1.000  H
  H92      1.0000 0.12590  0.97370  0.94210  Biso   1.000  H
  H93      1.0000 0.62590  0.52630  0.44210  Biso   1.000  H
  H94      1.0000 0.12590  0.02630  0.44210  Biso   1.000  H
  H95      1.0000 0.37410  0.52630  0.05790  Biso   1.000  H
  H96      1.0000 0.87410  0.02630  0.05790  Biso   1.000  H
  H97      1.0000 0.39690  0.52510  0.65100  Biso   1.000  H
  H98      1.0000 0.89690  0.02510  0.65100  Biso   1.000  H
  H99      1.0000 0.60310  0.52510  0.84900  Biso   1.000  H
  H100     1.0000 0.10310  0.02510  0.84900  Biso   1.000  H
  H101     1.0000 0.60310  0.47490  0.34900  Biso   1.000  H
  H102     1.0000 0.10310  0.97490  0.34900  Biso   1.000  H
  H103     1.0000 0.39690  0.47490  0.15100  Biso   1.000  H
  H104     1.0000 0.89690  0.97490  0.15100  Biso   1.000  H
  C65      1.0000 0.19650  0.40580  0.85380  Biso   1.000  C
  C66      1.0000 0.69650  0.90580  0.85380  Biso   1.000  C
  C67      1.0000 0.80350  0.40580  0.64620  Biso   1.000  C
  C68      1.0000 0.30350  0.90580  0.64620  Biso   1.000  C
  C69      1.0000 0.80350  0.59420  0.14620  Biso   1.000  C
  C70      1.0000 0.30350  0.09420  0.14620  Biso   1.000  C
  C71      1.0000 0.19650  0.59420  0.35380  Biso   1.000  C
  C72      1.0000 0.69650  0.09420  0.35380  Biso   1.000  C
  H105     1.0000 0.14570  0.37890  0.87010  Biso   1.000  H
  H106     1.0000 0.64570  0.87890  0.87010  Biso   1.000  H
  H107     1.0000 0.85430  0.37890  0.62990  Biso   1.000  H
  H108     1.0000 0.35430  0.87890  0.62990  Biso   1.000  H
  H109     1.0000 0.85430  0.62110  0.12990  Biso   1.000  H
  H110     1.0000 0.35430  0.12110  0.12990  Biso   1.000  H
  H111     1.0000 0.14570  0.62110  0.37010  Biso   1.000  H
  H112     1.0000 0.64570  0.12110  0.37010  Biso   1.000  H
  H113     1.0000 0.17970  0.45290  0.82840  Biso   1.000  H
  H114     1.0000 0.67970  0.95290  0.82840  Biso   1.000  H
  H115     1.0000 0.82030  0.45290  0.67160  Biso   1.000  H
  H116     1.0000 0.32030  0.95290  0.67160  Biso   1.000  H
  H117     1.0000 0.82030  0.54710  0.17160  Biso   1.000  H
  H118     1.0000 0.32030  0.04710  0.17160  Biso   1.000  H
  H119     1.0000 0.17970  0.54710  0.32840  Biso   1.000  H
  H120     1.0000 0.67970  0.04710  0.32840  Biso   1.000  H
  H121     1.0000 0.23390  0.41100  0.91430  Biso   1.000  H
  H122     1.0000 0.73390  0.91100  0.91430  Biso   1.000  H
  H123     1.0000 0.76610  0.41100  0.58570  Biso   1.000  H
  H124     1.0000 0.26610  0.91100  0.58570  Biso   1.000  H
  H125     1.0000 0.76610  0.58900  0.08570  Biso   1.000  H
  H126     1.0000 0.26610  0.08900  0.08570  Biso   1.000  H
  H127     1.0000 0.23390  0.58900  0.41430  Biso   1.000  H
  H128     1.0000 0.73390  0.08900  0.41430  Biso   1.000  H
