data_image0
_cell_length_a       9.405
_cell_length_b       5.755
_cell_length_c       20.554
_cell_angle_alpha    90
_cell_angle_beta     99.548
_cell_angle_gamma    90

_symmetry_space_group_name_H-M    "P 1"
_symmetry_int_tables_number       1

loop_
  _symmetry_equiv_pos_as_xyz
  'x, y, z'

loop_
  _atom_site_label
  _atom_site_occupancy
  _atom_site_fract_x
  _atom_site_fract_y
  _atom_site_fract_z
  _atom_site_thermal_displace_type
  _atom_site_B_iso_or_equiv
  _atom_site_type_symbol
  Cu1      1.0000 0.72793  0.97562  0.18459  Biso   1.000  Cu
  Cu2      1.0000 0.77207  0.47562  0.31541  Biso   1.000  Cu
  Cu3      1.0000 0.27207  0.02438  0.81541  Biso   1.000  Cu
  Cu4      1.0000 0.22793  0.52438  0.68459  Biso   1.000  Cu
  P1       1.0000 0.49751  0.46015  0.17575  Biso   1.000  P
  P2       1.0000 0.00249  0.96015  0.32425  Biso   1.000  P
  P3       1.0000 0.50249  0.53985  0.82425  Biso   1.000  P
  P4       1.0000 0.99751  0.03985  0.67575  Biso   1.000  P
  S1       1.0000 0.61419  0.68457  0.23754  Biso   1.000  S
  S2       1.0000 0.88581  0.18457  0.26246  Biso   1.000  S
  S3       1.0000 0.38581  0.31543  0.76246  Biso   1.000  S
  S4       1.0000 0.11419  0.81543  0.73754  Biso   1.000  S
  S5       1.0000 0.59271  0.25730  0.11872  Biso   1.000  S
  S6       1.0000 0.90729  0.75730  0.38128  Biso   1.000  S
  S7       1.0000 0.40729  0.74270  0.88128  Biso   1.000  S
  S8       1.0000 0.09271  0.24270  0.61872  Biso   1.000  S
  N1       1.0000 0.66690  0.31360  0.38412  Biso   1.000  N
  N2       1.0000 0.83310  0.81360  0.11588  Biso   1.000  N
  N3       1.0000 0.33310  0.68640  0.61588  Biso   1.000  N
  N4       1.0000 0.16690  0.18640  0.88412  Biso   1.000  N
  C1       1.0000 0.58540  0.13360  0.36750  Biso   1.000  C
  C2       1.0000 0.91460  0.63360  0.13250  Biso   1.000  C
  C3       1.0000 0.41460  0.86640  0.63250  Biso   1.000  C
  C4       1.0000 0.08540  0.36640  0.86750  Biso   1.000  C
  H1       1.0000 0.57180  0.08680  0.32360  Biso   1.000  H
  H2       1.0000 0.92820  0.58680  0.17640  Biso   1.000  H
  H3       1.0000 0.42820  0.91320  0.67640  Biso   1.000  H
  H4       1.0000 0.07180  0.41320  0.82360  Biso   1.000  H
  C5       1.0000 0.51730  0.00660  0.41080  Biso   1.000  C
  C6       1.0000 0.98270  0.50660  0.08920  Biso   1.000  C
  C7       1.0000 0.48270  0.99340  0.58920  Biso   1.000  C
  C8       1.0000 0.01730  0.49340  0.91080  Biso   1.000  C
  H5       1.0000 0.46020  0.87970  0.39550  Biso   1.000  H
  H6       1.0000 0.03980  0.37970  0.10450  Biso   1.000  H
  H7       1.0000 0.53980  0.12030  0.60450  Biso   1.000  H
  H8       1.0000 0.96020  0.62030  0.89550  Biso   1.000  H
  C9       1.0000 0.53370  0.06700  0.47575  Biso   1.000  C
  C10      1.0000 0.96630  0.56700  0.02425  Biso   1.000  C
  C11      1.0000 0.46630  0.93300  0.52425  Biso   1.000  C
  C12      1.0000 0.03370  0.43300  0.97575  Biso   1.000  C
  C13      1.0000 0.62450  0.24750  0.49310  Biso   1.000  C
  C14      1.0000 0.87550  0.74750  0.00690  Biso   1.000  C
  C15      1.0000 0.37550  0.75250  0.50690  Biso   1.000  C
  C16      1.0000 0.12450  0.25250  0.99310  Biso   1.000  C
  H9       1.0000 0.64490  0.29330  0.53710  Biso   1.000  H
  H10      1.0000 0.85510  0.79330  0.96290  Biso   1.000  H
  H11      1.0000 0.35510  0.70670  0.46290  Biso   1.000  H
  H12      1.0000 0.14490  0.20670  0.03710  Biso   1.000  H
  C17      1.0000 0.68700  0.36380  0.44670  Biso   1.000  C
  C18      1.0000 0.81300  0.86380  0.05330  Biso   1.000  C
  C19      1.0000 0.31300  0.63620  0.55330  Biso   1.000  C
  C20      1.0000 0.18700  0.13620  0.94670  Biso   1.000  C
  H13      1.0000 0.74800  0.48720  0.46110  Biso   1.000  H
  H14      1.0000 0.75200  0.98720  0.03890  Biso   1.000  H
  H15      1.0000 0.25200  0.51280  0.53890  Biso   1.000  H
  H16      1.0000 0.24800  0.01280  0.96110  Biso   1.000  H
  C21      1.0000 0.31190  0.13850  0.19910  Biso   1.000  C
  C22      1.0000 0.18810  0.63850  0.30090  Biso   1.000  C
  C23      1.0000 0.68810  0.86150  0.80090  Biso   1.000  C
  C24      1.0000 0.81190  0.36150  0.69910  Biso   1.000  C
  H17      1.0000 0.27000  0.07730  0.23510  Biso   1.000  H
  H18      1.0000 0.23000  0.57730  0.26490  Biso   1.000  H
  H19      1.0000 0.73000  0.92270  0.76490  Biso   1.000  H
  H20      1.0000 0.77000  0.42270  0.73510  Biso   1.000  H
  H21      1.0000 0.36290  0.01730  0.18060  Biso   1.000  H
  H22      1.0000 0.13710  0.51730  0.31940  Biso   1.000  H
  H23      1.0000 0.63710  0.98270  0.81940  Biso   1.000  H
  H24      1.0000 0.86290  0.48270  0.68060  Biso   1.000  H
  H25      1.0000 0.23710  0.19820  0.16580  Biso   1.000  H
  H26      1.0000 0.26290  0.69820  0.33420  Biso   1.000  H
  H27      1.0000 0.76290  0.80180  0.83420  Biso   1.000  H
  H28      1.0000 0.73710  0.30180  0.66580  Biso   1.000  H
  C25      1.0000 0.38580  0.69720  0.06940  Biso   1.000  C
  C26      1.0000 0.11420  0.19720  0.43060  Biso   1.000  C
  C27      1.0000 0.61420  0.30280  0.93060  Biso   1.000  C
  C28      1.0000 0.88580  0.80280  0.56940  Biso   1.000  C
  H29      1.0000 0.29710  0.77010  0.04990  Biso   1.000  H
  H30      1.0000 0.20290  0.27010  0.45010  Biso   1.000  H
  H31      1.0000 0.70290  0.22990  0.95010  Biso   1.000  H
  H32      1.0000 0.79710  0.72990  0.54990  Biso   1.000  H
  H33      1.0000 0.41040  0.57880  0.04030  Biso   1.000  H
  H34      1.0000 0.08960  0.07880  0.45970  Biso   1.000  H
  H35      1.0000 0.58960  0.42120  0.95970  Biso   1.000  H
  H36      1.0000 0.91040  0.92120  0.54030  Biso   1.000  H
  H37      1.0000 0.46110  0.81150  0.07650  Biso   1.000  H
  H38      1.0000 0.03890  0.31150  0.42350  Biso   1.000  H
  H39      1.0000 0.53890  0.18850  0.92350  Biso   1.000  H
  H40      1.0000 0.96110  0.68850  0.57650  Biso   1.000  H
  O1       1.0000 0.41010  0.32200  0.22277  Biso   1.000  O
  O2       1.0000 0.08990  0.82200  0.27723  Biso   1.000  O
  O3       1.0000 0.58990  0.67800  0.77723  Biso   1.000  O
  O4       1.0000 0.91010  0.17800  0.72277  Biso   1.000  O
  O5       1.0000 0.36920  0.59530  0.13083  Biso   1.000  O
  O6       1.0000 0.13080  0.09530  0.36917  Biso   1.000  O
  O7       1.0000 0.63080  0.40470  0.86917  Biso   1.000  O
  O8       1.0000 0.86920  0.90470  0.63083  Biso   1.000  O
