data_image0
_cell_length_a       11.5328
_cell_length_b       30.1639
_cell_length_c       8.8471
_cell_angle_alpha    90
_cell_angle_beta     130.232
_cell_angle_gamma    90

_symmetry_space_group_name_H-M    "P 1"
_symmetry_int_tables_number       1

loop_
  _symmetry_equiv_pos_as_xyz
  'x, y, z'

loop_
  _atom_site_label
  _atom_site_occupancy
  _atom_site_fract_x
  _atom_site_fract_y
  _atom_site_fract_z
  _atom_site_thermal_displace_type
  _atom_site_B_iso_or_equiv
  _atom_site_type_symbol
  Cu1      1.0000 0.00000  0.25684  0.50000  Biso   1.000  Cu
  Cu2      1.0000 0.50000  0.75684  0.50000  Biso   1.000  Cu
  Cu3      1.0000 0.00000  0.74316  0.50000  Biso   1.000  Cu
  Cu4      1.0000 0.50000  0.24316  0.50000  Biso   1.000  Cu
  N1       1.0000 0.09490  0.21267  0.42710  Biso   1.000  N
  N2       1.0000 0.59490  0.71267  0.42710  Biso   1.000  N
  N3       1.0000 0.90510  0.21267  0.57290  Biso   1.000  N
  N4       1.0000 0.40510  0.71267  0.57290  Biso   1.000  N
  N5       1.0000 0.90510  0.78733  0.57290  Biso   1.000  N
  N6       1.0000 0.40510  0.28733  0.57290  Biso   1.000  N
  N7       1.0000 0.09490  0.78733  0.42710  Biso   1.000  N
  N8       1.0000 0.59490  0.28733  0.42710  Biso   1.000  N
  N9       1.0000 0.02040  0.19860  0.24060  Biso   1.000  N
  N10      1.0000 0.52040  0.69860  0.24060  Biso   1.000  N
  N11      1.0000 0.97960  0.19860  0.75940  Biso   1.000  N
  N12      1.0000 0.47960  0.69860  0.75940  Biso   1.000  N
  N13      1.0000 0.97960  0.80140  0.75940  Biso   1.000  N
  N14      1.0000 0.47960  0.30140  0.75940  Biso   1.000  N
  N15      1.0000 0.02040  0.80140  0.24060  Biso   1.000  N
  N16      1.0000 0.52040  0.30140  0.24060  Biso   1.000  N
  N17      1.0000 0.08590  0.16271  0.24530  Biso   1.000  N
  N18      1.0000 0.58590  0.66271  0.24530  Biso   1.000  N
  N19      1.0000 0.91410  0.16271  0.75470  Biso   1.000  N
  N20      1.0000 0.41410  0.66271  0.75470  Biso   1.000  N
  N21      1.0000 0.91410  0.83729  0.75470  Biso   1.000  N
  N22      1.0000 0.41410  0.33729  0.75470  Biso   1.000  N
  N23      1.0000 0.08590  0.83729  0.24530  Biso   1.000  N
  N24      1.0000 0.58590  0.33729  0.24530  Biso   1.000  N
  N25      1.0000 0.20610  0.15233  0.43640  Biso   1.000  N
  N26      1.0000 0.70610  0.65233  0.43640  Biso   1.000  N
  N27      1.0000 0.79390  0.15233  0.56360  Biso   1.000  N
  N28      1.0000 0.29390  0.65233  0.56360  Biso   1.000  N
  N29      1.0000 0.79390  0.84767  0.56360  Biso   1.000  N
  N30      1.0000 0.29390  0.34767  0.56360  Biso   1.000  N
  N31      1.0000 0.20610  0.84767  0.43640  Biso   1.000  N
  N32      1.0000 0.70610  0.34767  0.43640  Biso   1.000  N
  N33      1.0000 0.19000  0.09687  0.07070  Biso   1.000  N
  N34      1.0000 0.69000  0.59687  0.07070  Biso   1.000  N
  N35      1.0000 0.81000  0.09687  0.92930  Biso   1.000  N
  N36      1.0000 0.31000  0.59687  0.92930  Biso   1.000  N
  N37      1.0000 0.81000  0.90313  0.92930  Biso   1.000  N
  N38      1.0000 0.31000  0.40313  0.92930  Biso   1.000  N
  N39      1.0000 0.19000  0.90313  0.07070  Biso   1.000  N
  N40      1.0000 0.69000  0.40313  0.07070  Biso   1.000  N
  N41      1.0000 0.32370  0.09905  0.25760  Biso   1.000  N
  N42      1.0000 0.82370  0.59905  0.25760  Biso   1.000  N
  N43      1.0000 0.67630  0.09905  0.74240  Biso   1.000  N
  N44      1.0000 0.17630  0.59905  0.74240  Biso   1.000  N
  N45      1.0000 0.67630  0.90095  0.74240  Biso   1.000  N
  N46      1.0000 0.17630  0.40095  0.74240  Biso   1.000  N
  N47      1.0000 0.32370  0.90095  0.25760  Biso   1.000  N
  N48      1.0000 0.82370  0.40095  0.25760  Biso   1.000  N
  N49      1.0000 0.43490  0.09498  0.25400  Biso   1.000  N
  N50      1.0000 0.93490  0.59498  0.25400  Biso   1.000  N
  N51      1.0000 0.56510  0.09498  0.74600  Biso   1.000  N
  N52      1.0000 0.06510  0.59498  0.74600  Biso   1.000  N
  N53      1.0000 0.56510  0.90502  0.74600  Biso   1.000  N
  N54      1.0000 0.06510  0.40502  0.74600  Biso   1.000  N
  N55      1.0000 0.43490  0.90502  0.25400  Biso   1.000  N
  N56      1.0000 0.93490  0.40502  0.25400  Biso   1.000  N
  N57      1.0000 0.37670  0.08888  0.06530  Biso   1.000  N
  N58      1.0000 0.87670  0.58888  0.06530  Biso   1.000  N
  N59      1.0000 0.62330  0.08888  0.93470  Biso   1.000  N
  N60      1.0000 0.12330  0.58888  0.93470  Biso   1.000  N
  N61      1.0000 0.62330  0.91112  0.93470  Biso   1.000  N
  N62      1.0000 0.12330  0.41112  0.93470  Biso   1.000  N
  N63      1.0000 0.37670  0.91112  0.06530  Biso   1.000  N
  N64      1.0000 0.87670  0.41112  0.06530  Biso   1.000  N
  N65      1.0000 0.29320  0.03649  0.56140  Biso   1.000  N
  N66      1.0000 0.79320  0.53649  0.56140  Biso   1.000  N
  N67      1.0000 0.70680  0.03649  0.43860  Biso   1.000  N
  N68      1.0000 0.20680  0.53649  0.43860  Biso   1.000  N
  N69      1.0000 0.70680  0.96351  0.43860  Biso   1.000  N
  N70      1.0000 0.20680  0.46351  0.43860  Biso   1.000  N
  N71      1.0000 0.29320  0.96351  0.56140  Biso   1.000  N
  N72      1.0000 0.79320  0.46351  0.56140  Biso   1.000  N
  N73      1.0000 0.36850  0.02176  0.74770  Biso   1.000  N
  N74      1.0000 0.86850  0.52176  0.74770  Biso   1.000  N
  N75      1.0000 0.63150  0.02176  0.25230  Biso   1.000  N
  N76      1.0000 0.13150  0.52176  0.25230  Biso   1.000  N
  N77      1.0000 0.63150  0.97824  0.25230  Biso   1.000  N
  N78      1.0000 0.13150  0.47824  0.25230  Biso   1.000  N
  N79      1.0000 0.36850  0.97824  0.74770  Biso   1.000  N
  N80      1.0000 0.86850  0.47824  0.74770  Biso   1.000  N
  N81      1.0000 0.14730  0.29321  0.75690  Biso   1.000  N
  N82      1.0000 0.64730  0.79321  0.75690  Biso   1.000  N
  N83      1.0000 0.85270  0.29321  0.24310  Biso   1.000  N
  N84      1.0000 0.35270  0.79321  0.24310  Biso   1.000  N
  N85      1.0000 0.85270  0.70679  0.24310  Biso   1.000  N
  N86      1.0000 0.35270  0.20679  0.24310  Biso   1.000  N
  N87      1.0000 0.14730  0.70679  0.75690  Biso   1.000  N
  N88      1.0000 0.64730  0.20679  0.75690  Biso   1.000  N
  H1       1.0000 0.15880  0.27980  0.85550  Biso   1.000  H
  H2       1.0000 0.65880  0.77980  0.85550  Biso   1.000  H
  H3       1.0000 0.84120  0.27980  0.14450  Biso   1.000  H
  H4       1.0000 0.34120  0.77980  0.14450  Biso   1.000  H
  H5       1.0000 0.84120  0.72020  0.14450  Biso   1.000  H
  H6       1.0000 0.34120  0.22020  0.14450  Biso   1.000  H
  H7       1.0000 0.15880  0.72020  0.85550  Biso   1.000  H
  H8       1.0000 0.65880  0.22020  0.85550  Biso   1.000  H
  H9       1.0000 0.10960  0.32030  0.73940  Biso   1.000  H
  H10      1.0000 0.60960  0.82030  0.73940  Biso   1.000  H
  H11      1.0000 0.89040  0.32030  0.26060  Biso   1.000  H
  H12      1.0000 0.39040  0.82030  0.26060  Biso   1.000  H
  H13      1.0000 0.89040  0.67970  0.26060  Biso   1.000  H
  H14      1.0000 0.39040  0.17970  0.26060  Biso   1.000  H
  H15      1.0000 0.10960  0.67970  0.73940  Biso   1.000  H
  H16      1.0000 0.60960  0.17970  0.73940  Biso   1.000  H
  H17      1.0000 0.23700  0.29520  0.78660  Biso   1.000  H
  H18      1.0000 0.73700  0.79520  0.78660  Biso   1.000  H
  H19      1.0000 0.76300  0.29520  0.21340  Biso   1.000  H
  H20      1.0000 0.26300  0.79520  0.21340  Biso   1.000  H
  H21      1.0000 0.76300  0.70480  0.21340  Biso   1.000  H
  H22      1.0000 0.26300  0.20480  0.21340  Biso   1.000  H
  H23      1.0000 0.23700  0.70480  0.78660  Biso   1.000  H
  H24      1.0000 0.73700  0.20480  0.78660  Biso   1.000  H
  C1       1.0000 0.20790  0.18391  0.54330  Biso   1.000  C
  C2       1.0000 0.70790  0.68391  0.54330  Biso   1.000  C
  C3       1.0000 0.79210  0.18391  0.45670  Biso   1.000  C
  C4       1.0000 0.29210  0.68391  0.45670  Biso   1.000  C
  C5       1.0000 0.79210  0.81609  0.45670  Biso   1.000  C
  C6       1.0000 0.29210  0.31609  0.45670  Biso   1.000  C
  C7       1.0000 0.20790  0.81609  0.54330  Biso   1.000  C
  C8       1.0000 0.70790  0.31609  0.54330  Biso   1.000  C
  C9       1.0000 0.32120  0.18702  0.76240  Biso   1.000  C
  C10      1.0000 0.82120  0.68702  0.76240  Biso   1.000  C
  C11      1.0000 0.67880  0.18702  0.23760  Biso   1.000  C
  C12      1.0000 0.17880  0.68702  0.23760  Biso   1.000  C
  C13      1.0000 0.67880  0.81298  0.23760  Biso   1.000  C
  C14      1.0000 0.17880  0.31298  0.23760  Biso   1.000  C
  C15      1.0000 0.32120  0.81298  0.76240  Biso   1.000  C
  C16      1.0000 0.82120  0.31298  0.76240  Biso   1.000  C
  H25      1.0000 0.37650  0.21430  0.79990  Biso   1.000  H
  H26      1.0000 0.87650  0.71430  0.79990  Biso   1.000  H
  H27      1.0000 0.62350  0.21430  0.20010  Biso   1.000  H
  H28      1.0000 0.12350  0.71430  0.20010  Biso   1.000  H
  H29      1.0000 0.62350  0.78570  0.20010  Biso   1.000  H
  H30      1.0000 0.12350  0.28570  0.20010  Biso   1.000  H
  H31      1.0000 0.37650  0.78570  0.79990  Biso   1.000  H
  H32      1.0000 0.87650  0.28570  0.79990  Biso   1.000  H
  H33      1.0000 0.39050  0.16250  0.81410  Biso   1.000  H
  H34      1.0000 0.89050  0.66250  0.81410  Biso   1.000  H
  H35      1.0000 0.60950  0.16250  0.18590  Biso   1.000  H
  H36      1.0000 0.10950  0.66250  0.18590  Biso   1.000  H
  H37      1.0000 0.60950  0.83750  0.18590  Biso   1.000  H
  H38      1.0000 0.10950  0.33750  0.18590  Biso   1.000  H
  H39      1.0000 0.39050  0.83750  0.81410  Biso   1.000  H
  H40      1.0000 0.89050  0.33750  0.81410  Biso   1.000  H
  H41      1.0000 0.27000  0.18620  0.81500  Biso   1.000  H
  H42      1.0000 0.77000  0.68620  0.81500  Biso   1.000  H
  H43      1.0000 0.73000  0.18620  0.18500  Biso   1.000  H
  H44      1.0000 0.23000  0.68620  0.18500  Biso   1.000  H
  H45      1.0000 0.73000  0.81380  0.18500  Biso   1.000  H
  H46      1.0000 0.23000  0.31380  0.18500  Biso   1.000  H
  H47      1.0000 0.27000  0.81380  0.81500  Biso   1.000  H
  H48      1.0000 0.77000  0.31380  0.81500  Biso   1.000  H
  Cu5      1.0000 0.00000  0.12381  0.00000  Biso   1.000  Cu
  Cu6      1.0000 0.50000  0.62381  0.00000  Biso   1.000  Cu
  Cu7      1.0000 0.00000  0.87618  0.00000  Biso   1.000  Cu
  Cu8      1.0000 0.50000  0.37618  0.00000  Biso   1.000  Cu
  C17      1.0000 0.22610  0.09016  0.95720  Biso   1.000  C
  C18      1.0000 0.72610  0.59016  0.95720  Biso   1.000  C
  C19      1.0000 0.77390  0.09016  0.04280  Biso   1.000  C
  C20      1.0000 0.27390  0.59016  0.04280  Biso   1.000  C
  C21      1.0000 0.77390  0.90984  0.04280  Biso   1.000  C
  C22      1.0000 0.27390  0.40984  0.04280  Biso   1.000  C
  C23      1.0000 0.22610  0.90984  0.95720  Biso   1.000  C
  C24      1.0000 0.72610  0.40984  0.95720  Biso   1.000  C
  C25      1.0000 0.11450  0.08477  0.73830  Biso   1.000  C
  C26      1.0000 0.61450  0.58477  0.73830  Biso   1.000  C
  C27      1.0000 0.88550  0.08477  0.26170  Biso   1.000  C
  C28      1.0000 0.38550  0.58477  0.26170  Biso   1.000  C
  C29      1.0000 0.88550  0.91523  0.26170  Biso   1.000  C
  C30      1.0000 0.38550  0.41523  0.26170  Biso   1.000  C
  C31      1.0000 0.11450  0.91523  0.73830  Biso   1.000  C
  C32      1.0000 0.61450  0.41523  0.73830  Biso   1.000  C
  H49      1.0000 0.11170  0.05430  0.70500  Biso   1.000  H
  H50      1.0000 0.61170  0.55430  0.70500  Biso   1.000  H
  H51      1.0000 0.88830  0.05430  0.29500  Biso   1.000  H
  H52      1.0000 0.38830  0.55430  0.29500  Biso   1.000  H
  H53      1.0000 0.88830  0.94570  0.29500  Biso   1.000  H
  H54      1.0000 0.38830  0.44570  0.29500  Biso   1.000  H
  H55      1.0000 0.11170  0.94570  0.70500  Biso   1.000  H
  H56      1.0000 0.61170  0.44570  0.70500  Biso   1.000  H
  H57      1.0000 0.14410  0.10290  0.67920  Biso   1.000  H
  H58      1.0000 0.64410  0.60290  0.67920  Biso   1.000  H
  H59      1.0000 0.85590  0.10290  0.32080  Biso   1.000  H
  H60      1.0000 0.35590  0.60290  0.32080  Biso   1.000  H
  H61      1.0000 0.85590  0.89710  0.32080  Biso   1.000  H
  H62      1.0000 0.35590  0.39710  0.32080  Biso   1.000  H
  H63      1.0000 0.14410  0.89710  0.67920  Biso   1.000  H
  H64      1.0000 0.64410  0.39710  0.67920  Biso   1.000  H
  H65      1.0000 0.01560  0.09360  0.68940  Biso   1.000  H
  H66      1.0000 0.51560  0.59360  0.68940  Biso   1.000  H
  H67      1.0000 0.98440  0.09360  0.31060  Biso   1.000  H
  H68      1.0000 0.48440  0.59360  0.31060  Biso   1.000  H
  H69      1.0000 0.98440  0.90640  0.31060  Biso   1.000  H
  H70      1.0000 0.48440  0.40640  0.31060  Biso   1.000  H
  H71      1.0000 0.01560  0.90640  0.68940  Biso   1.000  H
  H72      1.0000 0.51560  0.40640  0.68940  Biso   1.000  H
  C33      1.0000 0.24860  0.00000  0.45180  Biso   1.000  C
  C34      1.0000 0.74860  0.50000  0.45180  Biso   1.000  C
  C35      1.0000 0.75140  0.00000  0.54820  Biso   1.000  C
  C36      1.0000 0.25140  0.50000  0.54820  Biso   1.000  C
  C37      1.0000 0.15900  0.00000  0.23430  Biso   1.000  C
  C38      1.0000 0.65900  0.50000  0.23430  Biso   1.000  C
  C39      1.0000 0.84100  0.00000  0.76570  Biso   1.000  C
  C40      1.0000 0.34100  0.50000  0.76570  Biso   1.000  C
  H73      1.0000 0.22510  0.99410  0.20600  Biso   1.000  H
  H74      1.0000 0.72510  0.49410  0.20600  Biso   1.000  H
  H75      1.0000 0.77490  0.99410  0.79400  Biso   1.000  H
  H76      1.0000 0.27490  0.49410  0.79400  Biso   1.000  H
  H77      1.0000 0.77490  0.00590  0.79400  Biso   1.000  H
  H78      1.0000 0.27490  0.50590  0.79400  Biso   1.000  H
  H79      1.0000 0.22510  0.00590  0.20600  Biso   1.000  H
  H80      1.0000 0.72510  0.50590  0.20600  Biso   1.000  H
  H81      1.0000 0.11190  0.02840  0.18140  Biso   1.000  H
  H82      1.0000 0.61190  0.52840  0.18140  Biso   1.000  H
  H83      1.0000 0.88810  0.02840  0.81860  Biso   1.000  H
  H84      1.0000 0.38810  0.52840  0.81860  Biso   1.000  H
  H85      1.0000 0.88810  0.97160  0.81860  Biso   1.000  H
  H86      1.0000 0.38810  0.47160  0.81860  Biso   1.000  H
  H87      1.0000 0.11190  0.97160  0.18140  Biso   1.000  H
  H88      1.0000 0.61190  0.47160  0.18140  Biso   1.000  H
  Cu9      1.0000 0.33666  0.09908  0.50733  Biso   1.000  Cu
  Cu10     1.0000 0.83666  0.59908  0.50733  Biso   1.000  Cu
  Cu11     1.0000 0.66334  0.09908  0.49267  Biso   1.000  Cu
  Cu12     1.0000 0.16334  0.59908  0.49267  Biso   1.000  Cu
  Cu13     1.0000 0.66334  0.90092  0.49267  Biso   1.000  Cu
  Cu14     1.0000 0.16334  0.40092  0.49267  Biso   1.000  Cu
  Cu15     1.0000 0.33666  0.90092  0.50733  Biso   1.000  Cu
  Cu16     1.0000 0.83666  0.40092  0.50733  Biso   1.000  Cu
  Cu17     1.0000 0.50000  0.06195  0.00000  Biso   1.000  Cu
  Cu18     1.0000 0.00000  0.56195  0.00000  Biso   1.000  Cu
  Cu19     1.0000 0.50000  0.93805  0.00000  Biso   1.000  Cu
  Cu20     1.0000 0.00000  0.43805  0.00000  Biso   1.000  Cu
  H89      1.0000 0.08220  0.97750  0.17490  Biso   1.000  H
  H90      1.0000 0.58220  0.47750  0.17490  Biso   1.000  H
  H91      1.0000 0.91780  0.97750  0.82510  Biso   1.000  H
  H92      1.0000 0.41780  0.47750  0.82510  Biso   1.000  H
  H93      1.0000 0.91780  0.02250  0.82510  Biso   1.000  H
  H94      1.0000 0.41780  0.52250  0.82510  Biso   1.000  H
  H95      1.0000 0.08220  0.02250  0.17490  Biso   1.000  H
  H96      1.0000 0.58220  0.52250  0.17490  Biso   1.000  H
