data_image0
_cell_length_a       12.5555
_cell_length_b       12.5555
_cell_length_c       36.437
_cell_angle_alpha    90
_cell_angle_beta     90
_cell_angle_gamma    90

_symmetry_space_group_name_H-M    "P 1"
_symmetry_int_tables_number       1

loop_
  _symmetry_equiv_pos_as_xyz
  'x, y, z'

loop_
  _atom_site_label
  _atom_site_occupancy
  _atom_site_fract_x
  _atom_site_fract_y
  _atom_site_fract_z
  _atom_site_thermal_displace_type
  _atom_site_B_iso_or_equiv
  _atom_site_type_symbol
  Cu1      1.0000 0.44193  0.98857  0.40406  Biso   1.000  Cu
  Cu2      1.0000 0.94193  0.51143  0.34594  Biso   1.000  Cu
  Cu3      1.0000 0.55807  0.01143  0.90406  Biso   1.000  Cu
  Cu4      1.0000 0.05807  0.48857  0.84594  Biso   1.000  Cu
  Cu5      1.0000 0.98857  0.44193  0.59594  Biso   1.000  Cu
  Cu6      1.0000 0.48857  0.05807  0.15406  Biso   1.000  Cu
  Cu7      1.0000 0.51143  0.94193  0.65406  Biso   1.000  Cu
  Cu8      1.0000 0.01143  0.55807  0.09594  Biso   1.000  Cu
  Cu9      1.0000 0.42566  0.92563  0.47633  Biso   1.000  Cu
  Cu10     1.0000 0.92566  0.57437  0.27367  Biso   1.000  Cu
  Cu11     1.0000 0.57434  0.07437  0.97633  Biso   1.000  Cu
  Cu12     1.0000 0.07434  0.42563  0.77367  Biso   1.000  Cu
  Cu13     1.0000 0.92563  0.42566  0.52367  Biso   1.000  Cu
  Cu14     1.0000 0.42563  0.07434  0.22633  Biso   1.000  Cu
  Cu15     1.0000 0.57437  0.92566  0.72633  Biso   1.000  Cu
  Cu16     1.0000 0.07437  0.57434  0.02367  Biso   1.000  Cu
  I1       1.0000 0.44810  0.12577  0.45936  Biso   1.000  I
  I2       1.0000 0.94810  0.37423  0.29064  Biso   1.000  I
  I3       1.0000 0.55190  0.87423  0.95936  Biso   1.000  I
  I4       1.0000 0.05190  0.62577  0.79064  Biso   1.000  I
  I5       1.0000 0.12577  0.44810  0.54064  Biso   1.000  I
  I6       1.0000 0.62577  0.05190  0.20936  Biso   1.000  I
  I7       1.0000 0.37423  0.94810  0.70936  Biso   1.000  I
  I8       1.0000 0.87423  0.55190  0.04064  Biso   1.000  I
  I9       1.0000 0.44828  0.78285  0.42238  Biso   1.000  I
  I10      1.0000 0.94828  0.71715  0.32762  Biso   1.000  I
  I11      1.0000 0.55172  0.21715  0.92238  Biso   1.000  I
  I12      1.0000 0.05172  0.28285  0.82762  Biso   1.000  I
  I13      1.0000 0.78285  0.44828  0.57762  Biso   1.000  I
  I14      1.0000 0.28285  0.05172  0.17238  Biso   1.000  I
  I15      1.0000 0.71715  0.94828  0.67238  Biso   1.000  I
  I16      1.0000 0.21715  0.55172  0.07762  Biso   1.000  I
  N1       1.0000 0.56870  0.01650  0.36916  Biso   1.000  N
  N2       1.0000 0.06870  0.48350  0.38084  Biso   1.000  N
  N3       1.0000 0.43130  0.98350  0.86916  Biso   1.000  N
  N4       1.0000 0.93130  0.51650  0.88084  Biso   1.000  N
  N5       1.0000 0.01650  0.56870  0.63084  Biso   1.000  N
  N6       1.0000 0.51650  0.93130  0.11916  Biso   1.000  N
  N7       1.0000 0.48350  0.06870  0.61916  Biso   1.000  N
  N8       1.0000 0.98350  0.43130  0.13084  Biso   1.000  N
  N9       1.0000 0.29680  0.01490  0.38005  Biso   1.000  N
  N10      1.0000 0.79680  0.48510  0.36995  Biso   1.000  N
  N11      1.0000 0.70320  0.98510  0.88005  Biso   1.000  N
  N12      1.0000 0.20320  0.51490  0.86995  Biso   1.000  N
  N13      1.0000 0.01490  0.29680  0.61995  Biso   1.000  N
  N14      1.0000 0.51490  0.20320  0.13005  Biso   1.000  N
  N15      1.0000 0.48510  0.79680  0.63005  Biso   1.000  N
  N16      1.0000 0.98510  0.70320  0.11995  Biso   1.000  N
  N17      1.0000 0.54140  0.88490  0.51378  Biso   1.000  N
  N18      1.0000 0.04140  0.61510  0.23622  Biso   1.000  N
  N19      1.0000 0.45860  0.11510  0.01378  Biso   1.000  N
  N20      1.0000 0.95860  0.38490  0.73622  Biso   1.000  N
  N21      1.0000 0.88490  0.54140  0.48622  Biso   1.000  N
  N22      1.0000 0.38490  0.95860  0.26378  Biso   1.000  N
  N23      1.0000 0.61510  0.04140  0.76378  Biso   1.000  N
  N24      1.0000 0.11510  0.45860  0.98622  Biso   1.000  N
  N25      1.0000 0.27880  0.89670  0.49960  Biso   1.000  N
  N26      1.0000 0.77880  0.60330  0.25040  Biso   1.000  N
  N27      1.0000 0.72120  0.10330  0.99960  Biso   1.000  N
  N28      1.0000 0.22120  0.39670  0.75040  Biso   1.000  N
  N29      1.0000 0.89670  0.27880  0.50040  Biso   1.000  N
  N30      1.0000 0.39670  0.22120  0.24960  Biso   1.000  N
  N31      1.0000 0.60330  0.77880  0.74960  Biso   1.000  N
  N32      1.0000 0.10330  0.72120  0.00040  Biso   1.000  N
  C1       1.0000 0.62480  0.93590  0.35521  Biso   1.000  C
  C2       1.0000 0.12480  0.56410  0.39479  Biso   1.000  C
  C3       1.0000 0.37520  0.06410  0.85521  Biso   1.000  C
  C4       1.0000 0.87520  0.43590  0.89479  Biso   1.000  C
  C5       1.0000 0.93590  0.62480  0.64479  Biso   1.000  C
  C6       1.0000 0.43590  0.87520  0.10521  Biso   1.000  C
  C7       1.0000 0.56410  0.12480  0.60521  Biso   1.000  C
  C8       1.0000 0.06410  0.37520  0.14479  Biso   1.000  C
  H1       1.0000 0.60660  0.86640  0.36150  Biso   1.000  H
  H2       1.0000 0.10660  0.63360  0.38850  Biso   1.000  H
  H3       1.0000 0.39340  0.13360  0.86150  Biso   1.000  H
  H4       1.0000 0.89340  0.36640  0.88850  Biso   1.000  H
  H5       1.0000 0.86640  0.60660  0.63850  Biso   1.000  H
  H6       1.0000 0.36640  0.89340  0.11150  Biso   1.000  H
  H7       1.0000 0.63360  0.10660  0.61150  Biso   1.000  H
  H8       1.0000 0.13360  0.39340  0.13850  Biso   1.000  H
  C9       1.0000 0.70880  0.95270  0.33169  Biso   1.000  C
  C10      1.0000 0.20880  0.54730  0.41831  Biso   1.000  C
  C11      1.0000 0.29120  0.04730  0.83169  Biso   1.000  C
  C12      1.0000 0.79120  0.45270  0.91831  Biso   1.000  C
  C13      1.0000 0.95270  0.70880  0.66831  Biso   1.000  C
  C14      1.0000 0.45270  0.79120  0.08169  Biso   1.000  C
  C15      1.0000 0.54730  0.20880  0.58169  Biso   1.000  C
  C16      1.0000 0.04730  0.29120  0.16831  Biso   1.000  C
  H9       1.0000 0.74540  0.89430  0.32230  Biso   1.000  H
  H10      1.0000 0.24540  0.60570  0.42770  Biso   1.000  H
  H11      1.0000 0.25460  0.10570  0.82230  Biso   1.000  H
  H12      1.0000 0.75460  0.39430  0.92770  Biso   1.000  H
  H13      1.0000 0.89430  0.74540  0.67770  Biso   1.000  H
  H14      1.0000 0.39430  0.75460  0.07230  Biso   1.000  H
  H15      1.0000 0.60570  0.24540  0.57230  Biso   1.000  H
  H16      1.0000 0.10570  0.25460  0.17770  Biso   1.000  H
  C17      1.0000 0.74050  0.05440  0.32154  Biso   1.000  C
  C18      1.0000 0.24050  0.44560  0.42846  Biso   1.000  C
  C19      1.0000 0.25950  0.94560  0.82154  Biso   1.000  C
  C20      1.0000 0.75950  0.55440  0.92846  Biso   1.000  C
  C21      1.0000 0.05440  0.74050  0.67846  Biso   1.000  C
  C22      1.0000 0.55440  0.75950  0.07154  Biso   1.000  C
  C23      1.0000 0.44560  0.24050  0.57154  Biso   1.000  C
  C24      1.0000 0.94560  0.25950  0.17846  Biso   1.000  C
  C25      1.0000 0.68330  0.13510  0.33670  Biso   1.000  C
  C26      1.0000 0.18330  0.36490  0.41330  Biso   1.000  C
  C27      1.0000 0.31670  0.86490  0.83670  Biso   1.000  C
  C28      1.0000 0.81670  0.63510  0.91330  Biso   1.000  C
  C29      1.0000 0.13510  0.68330  0.66330  Biso   1.000  C
  C30      1.0000 0.63510  0.81670  0.08670  Biso   1.000  C
  C31      1.0000 0.36490  0.18330  0.58670  Biso   1.000  C
  C32      1.0000 0.86490  0.31670  0.16330  Biso   1.000  C
  H17      1.0000 0.70060  0.20520  0.33110  Biso   1.000  H
  H18      1.0000 0.20060  0.29480  0.41890  Biso   1.000  H
  H19      1.0000 0.29940  0.79480  0.83110  Biso   1.000  H
  H20      1.0000 0.79940  0.70520  0.91890  Biso   1.000  H
  H21      1.0000 0.20520  0.70060  0.66890  Biso   1.000  H
  H22      1.0000 0.70520  0.79940  0.08110  Biso   1.000  H
  H23      1.0000 0.29480  0.20060  0.58110  Biso   1.000  H
  H24      1.0000 0.79480  0.29940  0.16890  Biso   1.000  H
  C33      1.0000 0.60000  0.11440  0.36020  Biso   1.000  C
  C34      1.0000 0.10000  0.38560  0.38980  Biso   1.000  C
  C35      1.0000 0.40000  0.88560  0.86020  Biso   1.000  C
  C36      1.0000 0.90000  0.61440  0.88980  Biso   1.000  C
  C37      1.0000 0.11440  0.60000  0.63980  Biso   1.000  C
  C38      1.0000 0.61440  0.90000  0.11020  Biso   1.000  C
  C39      1.0000 0.38560  0.10000  0.61020  Biso   1.000  C
  C40      1.0000 0.88560  0.40000  0.13980  Biso   1.000  C
  H25      1.0000 0.56370  0.17180  0.37030  Biso   1.000  H
  H26      1.0000 0.06370  0.32820  0.37970  Biso   1.000  H
  H27      1.0000 0.43630  0.82820  0.87030  Biso   1.000  H
  H28      1.0000 0.93630  0.67180  0.87970  Biso   1.000  H
  H29      1.0000 0.17180  0.56370  0.62970  Biso   1.000  H
  H30      1.0000 0.67180  0.93630  0.12030  Biso   1.000  H
  H31      1.0000 0.32820  0.06370  0.62030  Biso   1.000  H
  H32      1.0000 0.82820  0.43630  0.12970  Biso   1.000  H
  C41      1.0000 0.83260  0.07110  0.29610  Biso   1.000  C
  C42      1.0000 0.33260  0.42890  0.45390  Biso   1.000  C
  C43      1.0000 0.16740  0.92890  0.79610  Biso   1.000  C
  C44      1.0000 0.66740  0.57110  0.95390  Biso   1.000  C
  C45      1.0000 0.07110  0.83260  0.70390  Biso   1.000  C
  C46      1.0000 0.57110  0.66740  0.04610  Biso   1.000  C
  C47      1.0000 0.42890  0.33260  0.54610  Biso   1.000  C
  C48      1.0000 0.92890  0.16740  0.20390  Biso   1.000  C
  H33      1.0000 0.83090  0.14550  0.28900  Biso   1.000  H
  H34      1.0000 0.33090  0.35450  0.46100  Biso   1.000  H
  H35      1.0000 0.16910  0.85450  0.78900  Biso   1.000  H
  H36      1.0000 0.66910  0.64550  0.96100  Biso   1.000  H
  H37      1.0000 0.14550  0.83090  0.71100  Biso   1.000  H
  H38      1.0000 0.64550  0.66910  0.03900  Biso   1.000  H
  H39      1.0000 0.35450  0.33090  0.53900  Biso   1.000  H
  H40      1.0000 0.85450  0.16910  0.21100  Biso   1.000  H
  H41      1.0000 0.81700  0.03040  0.27410  Biso   1.000  H
  H42      1.0000 0.31700  0.46960  0.47590  Biso   1.000  H
  H43      1.0000 0.18300  0.96960  0.77410  Biso   1.000  H
  H44      1.0000 0.68300  0.53040  0.97590  Biso   1.000  H
  H45      1.0000 0.03040  0.81700  0.72590  Biso   1.000  H
  H46      1.0000 0.53040  0.68300  0.02410  Biso   1.000  H
  H47      1.0000 0.46960  0.31700  0.52410  Biso   1.000  H
  H48      1.0000 0.96960  0.18300  0.22590  Biso   1.000  H
  C49      1.0000 0.95750  0.04410  0.30700  Biso   1.000  C
  C50      1.0000 0.45750  0.45590  0.44300  Biso   1.000  C
  C51      1.0000 0.04250  0.95590  0.80700  Biso   1.000  C
  C52      1.0000 0.54250  0.54410  0.94300  Biso   1.000  C
  C53      1.0000 0.04410  0.95750  0.69300  Biso   1.000  C
  C54      1.0000 0.54410  0.54250  0.05700  Biso   1.000  C
  C55      1.0000 0.45590  0.45750  0.55700  Biso   1.000  C
  C56      1.0000 0.95590  0.04250  0.19300  Biso   1.000  C
  H49      1.0000 0.97130  0.96810  0.30730  Biso   1.000  H
  H50      1.0000 0.47130  0.53190  0.44270  Biso   1.000  H
  H51      1.0000 0.02870  0.03190  0.80730  Biso   1.000  H
  H52      1.0000 0.52870  0.46810  0.94270  Biso   1.000  H
  H53      1.0000 0.96810  0.97130  0.69270  Biso   1.000  H
  H54      1.0000 0.46810  0.52870  0.05730  Biso   1.000  H
  H55      1.0000 0.53190  0.47130  0.55730  Biso   1.000  H
  H56      1.0000 0.03190  0.02870  0.19270  Biso   1.000  H
  H57      1.0000 0.00750  0.07910  0.29070  Biso   1.000  H
  H58      1.0000 0.50750  0.42090  0.45930  Biso   1.000  H
  H59      1.0000 0.99250  0.92090  0.79070  Biso   1.000  H
  H60      1.0000 0.49250  0.57910  0.95930  Biso   1.000  H
  H61      1.0000 0.07910  0.00750  0.70930  Biso   1.000  H
  H62      1.0000 0.57910  0.49250  0.04070  Biso   1.000  H
  H63      1.0000 0.42090  0.50750  0.54070  Biso   1.000  H
  H64      1.0000 0.92090  0.99250  0.20930  Biso   1.000  H
  C57      1.0000 0.95940  0.08260  0.33820  Biso   1.000  C
  C58      1.0000 0.45940  0.41740  0.41180  Biso   1.000  C
  C59      1.0000 0.04060  0.91740  0.83820  Biso   1.000  C
  C60      1.0000 0.54060  0.58260  0.91180  Biso   1.000  C
  C61      1.0000 0.08260  0.95940  0.66180  Biso   1.000  C
  C62      1.0000 0.58260  0.54060  0.08820  Biso   1.000  C
  C63      1.0000 0.41740  0.45940  0.58820  Biso   1.000  C
  C64      1.0000 0.91740  0.04060  0.16180  Biso   1.000  C
  H65      1.0000 0.91150  0.04520  0.35460  Biso   1.000  H
  H66      1.0000 0.41150  0.45480  0.39540  Biso   1.000  H
  H67      1.0000 0.08850  0.95480  0.85460  Biso   1.000  H
  H68      1.0000 0.58850  0.54520  0.89540  Biso   1.000  H
  H69      1.0000 0.04520  0.91150  0.64540  Biso   1.000  H
  H70      1.0000 0.54520  0.58850  0.10460  Biso   1.000  H
  H71      1.0000 0.45480  0.41150  0.60460  Biso   1.000  H
  H72      1.0000 0.95480  0.08850  0.14540  Biso   1.000  H
  H73      1.0000 0.94130  0.15770  0.33790  Biso   1.000  H
  H74      1.0000 0.44130  0.34230  0.41210  Biso   1.000  H
  H75      1.0000 0.05870  0.84230  0.83790  Biso   1.000  H
  H76      1.0000 0.55870  0.65770  0.91210  Biso   1.000  H
  H77      1.0000 0.15770  0.94130  0.66210  Biso   1.000  H
  H78      1.0000 0.65770  0.55870  0.08790  Biso   1.000  H
  H79      1.0000 0.34230  0.44130  0.58790  Biso   1.000  H
  H80      1.0000 0.84230  0.05870  0.16210  Biso   1.000  H
  C65      1.0000 0.09440  0.06210  0.35040  Biso   1.000  C
  C66      1.0000 0.59440  0.43790  0.39960  Biso   1.000  C
  C67      1.0000 0.90560  0.93790  0.85040  Biso   1.000  C
  C68      1.0000 0.40560  0.56210  0.89960  Biso   1.000  C
  C69      1.0000 0.06210  0.09440  0.64960  Biso   1.000  C
  C70      1.0000 0.56210  0.40560  0.10040  Biso   1.000  C
  C71      1.0000 0.43790  0.59440  0.60040  Biso   1.000  C
  C72      1.0000 0.93790  0.90560  0.14960  Biso   1.000  C
  C73      1.0000 0.11420  0.97400  0.37200  Biso   1.000  C
  C74      1.0000 0.61420  0.52600  0.37800  Biso   1.000  C
  C75      1.0000 0.88580  0.02600  0.87200  Biso   1.000  C
  C76      1.0000 0.38580  0.47400  0.87800  Biso   1.000  C
  C77      1.0000 0.97400  0.11420  0.62800  Biso   1.000  C
  C78      1.0000 0.47400  0.38580  0.12200  Biso   1.000  C
  C79      1.0000 0.52600  0.61420  0.62200  Biso   1.000  C
  C80      1.0000 0.02600  0.88580  0.12800  Biso   1.000  C
  H81      1.0000 0.05830  0.92830  0.37760  Biso   1.000  H
  H82      1.0000 0.55830  0.57170  0.37240  Biso   1.000  H
  H83      1.0000 0.94170  0.07170  0.87760  Biso   1.000  H
  H84      1.0000 0.44170  0.42830  0.87240  Biso   1.000  H
  H85      1.0000 0.92830  0.05830  0.62240  Biso   1.000  H
  H86      1.0000 0.42830  0.44170  0.12760  Biso   1.000  H
  H87      1.0000 0.57170  0.55830  0.62760  Biso   1.000  H
  H88      1.0000 0.07170  0.94170  0.12240  Biso   1.000  H
  C81      1.0000 0.21440  0.95170  0.38530  Biso   1.000  C
  C82      1.0000 0.71440  0.54830  0.36470  Biso   1.000  C
  C83      1.0000 0.78560  0.04830  0.88530  Biso   1.000  C
  C84      1.0000 0.28560  0.45170  0.86470  Biso   1.000  C
  C85      1.0000 0.95170  0.21440  0.61470  Biso   1.000  C
  C86      1.0000 0.45170  0.28560  0.13530  Biso   1.000  C
  C87      1.0000 0.54830  0.71440  0.63530  Biso   1.000  C
  C88      1.0000 0.04830  0.78560  0.11470  Biso   1.000  C
  H89      1.0000 0.22430  0.88930  0.39860  Biso   1.000  H
  H90      1.0000 0.72430  0.61070  0.35140  Biso   1.000  H
  H91      1.0000 0.77570  0.11070  0.89860  Biso   1.000  H
  H92      1.0000 0.27570  0.38930  0.85140  Biso   1.000  H
  H93      1.0000 0.88930  0.22430  0.60140  Biso   1.000  H
  H94      1.0000 0.38930  0.27570  0.14860  Biso   1.000  H
  H95      1.0000 0.61070  0.72430  0.64860  Biso   1.000  H
  H96      1.0000 0.11070  0.77570  0.10140  Biso   1.000  H
  C89      1.0000 0.28090  0.09870  0.35790  Biso   1.000  C
  C90      1.0000 0.78090  0.40130  0.39210  Biso   1.000  C
  C91      1.0000 0.71910  0.90130  0.85790  Biso   1.000  C
  C92      1.0000 0.21910  0.59870  0.89210  Biso   1.000  C
  C93      1.0000 0.09870  0.28090  0.64210  Biso   1.000  C
  C94      1.0000 0.59870  0.21910  0.10790  Biso   1.000  C
  C95      1.0000 0.40130  0.78090  0.60790  Biso   1.000  C
  C96      1.0000 0.90130  0.71910  0.14210  Biso   1.000  C
  H97      1.0000 0.33880  0.14180  0.35210  Biso   1.000  H
  H98      1.0000 0.83880  0.35820  0.39790  Biso   1.000  H
  H99      1.0000 0.66120  0.85820  0.85210  Biso   1.000  H
  H100     1.0000 0.16120  0.64180  0.89790  Biso   1.000  H
  H101     1.0000 0.14180  0.33880  0.64790  Biso   1.000  H
  H102     1.0000 0.64180  0.16120  0.10210  Biso   1.000  H
  H103     1.0000 0.35820  0.83880  0.60210  Biso   1.000  H
  H104     1.0000 0.85820  0.66120  0.14790  Biso   1.000  H
  C97      1.0000 0.18330  0.12400  0.34340  Biso   1.000  C
  C98      1.0000 0.68330  0.37600  0.40660  Biso   1.000  C
  C99      1.0000 0.81670  0.87600  0.84340  Biso   1.000  C
  C100     1.0000 0.31670  0.62400  0.90660  Biso   1.000  C
  C101     1.0000 0.12400  0.18330  0.65660  Biso   1.000  C
  C102     1.0000 0.62400  0.31670  0.09340  Biso   1.000  C
  C103     1.0000 0.37600  0.68330  0.59340  Biso   1.000  C
  C104     1.0000 0.87600  0.81670  0.15660  Biso   1.000  C
  H105     1.0000 0.17670  0.18390  0.32850  Biso   1.000  H
  H106     1.0000 0.67670  0.31610  0.42150  Biso   1.000  H
  H107     1.0000 0.82330  0.81610  0.82850  Biso   1.000  H
  H108     1.0000 0.32330  0.68390  0.92150  Biso   1.000  H
  H109     1.0000 0.18390  0.17670  0.67150  Biso   1.000  H
  H110     1.0000 0.68390  0.32330  0.07850  Biso   1.000  H
  H111     1.0000 0.31610  0.67670  0.57850  Biso   1.000  H
  H112     1.0000 0.81610  0.82330  0.17150  Biso   1.000  H
  C105     1.0000 0.56630  0.78360  0.52020  Biso   1.000  C
  C106     1.0000 0.06630  0.71640  0.22980  Biso   1.000  C
  C107     1.0000 0.43370  0.21640  0.02020  Biso   1.000  C
  C108     1.0000 0.93370  0.28360  0.72980  Biso   1.000  C
  C109     1.0000 0.78360  0.56630  0.47980  Biso   1.000  C
  C110     1.0000 0.28360  0.93370  0.27020  Biso   1.000  C
  C111     1.0000 0.71640  0.06630  0.77020  Biso   1.000  C
  C112     1.0000 0.21640  0.43370  0.97980  Biso   1.000  C
  H113     1.0000 0.52290  0.73080  0.51030  Biso   1.000  H
  H114     1.0000 0.02290  0.76920  0.23970  Biso   1.000  H
  H115     1.0000 0.47710  0.26920  0.01030  Biso   1.000  H
  H116     1.0000 0.97710  0.23080  0.73970  Biso   1.000  H
  H117     1.0000 0.73080  0.52290  0.48970  Biso   1.000  H
  H118     1.0000 0.23080  0.97710  0.26030  Biso   1.000  H
  H119     1.0000 0.76920  0.02290  0.76030  Biso   1.000  H
  H120     1.0000 0.26920  0.47710  0.98970  Biso   1.000  H
  C113     1.0000 0.65320  0.75310  0.54080  Biso   1.000  C
  C114     1.0000 0.15320  0.74690  0.20920  Biso   1.000  C
  C115     1.0000 0.34680  0.24690  0.04080  Biso   1.000  C
  C116     1.0000 0.84680  0.25310  0.70920  Biso   1.000  C
  C117     1.0000 0.75310  0.65320  0.45920  Biso   1.000  C
  C118     1.0000 0.25310  0.84680  0.29080  Biso   1.000  C
  C119     1.0000 0.74690  0.15320  0.79080  Biso   1.000  C
  C120     1.0000 0.24690  0.34680  0.95920  Biso   1.000  C
  H121     1.0000 0.66760  0.68110  0.54430  Biso   1.000  H
  H122     1.0000 0.16760  0.81890  0.20570  Biso   1.000  H
  H123     1.0000 0.33240  0.31890  0.04430  Biso   1.000  H
  H124     1.0000 0.83240  0.18110  0.70570  Biso   1.000  H
  H125     1.0000 0.68110  0.66760  0.45570  Biso   1.000  H
  H126     1.0000 0.18110  0.83240  0.29430  Biso   1.000  H
  H127     1.0000 0.81890  0.16760  0.79430  Biso   1.000  H
  H128     1.0000 0.31890  0.33240  0.95570  Biso   1.000  H
  C121     1.0000 0.71860  0.82810  0.55614  Biso   1.000  C
  C122     1.0000 0.21860  0.67190  0.19386  Biso   1.000  C
  C123     1.0000 0.28140  0.17190  0.05614  Biso   1.000  C
  C124     1.0000 0.78140  0.32810  0.69386  Biso   1.000  C
  C125     1.0000 0.82810  0.71860  0.44386  Biso   1.000  C
  C126     1.0000 0.32810  0.78140  0.30614  Biso   1.000  C
  C127     1.0000 0.67190  0.21860  0.80614  Biso   1.000  C
  C128     1.0000 0.17190  0.28140  0.94386  Biso   1.000  C
  C129     1.0000 0.68950  0.93160  0.55150  Biso   1.000  C
  C130     1.0000 0.18950  0.56840  0.19850  Biso   1.000  C
  C131     1.0000 0.31050  0.06840  0.05150  Biso   1.000  C
  C132     1.0000 0.81050  0.43160  0.69850  Biso   1.000  C
  C133     1.0000 0.93160  0.68950  0.44850  Biso   1.000  C
  C134     1.0000 0.43160  0.81050  0.30150  Biso   1.000  C
  C135     1.0000 0.56840  0.18950  0.80150  Biso   1.000  C
  C136     1.0000 0.06840  0.31050  0.94850  Biso   1.000  C
  H129     1.0000 0.72820  0.98620  0.56250  Biso   1.000  H
  H130     1.0000 0.22820  0.51380  0.18750  Biso   1.000  H
  H131     1.0000 0.27180  0.01380  0.06250  Biso   1.000  H
  H132     1.0000 0.77180  0.48620  0.68750  Biso   1.000  H
  H133     1.0000 0.98620  0.72820  0.43750  Biso   1.000  H
  H134     1.0000 0.48620  0.77180  0.31250  Biso   1.000  H
  H135     1.0000 0.51380  0.22820  0.81250  Biso   1.000  H
  H136     1.0000 0.01380  0.27180  0.93750  Biso   1.000  H
  C137     1.0000 0.60110  0.95370  0.53018  Biso   1.000  C
  C138     1.0000 0.10110  0.54630  0.21982  Biso   1.000  C
  C139     1.0000 0.39890  0.04630  0.03018  Biso   1.000  C
  C140     1.0000 0.89890  0.45370  0.71982  Biso   1.000  C
  C141     1.0000 0.95370  0.60110  0.46982  Biso   1.000  C
  C142     1.0000 0.45370  0.89890  0.28018  Biso   1.000  C
  C143     1.0000 0.54630  0.10110  0.78018  Biso   1.000  C
  C144     1.0000 0.04630  0.39890  0.96982  Biso   1.000  C
  H137     1.0000 0.58300  0.02500  0.52740  Biso   1.000  H
  H138     1.0000 0.08300  0.47500  0.22260  Biso   1.000  H
  H139     1.0000 0.41700  0.97500  0.02740  Biso   1.000  H
  H140     1.0000 0.91700  0.52500  0.72260  Biso   1.000  H
  H141     1.0000 0.02500  0.58300  0.47260  Biso   1.000  H
  H142     1.0000 0.52500  0.91700  0.27740  Biso   1.000  H
  H143     1.0000 0.47500  0.08300  0.77740  Biso   1.000  H
  H144     1.0000 0.97500  0.41700  0.97260  Biso   1.000  H
  C145     1.0000 0.81550  0.79770  0.57670  Biso   1.000  C
  C146     1.0000 0.31550  0.70230  0.17330  Biso   1.000  C
  C147     1.0000 0.18450  0.20230  0.07670  Biso   1.000  C
  C148     1.0000 0.68450  0.29770  0.67330  Biso   1.000  C
  C149     1.0000 0.79770  0.81550  0.42330  Biso   1.000  C
  C150     1.0000 0.29770  0.68450  0.32670  Biso   1.000  C
  C151     1.0000 0.70230  0.31550  0.82670  Biso   1.000  C
  C152     1.0000 0.20230  0.18450  0.92330  Biso   1.000  C
  H145     1.0000 0.81600  0.72160  0.58120  Biso   1.000  H
  H146     1.0000 0.31600  0.77840  0.16880  Biso   1.000  H
  H147     1.0000 0.18400  0.27840  0.08120  Biso   1.000  H
  H148     1.0000 0.68400  0.22160  0.66880  Biso   1.000  H
  H149     1.0000 0.72160  0.81600  0.41880  Biso   1.000  H
  H150     1.0000 0.22160  0.68400  0.33120  Biso   1.000  H
  H151     1.0000 0.77840  0.31600  0.83120  Biso   1.000  H
  H152     1.0000 0.27840  0.18400  0.91880  Biso   1.000  H
  H153     1.0000 0.81760  0.83440  0.60010  Biso   1.000  H
  H154     1.0000 0.31760  0.66560  0.14990  Biso   1.000  H
  H155     1.0000 0.18240  0.16560  0.10010  Biso   1.000  H
  H156     1.0000 0.68240  0.33440  0.64990  Biso   1.000  H
  H157     1.0000 0.83440  0.81760  0.39990  Biso   1.000  H
  H158     1.0000 0.33440  0.68240  0.35010  Biso   1.000  H
  H159     1.0000 0.66560  0.31760  0.85010  Biso   1.000  H
  H160     1.0000 0.16560  0.18240  0.89990  Biso   1.000  H
  C153     1.0000 0.91850  0.83160  0.55160  Biso   1.000  C
  C154     1.0000 0.41850  0.66840  0.19840  Biso   1.000  C
  C155     1.0000 0.08150  0.16840  0.05160  Biso   1.000  C
  C156     1.0000 0.58150  0.33160  0.69840  Biso   1.000  C
  C157     1.0000 0.83160  0.91850  0.44840  Biso   1.000  C
  C158     1.0000 0.33160  0.58150  0.30160  Biso   1.000  C
  C159     1.0000 0.66840  0.41850  0.80160  Biso   1.000  C
  C160     1.0000 0.16840  0.08150  0.94840  Biso   1.000  C
  H161     1.0000 0.91270  0.79790  0.52780  Biso   1.000  H
  H162     1.0000 0.41270  0.70210  0.22220  Biso   1.000  H
  H163     1.0000 0.08730  0.20210  0.02780  Biso   1.000  H
  H164     1.0000 0.58730  0.29790  0.72220  Biso   1.000  H
  H165     1.0000 0.79790  0.91270  0.47220  Biso   1.000  H
  H166     1.0000 0.29790  0.58730  0.27780  Biso   1.000  H
  H167     1.0000 0.70210  0.41270  0.77780  Biso   1.000  H
  H168     1.0000 0.20210  0.08730  0.97220  Biso   1.000  H
  H169     1.0000 0.91780  0.90810  0.54790  Biso   1.000  H
  H170     1.0000 0.41780  0.59190  0.20210  Biso   1.000  H
  H171     1.0000 0.08220  0.09190  0.04790  Biso   1.000  H
  H172     1.0000 0.58220  0.40810  0.70210  Biso   1.000  H
  H173     1.0000 0.90810  0.91780  0.45210  Biso   1.000  H
  H174     1.0000 0.40810  0.58220  0.29790  Biso   1.000  H
  H175     1.0000 0.59190  0.41780  0.79790  Biso   1.000  H
  H176     1.0000 0.09190  0.08220  0.95210  Biso   1.000  H
  C161     1.0000 0.00750  0.80450  0.56660  Biso   1.000  C
  C162     1.0000 0.50750  0.69550  0.18340  Biso   1.000  C
  C163     1.0000 0.99250  0.19550  0.06660  Biso   1.000  C
  C164     1.0000 0.49250  0.30450  0.68340  Biso   1.000  C
  C165     1.0000 0.80450  0.00750  0.43340  Biso   1.000  C
  C166     1.0000 0.30450  0.49250  0.31660  Biso   1.000  C
  C167     1.0000 0.69550  0.50750  0.81660  Biso   1.000  C
  C168     1.0000 0.19550  0.99250  0.93340  Biso   1.000  C
  H177     1.0000 0.00990  0.72780  0.56960  Biso   1.000  H
  H178     1.0000 0.50990  0.77220  0.18040  Biso   1.000  H
  H179     1.0000 0.99010  0.27220  0.06960  Biso   1.000  H
  H180     1.0000 0.49010  0.22780  0.68040  Biso   1.000  H
  H181     1.0000 0.72780  0.00990  0.43040  Biso   1.000  H
  H182     1.0000 0.22780  0.49010  0.31960  Biso   1.000  H
  H183     1.0000 0.77220  0.50990  0.81960  Biso   1.000  H
  H184     1.0000 0.27220  0.99010  0.93040  Biso   1.000  H
  H185     1.0000 0.01350  0.83710  0.59060  Biso   1.000  H
  H186     1.0000 0.51350  0.66290  0.15940  Biso   1.000  H
  H187     1.0000 0.98650  0.16290  0.09060  Biso   1.000  H
  H188     1.0000 0.48650  0.33710  0.65940  Biso   1.000  H
  H189     1.0000 0.83710  0.01350  0.40940  Biso   1.000  H
  H190     1.0000 0.33710  0.48650  0.34060  Biso   1.000  H
  H191     1.0000 0.66290  0.51350  0.84060  Biso   1.000  H
  H192     1.0000 0.16290  0.98650  0.90940  Biso   1.000  H
  C169     1.0000 0.10430  0.84210  0.54130  Biso   1.000  C
  C170     1.0000 0.60430  0.65790  0.20870  Biso   1.000  C
  C171     1.0000 0.89570  0.15790  0.04130  Biso   1.000  C
  C172     1.0000 0.39570  0.34210  0.70870  Biso   1.000  C
  C173     1.0000 0.84210  0.10430  0.45870  Biso   1.000  C
  C174     1.0000 0.34210  0.39570  0.29130  Biso   1.000  C
  C175     1.0000 0.65790  0.60430  0.79130  Biso   1.000  C
  C176     1.0000 0.15790  0.89570  0.95870  Biso   1.000  C
  C177     1.0000 0.15340  0.77520  0.52140  Biso   1.000  C
  C178     1.0000 0.65340  0.72480  0.22860  Biso   1.000  C
  C179     1.0000 0.84660  0.22480  0.02140  Biso   1.000  C
  C180     1.0000 0.34660  0.27520  0.72860  Biso   1.000  C
  C181     1.0000 0.77520  0.15340  0.47860  Biso   1.000  C
  C182     1.0000 0.27520  0.34660  0.27140  Biso   1.000  C
  C183     1.0000 0.72480  0.65340  0.77140  Biso   1.000  C
  C184     1.0000 0.22480  0.84660  0.97860  Biso   1.000  C
  H193     1.0000 0.12860  0.70550  0.52050  Biso   1.000  H
  H194     1.0000 0.62860  0.79450  0.22950  Biso   1.000  H
  H195     1.0000 0.87140  0.29450  0.02050  Biso   1.000  H
  H196     1.0000 0.37140  0.20550  0.72950  Biso   1.000  H
  H197     1.0000 0.70550  0.12860  0.47950  Biso   1.000  H
  H198     1.0000 0.20550  0.37140  0.27050  Biso   1.000  H
  H199     1.0000 0.79450  0.62860  0.77050  Biso   1.000  H
  H200     1.0000 0.29450  0.87140  0.97950  Biso   1.000  H
  C185     1.0000 0.23930  0.80080  0.50150  Biso   1.000  C
  C186     1.0000 0.73930  0.69920  0.24850  Biso   1.000  C
  C187     1.0000 0.76070  0.19920  0.00150  Biso   1.000  C
  C188     1.0000 0.26070  0.30080  0.74850  Biso   1.000  C
  C189     1.0000 0.80080  0.23930  0.49850  Biso   1.000  C
  C190     1.0000 0.30080  0.26070  0.25150  Biso   1.000  C
  C191     1.0000 0.69920  0.73930  0.75150  Biso   1.000  C
  C192     1.0000 0.19920  0.76070  0.99850  Biso   1.000  C
  H201     1.0000 0.27280  0.74710  0.48830  Biso   1.000  H
  H202     1.0000 0.77280  0.75290  0.26170  Biso   1.000  H
  H203     1.0000 0.72720  0.25290  0.98830  Biso   1.000  H
  H204     1.0000 0.22720  0.24710  0.76170  Biso   1.000  H
  H205     1.0000 0.74710  0.27280  0.51170  Biso   1.000  H
  H206     1.0000 0.24710  0.22720  0.23830  Biso   1.000  H
  H207     1.0000 0.75290  0.77280  0.73830  Biso   1.000  H
  H208     1.0000 0.25290  0.72720  0.01170  Biso   1.000  H
  C193     1.0000 0.23280  0.96900  0.51830  Biso   1.000  C
  C194     1.0000 0.73280  0.53100  0.23170  Biso   1.000  C
  C195     1.0000 0.76720  0.03100  0.01830  Biso   1.000  C
  C196     1.0000 0.26720  0.46900  0.73170  Biso   1.000  C
  C197     1.0000 0.96900  0.23280  0.48170  Biso   1.000  C
  C198     1.0000 0.46900  0.26720  0.26830  Biso   1.000  C
  C199     1.0000 0.53100  0.73280  0.76830  Biso   1.000  C
  C200     1.0000 0.03100  0.76720  0.98170  Biso   1.000  C
  H209     1.0000 0.25970  0.03800  0.51820  Biso   1.000  H
  H210     1.0000 0.75970  0.46200  0.23180  Biso   1.000  H
  H211     1.0000 0.74030  0.96200  0.01820  Biso   1.000  H
  H212     1.0000 0.24030  0.53800  0.73180  Biso   1.000  H
  H213     1.0000 0.03800  0.25970  0.48180  Biso   1.000  H
  H214     1.0000 0.53800  0.24030  0.26820  Biso   1.000  H
  H215     1.0000 0.46200  0.75970  0.76820  Biso   1.000  H
  H216     1.0000 0.96200  0.74030  0.98180  Biso   1.000  H
  C201     1.0000 0.14060  0.94490  0.53920  Biso   1.000  C
  C202     1.0000 0.64060  0.55510  0.21080  Biso   1.000  C
  C203     1.0000 0.85940  0.05510  0.03920  Biso   1.000  C
  C204     1.0000 0.35940  0.44490  0.71080  Biso   1.000  C
  C205     1.0000 0.94490  0.14060  0.46080  Biso   1.000  C
  C206     1.0000 0.44490  0.35940  0.28920  Biso   1.000  C
  C207     1.0000 0.55510  0.64060  0.78920  Biso   1.000  C
  C208     1.0000 0.05510  0.85940  0.96080  Biso   1.000  C
  H217     1.0000 0.10460  0.99900  0.55140  Biso   1.000  H
  H218     1.0000 0.60460  0.50100  0.19860  Biso   1.000  H
  H219     1.0000 0.89540  0.00100  0.05140  Biso   1.000  H
  H220     1.0000 0.39540  0.49900  0.69860  Biso   1.000  H
  H221     1.0000 0.99900  0.10460  0.44860  Biso   1.000  H
  H222     1.0000 0.49900  0.39540  0.30140  Biso   1.000  H
  H223     1.0000 0.50100  0.60460  0.80140  Biso   1.000  H
  H224     1.0000 0.00100  0.89540  0.94860  Biso   1.000  H
