data_image0
_cell_length_a       18.8033
_cell_length_b       9.577
_cell_length_c       8.3063
_cell_angle_alpha    90
_cell_angle_beta     90
_cell_angle_gamma    90

_symmetry_space_group_name_H-M    "P 1"
_symmetry_int_tables_number       1

loop_
  _symmetry_equiv_pos_as_xyz
  'x, y, z'

loop_
  _atom_site_label
  _atom_site_occupancy
  _atom_site_fract_x
  _atom_site_fract_y
  _atom_site_fract_z
  _atom_site_thermal_displace_type
  _atom_site_B_iso_or_equiv
  _atom_site_type_symbol
  I1       1.0000 0.09246  0.37963  0.71629  Biso   1.000  I
  I2       1.0000 0.90754  0.62037  0.21629  Biso   1.000  I
  I3       1.0000 0.59246  0.62037  0.71629  Biso   1.000  I
  I4       1.0000 0.40754  0.37963  0.21629  Biso   1.000  I
  I5       1.0000 0.24122  0.14035  0.99381  Biso   1.000  I
  I6       1.0000 0.75878  0.85965  0.49381  Biso   1.000  I
  I7       1.0000 0.74122  0.85965  0.99381  Biso   1.000  I
  I8       1.0000 0.25878  0.14035  0.49381  Biso   1.000  I
  Cu1      1.0000 0.14936  0.29668  0.45058  Biso   1.000  Cu
  Cu2      1.0000 0.85064  0.70332  0.95058  Biso   1.000  Cu
  Cu3      1.0000 0.64936  0.70332  0.45058  Biso   1.000  Cu
  Cu4      1.0000 0.35064  0.29668  0.95058  Biso   1.000  Cu
  S1       1.0000 0.47049  0.11698  0.87626  Biso   1.000  S
  S2       1.0000 0.52951  0.88302  0.37626  Biso   1.000  S
  S3       1.0000 0.97049  0.88302  0.87626  Biso   1.000  S
  S4       1.0000 0.02951  0.11698  0.37626  Biso   1.000  S
  N1       1.0000 0.39010  0.37620  0.74620  Biso   1.000  N
  N2       1.0000 0.60990  0.62380  0.24620  Biso   1.000  N
  N3       1.0000 0.89010  0.62380  0.74620  Biso   1.000  N
  N4       1.0000 0.10990  0.37620  0.24620  Biso   1.000  N
  C1       1.0000 0.54430  0.01760  0.84110  Biso   1.000  C
  C2       1.0000 0.45570  0.98240  0.34110  Biso   1.000  C
  C3       1.0000 0.04430  0.98240  0.84110  Biso   1.000  C
  C4       1.0000 0.95570  0.01760  0.34110  Biso   1.000  C
  H1       1.0000 0.55710  0.94150  0.90440  Biso   1.000  H
  H2       1.0000 0.44290  0.05850  0.40440  Biso   1.000  H
  H3       1.0000 0.05710  0.05850  0.90440  Biso   1.000  H
  H4       1.0000 0.94290  0.94150  0.40440  Biso   1.000  H
  C5       1.0000 0.58220  0.06060  0.71190  Biso   1.000  C
  C6       1.0000 0.41780  0.93940  0.21190  Biso   1.000  C
  C7       1.0000 0.08220  0.93940  0.71190  Biso   1.000  C
  C8       1.0000 0.91780  0.06060  0.21190  Biso   1.000  C
  H5       1.0000 0.62360  0.01720  0.67690  Biso   1.000  H
  H6       1.0000 0.37640  0.98280  0.17690  Biso   1.000  H
  H7       1.0000 0.12360  0.98280  0.67690  Biso   1.000  H
  H8       1.0000 0.87640  0.01720  0.17690  Biso   1.000  H
  C9       1.0000 0.55190  0.17890  0.63590  Biso   1.000  C
  C10      1.0000 0.44810  0.82110  0.13590  Biso   1.000  C
  C11      1.0000 0.05190  0.82110  0.63590  Biso   1.000  C
  C12      1.0000 0.94810  0.17890  0.13590  Biso   1.000  C
  C13      1.0000 0.49010  0.22160  0.71260  Biso   1.000  C
  C14      1.0000 0.50990  0.77840  0.21260  Biso   1.000  C
  C15      1.0000 0.99010  0.77840  0.71260  Biso   1.000  C
  C16      1.0000 0.00990  0.22160  0.21260  Biso   1.000  C
  C17      1.0000 0.44640  0.33700  0.66720  Biso   1.000  C
  C18      1.0000 0.55360  0.66300  0.16720  Biso   1.000  C
  C19      1.0000 0.94640  0.66300  0.66720  Biso   1.000  C
  C20      1.0000 0.05360  0.33700  0.16720  Biso   1.000  C
  H9       1.0000 0.45900  0.38720  0.57570  Biso   1.000  H
  H10      1.0000 0.54100  0.61280  0.07570  Biso   1.000  H
  H11      1.0000 0.95900  0.61280  0.57570  Biso   1.000  H
  H12      1.0000 0.04100  0.38720  0.07570  Biso   1.000  H
  C21      1.0000 0.35420  0.49670  0.69110  Biso   1.000  C
  C22      1.0000 0.64580  0.50330  0.19110  Biso   1.000  C
  C23      1.0000 0.85420  0.50330  0.69110  Biso   1.000  C
  C24      1.0000 0.14580  0.49670  0.19110  Biso   1.000  C
  C25      1.0000 0.38820  0.61020  0.62260  Biso   1.000  C
  C26      1.0000 0.61180  0.38980  0.12260  Biso   1.000  C
  C27      1.0000 0.88820  0.38980  0.62260  Biso   1.000  C
  C28      1.0000 0.11180  0.61020  0.12260  Biso   1.000  C
  H13      1.0000 0.43670  0.60680  0.60120  Biso   1.000  H
  H14      1.0000 0.56330  0.39320  0.10120  Biso   1.000  H
  H15      1.0000 0.93670  0.39320  0.60120  Biso   1.000  H
  H16      1.0000 0.06330  0.60680  0.10120  Biso   1.000  H
  C29      1.0000 0.34950  0.72870  0.58620  Biso   1.000  C
  C30      1.0000 0.65050  0.27130  0.08620  Biso   1.000  C
  C31      1.0000 0.84950  0.27130  0.58620  Biso   1.000  C
  C32      1.0000 0.15050  0.72870  0.08620  Biso   1.000  C
  H17      1.0000 0.37110  0.80470  0.53660  Biso   1.000  H
  H18      1.0000 0.62890  0.19530  0.03660  Biso   1.000  H
  H19      1.0000 0.87110  0.19530  0.53660  Biso   1.000  H
  H20      1.0000 0.12890  0.80470  0.03660  Biso   1.000  H
  C33      1.0000 0.58260  0.24650  0.48860  Biso   1.000  C
  C34      1.0000 0.41740  0.75350  0.98860  Biso   1.000  C
  C35      1.0000 0.08260  0.75350  0.48860  Biso   1.000  C
  C36      1.0000 0.91740  0.24650  0.98860  Biso   1.000  C
  H21      1.0000 0.55350  0.32440  0.45770  Biso   1.000  H
  H22      1.0000 0.44650  0.67560  0.95770  Biso   1.000  H
  H23      1.0000 0.05350  0.67560  0.45770  Biso   1.000  H
  H24      1.0000 0.94650  0.32440  0.95770  Biso   1.000  H
  H25      1.0000 0.58410  0.17980  0.40230  Biso   1.000  H
  H26      1.0000 0.41590  0.82020  0.90230  Biso   1.000  H
  H27      1.0000 0.08410  0.82020  0.40230  Biso   1.000  H
  H28      1.0000 0.91590  0.17980  0.90230  Biso   1.000  H
  H29      1.0000 0.62990  0.27840  0.51150  Biso   1.000  H
  H30      1.0000 0.37010  0.72160  0.01150  Biso   1.000  H
  H31      1.0000 0.12990  0.72160  0.51150  Biso   1.000  H
  H32      1.0000 0.87010  0.27840  0.01150  Biso   1.000  H
  Cu5      1.0000 0.22979  0.31609  0.75581  Biso   1.000  Cu
  Cu6      1.0000 0.77021  0.68391  0.25581  Biso   1.000  Cu
  Cu7      1.0000 0.72979  0.68391  0.75581  Biso   1.000  Cu
  Cu8      1.0000 0.27021  0.31609  0.25581  Biso   1.000  Cu
  N5       1.0000 0.28359  0.49850  0.72440  Biso   1.000  N
  N6       1.0000 0.71641  0.50150  0.22440  Biso   1.000  N
  N7       1.0000 0.78359  0.50150  0.72440  Biso   1.000  N
  N8       1.0000 0.21641  0.49850  0.22440  Biso   1.000  N
  C37      1.0000 0.27850  0.73220  0.62470  Biso   1.000  C
  C38      1.0000 0.72150  0.26780  0.12470  Biso   1.000  C
  C39      1.0000 0.77850  0.26780  0.62470  Biso   1.000  C
  C40      1.0000 0.22150  0.73220  0.12470  Biso   1.000  C
  H33      1.0000 0.25190  0.81250  0.60620  Biso   1.000  H
  H34      1.0000 0.74810  0.18750  0.10620  Biso   1.000  H
  H35      1.0000 0.75190  0.18750  0.60620  Biso   1.000  H
  H36      1.0000 0.24810  0.81250  0.10620  Biso   1.000  H
  C41      1.0000 0.24740  0.61650  0.69030  Biso   1.000  C
  C42      1.0000 0.75260  0.38350  0.19030  Biso   1.000  C
  C43      1.0000 0.74740  0.38350  0.69030  Biso   1.000  C
  C44      1.0000 0.25260  0.61650  0.19030  Biso   1.000  C
  H37      1.0000 0.19890  0.61920  0.71250  Biso   1.000  H
  H38      1.0000 0.80110  0.38080  0.21250  Biso   1.000  H
  H39      1.0000 0.69890  0.38080  0.71250  Biso   1.000  H
  H40      1.0000 0.30110  0.61920  0.21250  Biso   1.000  H
