data_image0
_cell_length_a       8.1021
_cell_length_b       18.363
_cell_length_c       19.085
_cell_angle_alpha    90
_cell_angle_beta     90
_cell_angle_gamma    90

_symmetry_space_group_name_H-M    "P 1"
_symmetry_int_tables_number       1

loop_
  _symmetry_equiv_pos_as_xyz
  'x, y, z'

loop_
  _atom_site_label
  _atom_site_occupancy
  _atom_site_fract_x
  _atom_site_fract_y
  _atom_site_fract_z
  _atom_site_thermal_displace_type
  _atom_site_B_iso_or_equiv
  _atom_site_type_symbol
  I1       1.0000 0.36419  0.44682  0.90089  Biso   1.000  I
  I2       1.0000 0.13581  0.55318  0.40089  Biso   1.000  I
  I3       1.0000 0.63581  0.94682  0.59911  Biso   1.000  I
  I4       1.0000 0.86419  0.05318  0.09911  Biso   1.000  I
  I5       1.0000 0.63581  0.55318  0.09911  Biso   1.000  I
  I6       1.0000 0.86419  0.44682  0.59911  Biso   1.000  I
  I7       1.0000 0.36419  0.05318  0.40089  Biso   1.000  I
  I8       1.0000 0.13581  0.94682  0.90089  Biso   1.000  I
  I9       1.0000 0.59883  0.31545  0.75241  Biso   1.000  I
  I10      1.0000 0.90117  0.68455  0.25241  Biso   1.000  I
  I11      1.0000 0.40117  0.81545  0.74759  Biso   1.000  I
  I12      1.0000 0.09883  0.18455  0.24759  Biso   1.000  I
  I13      1.0000 0.40117  0.68455  0.24759  Biso   1.000  I
  I14      1.0000 0.09883  0.31545  0.74759  Biso   1.000  I
  I15      1.0000 0.59883  0.18455  0.25241  Biso   1.000  I
  I16      1.0000 0.90117  0.81545  0.75241  Biso   1.000  I
  Cu1      1.0000 0.35903  0.41059  0.76315  Biso   1.000  Cu
  Cu2      1.0000 0.14097  0.58941  0.26315  Biso   1.000  Cu
  Cu3      1.0000 0.64097  0.91059  0.73685  Biso   1.000  Cu
  Cu4      1.0000 0.85903  0.08941  0.23685  Biso   1.000  Cu
  Cu5      1.0000 0.64097  0.58941  0.23685  Biso   1.000  Cu
  Cu6      1.0000 0.85903  0.41059  0.73685  Biso   1.000  Cu
  Cu7      1.0000 0.35903  0.08941  0.26315  Biso   1.000  Cu
  Cu8      1.0000 0.14097  0.91059  0.76315  Biso   1.000  Cu
  Cu9      1.0000 0.08741  0.40323  0.85088  Biso   1.000  Cu
  Cu10     1.0000 0.41259  0.59677  0.35088  Biso   1.000  Cu
  Cu11     1.0000 0.91259  0.90323  0.64912  Biso   1.000  Cu
  Cu12     1.0000 0.58741  0.09677  0.14912  Biso   1.000  Cu
  Cu13     1.0000 0.91259  0.59677  0.14912  Biso   1.000  Cu
  Cu14     1.0000 0.58741  0.40323  0.64912  Biso   1.000  Cu
  Cu15     1.0000 0.08741  0.09677  0.35088  Biso   1.000  Cu
  Cu16     1.0000 0.41259  0.90323  0.85088  Biso   1.000  Cu
  S1       1.0000 0.51010  0.30457  0.53098  Biso   1.000  S
  S2       1.0000 0.98990  0.69543  0.03098  Biso   1.000  S
  S3       1.0000 0.48990  0.80457  0.96902  Biso   1.000  S
  S4       1.0000 0.01010  0.19543  0.46902  Biso   1.000  S
  S5       1.0000 0.48990  0.69543  0.46902  Biso   1.000  S
  S6       1.0000 0.01010  0.30457  0.96902  Biso   1.000  S
  S7       1.0000 0.51010  0.19543  0.03098  Biso   1.000  S
  S8       1.0000 0.98990  0.80457  0.53098  Biso   1.000  S
  N1       1.0000 0.30970  0.50410  0.71020  Biso   1.000  N
  N2       1.0000 0.19030  0.49590  0.21020  Biso   1.000  N
  N3       1.0000 0.69030  0.00410  0.78980  Biso   1.000  N
  N4       1.0000 0.80970  0.99590  0.28980  Biso   1.000  N
  N5       1.0000 0.69030  0.49590  0.28980  Biso   1.000  N
  N6       1.0000 0.80970  0.50410  0.78980  Biso   1.000  N
  N7       1.0000 0.30970  0.99590  0.21020  Biso   1.000  N
  N8       1.0000 0.19030  0.00410  0.71020  Biso   1.000  N
  N9       1.0000 0.38630  0.44700  0.60620  Biso   1.000  N
  N10      1.0000 0.11370  0.55300  0.10620  Biso   1.000  N
  N11      1.0000 0.61370  0.94700  0.89380  Biso   1.000  N
  N12      1.0000 0.88630  0.05300  0.39380  Biso   1.000  N
  N13      1.0000 0.61370  0.55300  0.39380  Biso   1.000  N
  N14      1.0000 0.88630  0.44700  0.89380  Biso   1.000  N
  N15      1.0000 0.38630  0.05300  0.10620  Biso   1.000  N
  N16      1.0000 0.11370  0.94700  0.60620  Biso   1.000  N
  C1       1.0000 0.32160  0.50970  0.64210  Biso   1.000  C
  C2       1.0000 0.17840  0.49030  0.14210  Biso   1.000  C
  C3       1.0000 0.67840  0.00970  0.85790  Biso   1.000  C
  C4       1.0000 0.82160  0.99030  0.35790  Biso   1.000  C
  C5       1.0000 0.67840  0.49030  0.35790  Biso   1.000  C
  C6       1.0000 0.82160  0.50970  0.85790  Biso   1.000  C
  C7       1.0000 0.32160  0.99030  0.14210  Biso   1.000  C
  C8       1.0000 0.17840  0.00970  0.64210  Biso   1.000  C
  C9       1.0000 0.27830  0.57210  0.60330  Biso   1.000  C
  C10      1.0000 0.22170  0.42790  0.10330  Biso   1.000  C
  C11      1.0000 0.72170  0.07210  0.89670  Biso   1.000  C
  C12      1.0000 0.77830  0.92790  0.39670  Biso   1.000  C
  C13      1.0000 0.72170  0.42790  0.39670  Biso   1.000  C
  C14      1.0000 0.77830  0.57210  0.89670  Biso   1.000  C
  C15      1.0000 0.27830  0.92790  0.10330  Biso   1.000  C
  C16      1.0000 0.22170  0.07210  0.60330  Biso   1.000  C
  H1       1.0000 0.29250  0.57460  0.55500  Biso   1.000  H
  H2       1.0000 0.20750  0.42540  0.05500  Biso   1.000  H
  H3       1.0000 0.70750  0.07460  0.94500  Biso   1.000  H
  H4       1.0000 0.79250  0.92540  0.44500  Biso   1.000  H
  H5       1.0000 0.70750  0.42540  0.44500  Biso   1.000  H
  H6       1.0000 0.79250  0.57460  0.94500  Biso   1.000  H
  H7       1.0000 0.29250  0.92540  0.05500  Biso   1.000  H
  H8       1.0000 0.20750  0.07460  0.55500  Biso   1.000  H
  C17      1.0000 0.21330  0.62980  0.64120  Biso   1.000  C
  C18      1.0000 0.28670  0.37020  0.14120  Biso   1.000  C
  C19      1.0000 0.78670  0.12980  0.85880  Biso   1.000  C
  C20      1.0000 0.71330  0.87020  0.35880  Biso   1.000  C
  C21      1.0000 0.78670  0.37020  0.35880  Biso   1.000  C
  C22      1.0000 0.71330  0.62980  0.85880  Biso   1.000  C
  C23      1.0000 0.21330  0.87020  0.14120  Biso   1.000  C
  C24      1.0000 0.28670  0.12980  0.64120  Biso   1.000  C
  H9       1.0000 0.18240  0.67220  0.61810  Biso   1.000  H
  H10      1.0000 0.31760  0.32780  0.11810  Biso   1.000  H
  H11      1.0000 0.81760  0.17220  0.88190  Biso   1.000  H
  H12      1.0000 0.68240  0.82780  0.38190  Biso   1.000  H
  H13      1.0000 0.81760  0.32780  0.38190  Biso   1.000  H
  H14      1.0000 0.68240  0.67220  0.88190  Biso   1.000  H
  H15      1.0000 0.18240  0.82780  0.11810  Biso   1.000  H
  H16      1.0000 0.31760  0.17220  0.61810  Biso   1.000  H
  C25      1.0000 0.19420  0.62510  0.71120  Biso   1.000  C
  C26      1.0000 0.30580  0.37490  0.21120  Biso   1.000  C
  C27      1.0000 0.80580  0.12510  0.78880  Biso   1.000  C
  C28      1.0000 0.69420  0.87490  0.28880  Biso   1.000  C
  C29      1.0000 0.80580  0.37490  0.28880  Biso   1.000  C
  C30      1.0000 0.69420  0.62510  0.78880  Biso   1.000  C
  C31      1.0000 0.19420  0.87490  0.21120  Biso   1.000  C
  C32      1.0000 0.30580  0.12510  0.71120  Biso   1.000  C
  H17      1.0000 0.14850  0.66340  0.73650  Biso   1.000  H
  H18      1.0000 0.35150  0.33660  0.23650  Biso   1.000  H
  H19      1.0000 0.85150  0.16340  0.76350  Biso   1.000  H
  H20      1.0000 0.64850  0.83660  0.26350  Biso   1.000  H
  H21      1.0000 0.85150  0.33660  0.26350  Biso   1.000  H
  H22      1.0000 0.64850  0.66340  0.76350  Biso   1.000  H
  H23      1.0000 0.14850  0.83660  0.23650  Biso   1.000  H
  H24      1.0000 0.35150  0.16340  0.73650  Biso   1.000  H
  C33      1.0000 0.24410  0.56210  0.74410  Biso   1.000  C
  C34      1.0000 0.25590  0.43790  0.24410  Biso   1.000  C
  C35      1.0000 0.75590  0.06210  0.75590  Biso   1.000  C
  C36      1.0000 0.74410  0.93790  0.25590  Biso   1.000  C
  C37      1.0000 0.75590  0.43790  0.25590  Biso   1.000  C
  C38      1.0000 0.74410  0.56210  0.75590  Biso   1.000  C
  C39      1.0000 0.24410  0.93790  0.24410  Biso   1.000  C
  C40      1.0000 0.25590  0.06210  0.74410  Biso   1.000  C
  H25      1.0000 0.23200  0.55920  0.79250  Biso   1.000  H
  H26      1.0000 0.26800  0.44080  0.29250  Biso   1.000  H
  H27      1.0000 0.76800  0.05920  0.70750  Biso   1.000  H
  H28      1.0000 0.73200  0.94080  0.20750  Biso   1.000  H
  H29      1.0000 0.76800  0.44080  0.20750  Biso   1.000  H
  H30      1.0000 0.73200  0.55920  0.70750  Biso   1.000  H
  H31      1.0000 0.23200  0.94080  0.29250  Biso   1.000  H
  H32      1.0000 0.26800  0.05920  0.79250  Biso   1.000  H
  C41      1.0000 0.31430  0.42750  0.54820  Biso   1.000  C
  C42      1.0000 0.18570  0.57250  0.04820  Biso   1.000  C
  C43      1.0000 0.68570  0.92750  0.95180  Biso   1.000  C
  C44      1.0000 0.81430  0.07250  0.45180  Biso   1.000  C
  C45      1.0000 0.68570  0.57250  0.45180  Biso   1.000  C
  C46      1.0000 0.81430  0.42750  0.95180  Biso   1.000  C
  C47      1.0000 0.31430  0.07250  0.04820  Biso   1.000  C
  C48      1.0000 0.18570  0.92750  0.54820  Biso   1.000  C
  H33      1.0000 0.22540  0.45530  0.53290  Biso   1.000  H
  H34      1.0000 0.27460  0.54470  0.03290  Biso   1.000  H
  H35      1.0000 0.77460  0.95530  0.96710  Biso   1.000  H
  H36      1.0000 0.72540  0.04470  0.46710  Biso   1.000  H
  H37      1.0000 0.77460  0.54470  0.46710  Biso   1.000  H
  H38      1.0000 0.72540  0.45530  0.96710  Biso   1.000  H
  H39      1.0000 0.22540  0.04470  0.03290  Biso   1.000  H
  H40      1.0000 0.27460  0.95530  0.53290  Biso   1.000  H
  C49      1.0000 0.36140  0.36680  0.50650  Biso   1.000  C
  C50      1.0000 0.13860  0.63320  0.00650  Biso   1.000  C
  C51      1.0000 0.63860  0.86680  0.99350  Biso   1.000  C
  C52      1.0000 0.86140  0.13320  0.49350  Biso   1.000  C
  C53      1.0000 0.63860  0.63320  0.49350  Biso   1.000  C
  C54      1.0000 0.86140  0.36680  0.99350  Biso   1.000  C
  C55      1.0000 0.36140  0.13320  0.00650  Biso   1.000  C
  C56      1.0000 0.13860  0.86680  0.50650  Biso   1.000  C
  C57      1.0000 0.29340  0.34950  0.44210  Biso   1.000  C
  C58      1.0000 0.20660  0.65050  0.94210  Biso   1.000  C
  C59      1.0000 0.70660  0.84950  0.05790  Biso   1.000  C
  C60      1.0000 0.79340  0.15050  0.55790  Biso   1.000  C
  C61      1.0000 0.70660  0.65050  0.55790  Biso   1.000  C
  C62      1.0000 0.79340  0.34950  0.05790  Biso   1.000  C
  C63      1.0000 0.29340  0.15050  0.94210  Biso   1.000  C
  C64      1.0000 0.20660  0.84950  0.44210  Biso   1.000  C
  H41      1.0000 0.21210  0.37660  0.41960  Biso   1.000  H
  H42      1.0000 0.28790  0.62340  0.91960  Biso   1.000  H
  H43      1.0000 0.78790  0.87660  0.08040  Biso   1.000  H
  H44      1.0000 0.71210  0.12340  0.58040  Biso   1.000  H
  H45      1.0000 0.78790  0.62340  0.58040  Biso   1.000  H
  H46      1.0000 0.71210  0.37660  0.08040  Biso   1.000  H
  H47      1.0000 0.21210  0.12340  0.91960  Biso   1.000  H
  H48      1.0000 0.28790  0.87660  0.41960  Biso   1.000  H
  C65      1.0000 0.36530  0.28450  0.41480  Biso   1.000  C
  C66      1.0000 0.13470  0.71550  0.91480  Biso   1.000  C
  C67      1.0000 0.63470  0.78450  0.08520  Biso   1.000  C
  C68      1.0000 0.86530  0.21550  0.58520  Biso   1.000  C
  C69      1.0000 0.63470  0.71550  0.58520  Biso   1.000  C
  C70      1.0000 0.86530  0.28450  0.08520  Biso   1.000  C
  C71      1.0000 0.36530  0.21550  0.91480  Biso   1.000  C
  C72      1.0000 0.13470  0.78450  0.41480  Biso   1.000  C
  H49      1.0000 0.33410  0.26360  0.37250  Biso   1.000  H
  H50      1.0000 0.16590  0.73640  0.87250  Biso   1.000  H
  H51      1.0000 0.66590  0.76360  0.12750  Biso   1.000  H
  H52      1.0000 0.83410  0.23640  0.62750  Biso   1.000  H
  H53      1.0000 0.66590  0.73640  0.62750  Biso   1.000  H
  H54      1.0000 0.83410  0.26360  0.12750  Biso   1.000  H
  H55      1.0000 0.33410  0.23640  0.87250  Biso   1.000  H
  H56      1.0000 0.16590  0.76360  0.37250  Biso   1.000  H
  C73      1.0000 0.48220  0.25650  0.45660  Biso   1.000  C
  C74      1.0000 0.01780  0.74350  0.95660  Biso   1.000  C
  C75      1.0000 0.51780  0.75650  0.04340  Biso   1.000  C
  C76      1.0000 0.98220  0.24350  0.54340  Biso   1.000  C
  C77      1.0000 0.51780  0.74350  0.54340  Biso   1.000  C
  C78      1.0000 0.98220  0.25650  0.04340  Biso   1.000  C
  C79      1.0000 0.48220  0.24350  0.95660  Biso   1.000  C
  C80      1.0000 0.01780  0.75650  0.45660  Biso   1.000  C
  H57      1.0000 0.54200  0.21480  0.44560  Biso   1.000  H
  H58      1.0000 0.95800  0.78520  0.94560  Biso   1.000  H
  H59      1.0000 0.45800  0.71480  0.05440  Biso   1.000  H
  H60      1.0000 0.04200  0.28520  0.55440  Biso   1.000  H
  H61      1.0000 0.45800  0.78520  0.55440  Biso   1.000  H
  H62      1.0000 0.04200  0.21480  0.05440  Biso   1.000  H
  H63      1.0000 0.54200  0.28520  0.94560  Biso   1.000  H
  H64      1.0000 0.95800  0.71480  0.44560  Biso   1.000  H
