data_image0
_cell_length_a       3.814
_cell_length_b       16.187
_cell_length_c       17.468
_cell_angle_alpha    113.292
_cell_angle_beta     92.875
_cell_angle_gamma    95.627

_symmetry_space_group_name_H-M    "P 1"
_symmetry_int_tables_number       1

loop_
  _symmetry_equiv_pos_as_xyz
  'x, y, z'

loop_
  _atom_site_label
  _atom_site_occupancy
  _atom_site_fract_x
  _atom_site_fract_y
  _atom_site_fract_z
  _atom_site_thermal_displace_type
  _atom_site_B_iso_or_equiv
  _atom_site_type_symbol
  Cu1      1.0000 0.50090  0.52917  0.18092  Biso   1.000  Cu
  Cu2      1.0000 0.49910  0.47083  0.81908  Biso   1.000  Cu
  Cu3      1.0000 0.84040  0.16385  0.06574  Biso   1.000  Cu
  Cu4      1.0000 0.15960  0.83615  0.93426  Biso   1.000  Cu
  N1       1.0000 0.56460  0.67020  0.16810  Biso   1.000  N
  N2       1.0000 0.43540  0.32980  0.83190  Biso   1.000  N
  N3       1.0000 0.42700  0.62950  0.29680  Biso   1.000  N
  N4       1.0000 0.57300  0.37050  0.70320  Biso   1.000  N
  N5       1.0000 0.44810  0.45770  0.27490  Biso   1.000  N
  N6       1.0000 0.55190  0.54230  0.72510  Biso   1.000  N
  N7       1.0000 0.23930  0.66580  0.43170  Biso   1.000  N
  N8       1.0000 0.76070  0.33420  0.56830  Biso   1.000  N
  N9       1.0000 0.17240  0.79860  0.58620  Biso   1.000  N
  N10      1.0000 0.82760  0.20140  0.41380  Biso   1.000  N
  N11      1.0000 0.30100  0.77800  0.37580  Biso   1.000  N
  N12      1.0000 0.69900  0.22200  0.62420  Biso   1.000  N
  N13      1.0000 0.89630  0.28910  0.08220  Biso   1.000  N
  N14      1.0000 0.10370  0.71090  0.91780  Biso   1.000  N
  N15      1.0000 0.77100  0.05890  0.95620  Biso   1.000  N
  N16      1.0000 0.22900  0.94110  0.04380  Biso   1.000  N
  S1       1.0000 0.95170  0.47179  0.10180  Biso   1.000  S
  S2       1.0000 0.04830  0.52821  0.89820  Biso   1.000  S
  S3       1.0000 0.66010  0.86980  0.86264  Biso   1.000  S
  S4       1.0000 0.33990  0.13020  0.13736  Biso   1.000  S
  C1       1.0000 0.63960  0.68850  0.10270  Biso   1.000  C
  C2       1.0000 0.36040  0.31150  0.89730  Biso   1.000  C
  H1       1.0000 0.69730  0.64160  0.05520  Biso   1.000  H
  H2       1.0000 0.30270  0.35840  0.94480  Biso   1.000  H
  C3       1.0000 0.63700  0.77300  0.10100  Biso   1.000  C
  C4       1.0000 0.36300  0.22700  0.89900  Biso   1.000  C
  H3       1.0000 0.69440  0.78270  0.05390  Biso   1.000  H
  H4       1.0000 0.30560  0.21730  0.94610  Biso   1.000  H
  C5       1.0000 0.54760  0.84230  0.17050  Biso   1.000  C
  C6       1.0000 0.45240  0.15770  0.82950  Biso   1.000  C
  H5       1.0000 0.53790  0.89970  0.17100  Biso   1.000  H
  H6       1.0000 0.46210  0.10030  0.82900  Biso   1.000  H
  C7       1.0000 0.47210  0.82460  0.23990  Biso   1.000  C
  C8       1.0000 0.52790  0.17540  0.76010  Biso   1.000  C
  H7       1.0000 0.41630  0.87050  0.28830  Biso   1.000  H
  H8       1.0000 0.58370  0.12950  0.71170  Biso   1.000  H
  C9       1.0000 0.48060  0.73920  0.23620  Biso   1.000  C
  C10      1.0000 0.51940  0.26080  0.76380  Biso   1.000  C
  C11      1.0000 0.39790  0.71480  0.30720  Biso   1.000  C
  C12      1.0000 0.60210  0.28520  0.69280  Biso   1.000  C
  C13      1.0000 0.23160  0.75050  0.43740  Biso   1.000  C
  C14      1.0000 0.76840  0.24950  0.56260  Biso   1.000  C
  C15      1.0000 0.14350  0.81880  0.51740  Biso   1.000  C
  C16      1.0000 0.85650  0.18120  0.48260  Biso   1.000  C
  C17      1.0000 0.04600  0.89850  0.52080  Biso   1.000  C
  C18      1.0000 0.95400  0.10150  0.47920  Biso   1.000  C
  H9       1.0000 0.02950  0.91080  0.47310  Biso   1.000  H
  H10      1.0000 0.97050  0.08920  0.52690  Biso   1.000  H
  C19      1.0000 0.97500  0.95950  0.59590  Biso   1.000  C
  C20      1.0000 0.02500  0.04050  0.40410  Biso   1.000  C
  H11      1.0000 0.90610  0.01430  0.59920  Biso   1.000  H
  H12      1.0000 0.09390  0.98570  0.40080  Biso   1.000  H
  C21      1.0000 1.00000  0.94330  0.66600  Biso   1.000  C
  C22      1.0000 0.00000  0.05670  0.33400  Biso   1.000  C
  H13      1.0000 0.94950  0.98610  0.71700  Biso   1.000  H
  H14      1.0000 0.05050  0.01390  0.28300  Biso   1.000  H
  C23      1.0000 0.09950  0.86300  0.65990  Biso   1.000  C
  C24      1.0000 0.90050  0.13700  0.34010  Biso   1.000  C
  H15      1.0000 0.11910  0.85140  0.70790  Biso   1.000  H
  H16      1.0000 0.88090  0.14860  0.29210  Biso   1.000  H
  C25      1.0000 0.33450  0.60770  0.36020  Biso   1.000  C
  C26      1.0000 0.66550  0.39230  0.63980  Biso   1.000  C
  C27      1.0000 0.34620  0.51240  0.34870  Biso   1.000  C
  C28      1.0000 0.65380  0.48760  0.65130  Biso   1.000  C
  C29      1.0000 0.25410  0.48270  0.41000  Biso   1.000  C
  C30      1.0000 0.74590  0.51730  0.59000  Biso   1.000  C
  H17      1.0000 0.18310  0.52230  0.46010  Biso   1.000  H
  H18      1.0000 0.81690  0.47770  0.53990  Biso   1.000  H
  C31      1.0000 0.27020  0.39370  0.39510  Biso   1.000  C
  C32      1.0000 0.72980  0.60630  0.60490  Biso   1.000  C
  H19      1.0000 0.21270  0.37220  0.43560  Biso   1.000  H
  H20      1.0000 0.78730  0.62780  0.56440  Biso   1.000  H
  C33      1.0000 0.37070  0.33620  0.32050  Biso   1.000  C
  C34      1.0000 0.62930  0.66380  0.67950  Biso   1.000  C
  H21      1.0000 0.37970  0.27530  0.30910  Biso   1.000  H
  H22      1.0000 0.62030  0.72470  0.69090  Biso   1.000  H
  C35      1.0000 0.45780  0.37120  0.26320  Biso   1.000  C
  C36      1.0000 0.54220  0.62880  0.73680  Biso   1.000  C
  H23      1.0000 0.52840  0.33210  0.21280  Biso   1.000  H
  H24      1.0000 0.47160  0.66790  0.78720  Biso   1.000  H
  C37      1.0000 0.91810  0.36460  0.09090  Biso   1.000  C
  C38      1.0000 0.08190  0.63540  0.90910  Biso   1.000  C
  C39      1.0000 0.72550  0.98180  0.91730  Biso   1.000  C
  C40      1.0000 0.27450  0.01820  0.08270  Biso   1.000  C
