data_image0
_cell_length_a       10.0561
_cell_length_b       15.461
_cell_length_c       9.5055
_cell_angle_alpha    90
_cell_angle_beta     107.044
_cell_angle_gamma    90

_symmetry_space_group_name_H-M    "P 1"
_symmetry_int_tables_number       1

loop_
  _symmetry_equiv_pos_as_xyz
  'x, y, z'

loop_
  _atom_site_label
  _atom_site_occupancy
  _atom_site_fract_x
  _atom_site_fract_y
  _atom_site_fract_z
  _atom_site_thermal_displace_type
  _atom_site_B_iso_or_equiv
  _atom_site_type_symbol
  Cu1      1.0000 0.35308  0.27987  0.97652  Biso   1.000  Cu
  Cu2      1.0000 0.64692  0.77987  0.52348  Biso   1.000  Cu
  Cu3      1.0000 0.64692  0.72013  0.02348  Biso   1.000  Cu
  Cu4      1.0000 0.35308  0.22013  0.47652  Biso   1.000  Cu
  N1       1.0000 0.38040  0.25650  0.79210  Biso   1.000  N
  N2       1.0000 0.61960  0.75650  0.70790  Biso   1.000  N
  N3       1.0000 0.61960  0.74350  0.20790  Biso   1.000  N
  N4       1.0000 0.38040  0.24350  0.29210  Biso   1.000  N
  P1       1.0000 0.28669  0.49463  0.84452  Biso   1.000  P
  P2       1.0000 0.71331  0.99463  0.65548  Biso   1.000  P
  P3       1.0000 0.71331  0.50537  0.15548  Biso   1.000  P
  P4       1.0000 0.28669  0.00537  0.34452  Biso   1.000  P
  S1       1.0000 0.19712  0.41105  0.94307  Biso   1.000  S
  S2       1.0000 0.80288  0.91105  0.55693  Biso   1.000  S
  S3       1.0000 0.80288  0.58895  0.05693  Biso   1.000  S
  S4       1.0000 0.19712  0.08895  0.44307  Biso   1.000  S
  C1       1.0000 0.37750  0.24380  0.67440  Biso   1.000  C
  C2       1.0000 0.62250  0.74380  0.82560  Biso   1.000  C
  C3       1.0000 0.62250  0.75620  0.32560  Biso   1.000  C
  C4       1.0000 0.37750  0.25620  0.17440  Biso   1.000  C
  C5       1.0000 0.47530  0.49270  0.91720  Biso   1.000  C
  C6       1.0000 0.52470  0.99270  0.58280  Biso   1.000  C
  C7       1.0000 0.52470  0.50730  0.08280  Biso   1.000  C
  C8       1.0000 0.47530  0.00730  0.41720  Biso   1.000  C
  H1       1.0000 0.50940  0.43730  0.89480  Biso   1.000  H
  H2       1.0000 0.49060  0.93730  0.60520  Biso   1.000  H
  H3       1.0000 0.49060  0.56270  0.10520  Biso   1.000  H
  H4       1.0000 0.50940  0.06270  0.39480  Biso   1.000  H
  H5       1.0000 0.51400  0.53730  0.86910  Biso   1.000  H
  H6       1.0000 0.48600  0.03730  0.63090  Biso   1.000  H
  H7       1.0000 0.48600  0.46270  0.13090  Biso   1.000  H
  H8       1.0000 0.51400  0.96270  0.36910  Biso   1.000  H
  C9       1.0000 0.23520  0.60400  0.87010  Biso   1.000  C
  C10      1.0000 0.76480  0.10400  0.62990  Biso   1.000  C
  C11      1.0000 0.76480  0.39600  0.12990  Biso   1.000  C
  C12      1.0000 0.23520  0.89600  0.37010  Biso   1.000  C
  C13      1.0000 0.13340  0.62020  0.93660  Biso   1.000  C
  C14      1.0000 0.86660  0.12020  0.56340  Biso   1.000  C
  C15      1.0000 0.86660  0.37980  0.06340  Biso   1.000  C
  C16      1.0000 0.13340  0.87980  0.43660  Biso   1.000  C
  H9       1.0000 0.09150  0.57430  0.97070  Biso   1.000  H
  H10      1.0000 0.90850  0.07430  0.52930  Biso   1.000  H
  H11      1.0000 0.90850  0.42570  0.02930  Biso   1.000  H
  H12      1.0000 0.09150  0.92570  0.47070  Biso   1.000  H
  C17      1.0000 0.09280  0.70400  0.95340  Biso   1.000  C
  C18      1.0000 0.90720  0.20400  0.54660  Biso   1.000  C
  C19      1.0000 0.90720  0.29600  0.04660  Biso   1.000  C
  C20      1.0000 0.09280  0.79600  0.45340  Biso   1.000  C
  H13      1.0000 0.02230  0.71430  0.99640  Biso   1.000  H
  H14      1.0000 0.97770  0.21430  0.50360  Biso   1.000  H
  H15      1.0000 0.97770  0.28570  0.00360  Biso   1.000  H
  H16      1.0000 0.02230  0.78570  0.49640  Biso   1.000  H
  C21      1.0000 0.15590  0.77170  0.90700  Biso   1.000  C
  C22      1.0000 0.84410  0.27170  0.59300  Biso   1.000  C
  C23      1.0000 0.84410  0.22830  0.09300  Biso   1.000  C
  C24      1.0000 0.15590  0.72830  0.40700  Biso   1.000  C
  H17      1.0000 0.12990  0.82810  0.91990  Biso   1.000  H
  H18      1.0000 0.87010  0.32810  0.58010  Biso   1.000  H
  H19      1.0000 0.87010  0.17190  0.08010  Biso   1.000  H
  H20      1.0000 0.12990  0.67190  0.41990  Biso   1.000  H
  C25      1.0000 0.25660  0.75640  0.84200  Biso   1.000  C
  C26      1.0000 0.74340  0.25640  0.65800  Biso   1.000  C
  C27      1.0000 0.74340  0.24360  0.15800  Biso   1.000  C
  C28      1.0000 0.25660  0.74360  0.34200  Biso   1.000  C
  H21      1.0000 0.29980  0.80250  0.81030  Biso   1.000  H
  H22      1.0000 0.70020  0.30250  0.68970  Biso   1.000  H
  H23      1.0000 0.70020  0.19750  0.18970  Biso   1.000  H
  H24      1.0000 0.29980  0.69750  0.31030  Biso   1.000  H
  C29      1.0000 0.29550  0.67320  0.82240  Biso   1.000  C
  C30      1.0000 0.70450  0.17320  0.67760  Biso   1.000  C
  C31      1.0000 0.70450  0.32680  0.17760  Biso   1.000  C
  C32      1.0000 0.29550  0.82680  0.32240  Biso   1.000  C
  H25      1.0000 0.36380  0.66360  0.77610  Biso   1.000  H
  H26      1.0000 0.63620  0.16360  0.72390  Biso   1.000  H
  H27      1.0000 0.63620  0.33640  0.22390  Biso   1.000  H
  H28      1.0000 0.36380  0.83640  0.27610  Biso   1.000  H
  C33      1.0000 0.25060  0.47560  0.64860  Biso   1.000  C
  C34      1.0000 0.74940  0.97560  0.85140  Biso   1.000  C
  C35      1.0000 0.74940  0.52440  0.35140  Biso   1.000  C
  C36      1.0000 0.25060  0.02440  0.14860  Biso   1.000  C
  C37      1.0000 0.32630  0.51610  0.56790  Biso   1.000  C
  C38      1.0000 0.67370  0.01610  0.93210  Biso   1.000  C
  C39      1.0000 0.67370  0.48390  0.43210  Biso   1.000  C
  C40      1.0000 0.32630  0.98390  0.06790  Biso   1.000  C
  H29      1.0000 0.39740  0.55430  0.61320  Biso   1.000  H
  H30      1.0000 0.60260  0.05430  0.88680  Biso   1.000  H
  H31      1.0000 0.60260  0.44570  0.38680  Biso   1.000  H
  H32      1.0000 0.39740  0.94570  0.11320  Biso   1.000  H
  C41      1.0000 0.29500  0.49910  0.41760  Biso   1.000  C
  C42      1.0000 0.70500  0.99910  0.08240  Biso   1.000  C
  C43      1.0000 0.70500  0.50090  0.58240  Biso   1.000  C
  C44      1.0000 0.29500  0.00090  0.91760  Biso   1.000  C
  H33      1.0000 0.34470  0.52680  0.36200  Biso   1.000  H
  H34      1.0000 0.65530  0.02680  0.13800  Biso   1.000  H
  H35      1.0000 0.65530  0.47320  0.63800  Biso   1.000  H
  H36      1.0000 0.34470  0.97320  0.86200  Biso   1.000  H
  C45      1.0000 0.19170  0.44200  0.35150  Biso   1.000  C
  C46      1.0000 0.80830  0.94200  0.14850  Biso   1.000  C
  C47      1.0000 0.80830  0.55800  0.64850  Biso   1.000  C
  C48      1.0000 0.19170  0.05800  0.85150  Biso   1.000  C
  H37      1.0000 0.17210  0.43020  0.25150  Biso   1.000  H
  H38      1.0000 0.82790  0.93020  0.24850  Biso   1.000  H
  H39      1.0000 0.82790  0.56980  0.74850  Biso   1.000  H
  H40      1.0000 0.17210  0.06980  0.75150  Biso   1.000  H
  C49      1.0000 0.11830  0.40270  0.43110  Biso   1.000  C
  C50      1.0000 0.88170  0.90270  0.06890  Biso   1.000  C
  C51      1.0000 0.88170  0.59730  0.56890  Biso   1.000  C
  C52      1.0000 0.11830  0.09730  0.93110  Biso   1.000  C
  H41      1.0000 0.04750  0.36440  0.38550  Biso   1.000  H
  H42      1.0000 0.95250  0.86440  0.11450  Biso   1.000  H
  H43      1.0000 0.95250  0.63560  0.61450  Biso   1.000  H
  H44      1.0000 0.04750  0.13560  0.88550  Biso   1.000  H
  C53      1.0000 0.14710  0.41890  0.57990  Biso   1.000  C
  C54      1.0000 0.85290  0.91890  0.92010  Biso   1.000  C
  C55      1.0000 0.85290  0.58110  0.42010  Biso   1.000  C
  C56      1.0000 0.14710  0.08110  0.07990  Biso   1.000  C
  H45      1.0000 0.09610  0.39120  0.63390  Biso   1.000  H
  H46      1.0000 0.90390  0.89120  0.86610  Biso   1.000  H
  H47      1.0000 0.90390  0.60880  0.36610  Biso   1.000  H
  H48      1.0000 0.09610  0.10880  0.13390  Biso   1.000  H
