data_image0
_cell_length_a       8.4743
_cell_length_b       13.183
_cell_length_c       17.4013
_cell_angle_alpha    90
_cell_angle_beta     90
_cell_angle_gamma    90

_symmetry_space_group_name_H-M    "P 1"
_symmetry_int_tables_number       1

loop_
  _symmetry_equiv_pos_as_xyz
  'x, y, z'

loop_
  _atom_site_label
  _atom_site_occupancy
  _atom_site_fract_x
  _atom_site_fract_y
  _atom_site_fract_z
  _atom_site_thermal_displace_type
  _atom_site_B_iso_or_equiv
  _atom_site_type_symbol
  Cu1      1.0000 0.79028  0.62608  0.78769  Biso   1.000  Cu
  Cu2      1.0000 0.70972  0.37392  0.28769  Biso   1.000  Cu
  Cu3      1.0000 0.20972  0.12608  0.71231  Biso   1.000  Cu
  Cu4      1.0000 0.29028  0.87392  0.21231  Biso   1.000  Cu
  Cu5      1.0000 0.05821  0.02010  0.97525  Biso   1.000  Cu
  Cu6      1.0000 0.44179  0.97990  0.47525  Biso   1.000  Cu
  Cu7      1.0000 0.94179  0.52010  0.52475  Biso   1.000  Cu
  Cu8      1.0000 0.55821  0.47990  0.02475  Biso   1.000  Cu
  N1       1.0000 0.03570  0.67082  0.83708  Biso   1.000  N
  N2       1.0000 0.46430  0.32918  0.33708  Biso   1.000  N
  N3       1.0000 0.96430  0.17082  0.66292  Biso   1.000  N
  N4       1.0000 0.53570  0.82918  0.16292  Biso   1.000  N
  N5       1.0000 0.78220  0.78618  0.82678  Biso   1.000  N
  N6       1.0000 0.71780  0.21382  0.32678  Biso   1.000  N
  N7       1.0000 0.21780  0.28618  0.67322  Biso   1.000  N
  N8       1.0000 0.28220  0.71382  0.17322  Biso   1.000  N
  N9       1.0000 0.55080  0.71688  0.73730  Biso   1.000  N
  N10      1.0000 0.94920  0.28312  0.23730  Biso   1.000  N
  N11      1.0000 0.44920  0.21688  0.76270  Biso   1.000  N
  N12      1.0000 0.05080  0.78312  0.26270  Biso   1.000  N
  N13      1.0000 0.61770  0.91732  0.87215  Biso   1.000  N
  N14      1.0000 0.88230  0.08268  0.37215  Biso   1.000  N
  N15      1.0000 0.38230  0.41732  0.62785  Biso   1.000  N
  N16      1.0000 0.11770  0.58268  0.12785  Biso   1.000  N
  N17      1.0000 0.87500  0.89641  0.92337  Biso   1.000  N
  N18      1.0000 0.62500  0.10359  0.42337  Biso   1.000  N
  N19      1.0000 0.12500  0.39641  0.57663  Biso   1.000  N
  N20      1.0000 0.37500  0.60359  0.07663  Biso   1.000  N
  N21      1.0000 0.83080  0.06928  0.00664  Biso   1.000  N
  N22      1.0000 0.66920  0.93072  0.50664  Biso   1.000  N
  N23      1.0000 0.16920  0.56928  0.49336  Biso   1.000  N
  N24      1.0000 0.33080  0.43072  0.99336  Biso   1.000  N
  N25      1.0000 0.65930  0.52540  0.93108  Biso   1.000  N
  N26      1.0000 0.84070  0.47460  0.43108  Biso   1.000  N
  N27      1.0000 0.34070  0.02540  0.56892  Biso   1.000  N
  N28      1.0000 0.15930  0.97460  0.06892  Biso   1.000  N
  N29      1.0000 0.84670  0.58180  0.68526  Biso   1.000  N
  N30      1.0000 0.65330  0.41820  0.18526  Biso   1.000  N
  N31      1.0000 0.15330  0.08180  0.81474  Biso   1.000  N
  N32      1.0000 0.34670  0.91820  0.31474  Biso   1.000  N
  C1       1.0000 0.16310  0.61300  0.83660  Biso   1.000  C
  C2       1.0000 0.33690  0.38700  0.33660  Biso   1.000  C
  C3       1.0000 0.83690  0.11300  0.66340  Biso   1.000  C
  C4       1.0000 0.66310  0.88700  0.16340  Biso   1.000  C
  H1       1.0000 0.16050  0.55370  0.80770  Biso   1.000  H
  H2       1.0000 0.33950  0.44630  0.30770  Biso   1.000  H
  H3       1.0000 0.83950  0.05370  0.69230  Biso   1.000  H
  H4       1.0000 0.66050  0.94630  0.19230  Biso   1.000  H
  C5       1.0000 0.29660  0.63440  0.87550  Biso   1.000  C
  C6       1.0000 0.20340  0.36560  0.37550  Biso   1.000  C
  C7       1.0000 0.70340  0.13440  0.62450  Biso   1.000  C
  C8       1.0000 0.79660  0.86560  0.12450  Biso   1.000  C
  H5       1.0000 0.38330  0.59130  0.87290  Biso   1.000  H
  H6       1.0000 0.11670  0.40870  0.37290  Biso   1.000  H
  H7       1.0000 0.61670  0.09130  0.62710  Biso   1.000  H
  H8       1.0000 0.88330  0.90870  0.12710  Biso   1.000  H
  C9       1.0000 0.30190  0.72120  0.91880  Biso   1.000  C
  C10      1.0000 0.19810  0.27880  0.41880  Biso   1.000  C
  C11      1.0000 0.69810  0.22120  0.58120  Biso   1.000  C
  C12      1.0000 0.80190  0.77880  0.08120  Biso   1.000  C
  H9       1.0000 0.39260  0.73790  0.94600  Biso   1.000  H
  H10      1.0000 0.10740  0.26210  0.44600  Biso   1.000  H
  H11      1.0000 0.60740  0.23790  0.55400  Biso   1.000  H
  H12      1.0000 0.89260  0.76210  0.05400  Biso   1.000  H
  C13      1.0000 0.16970  0.78420  0.92153  Biso   1.000  C
  C14      1.0000 0.33030  0.21580  0.42153  Biso   1.000  C
  C15      1.0000 0.83030  0.28420  0.57847  Biso   1.000  C
  C16      1.0000 0.66970  0.71580  0.07847  Biso   1.000  C
  H13      1.0000 0.16920  0.84290  0.95110  Biso   1.000  H
  H14      1.0000 0.33080  0.15710  0.45110  Biso   1.000  H
  H15      1.0000 0.83080  0.34290  0.54890  Biso   1.000  H
  H16      1.0000 0.66920  0.65710  0.04890  Biso   1.000  H
  C17      1.0000 0.03970  0.75600  0.87868  Biso   1.000  C
  C18      1.0000 0.46030  0.24400  0.37868  Biso   1.000  C
  C19      1.0000 0.96030  0.25600  0.62132  Biso   1.000  C
  C20      1.0000 0.53970  0.74400  0.12132  Biso   1.000  C
  C21      1.0000 0.89290  0.81700  0.87577  Biso   1.000  C
  C22      1.0000 0.60710  0.18300  0.37577  Biso   1.000  C
  C23      1.0000 0.10710  0.31700  0.62423  Biso   1.000  C
  C24      1.0000 0.39290  0.68300  0.12423  Biso   1.000  C
  C25      1.0000 0.73440  0.94207  0.91988  Biso   1.000  C
  C26      1.0000 0.76560  0.05793  0.41988  Biso   1.000  C
  C27      1.0000 0.26560  0.44207  0.58012  Biso   1.000  C
  C28      1.0000 0.23440  0.55793  0.08012  Biso   1.000  C
  C29      1.0000 0.70270  0.02590  0.97511  Biso   1.000  C
  C30      1.0000 0.79730  0.97410  0.47511  Biso   1.000  C
  C31      1.0000 0.29730  0.52590  0.52489  Biso   1.000  C
  C32      1.0000 0.20270  0.47410  0.02489  Biso   1.000  C
  C33      1.0000 0.80510  0.14270  0.05787  Biso   1.000  C
  C34      1.0000 0.69490  0.85730  0.55787  Biso   1.000  C
  C35      1.0000 0.19490  0.64270  0.44213  Biso   1.000  C
  C36      1.0000 0.30510  0.35730  0.94213  Biso   1.000  C
  H17      1.0000 0.89200  0.17450  0.07990  Biso   1.000  H
  H18      1.0000 0.60800  0.82550  0.57990  Biso   1.000  H
  H19      1.0000 0.10800  0.67450  0.42010  Biso   1.000  H
  H20      1.0000 0.39200  0.32550  0.92010  Biso   1.000  H
  C37      1.0000 0.65600  0.17440  0.08020  Biso   1.000  C
  C38      1.0000 0.84400  0.82560  0.58020  Biso   1.000  C
  C39      1.0000 0.34400  0.67440  0.41980  Biso   1.000  C
  C40      1.0000 0.15600  0.32560  0.91980  Biso   1.000  C
  H21      1.0000 0.64350  0.22540  0.11650  Biso   1.000  H
  H22      1.0000 0.85650  0.77460  0.61650  Biso   1.000  H
  H23      1.0000 0.35650  0.72540  0.38350  Biso   1.000  H
  H24      1.0000 0.14350  0.27460  0.88350  Biso   1.000  H
  C41      1.0000 0.52830  0.12900  0.04750  Biso   1.000  C
  C42      1.0000 0.97170  0.87100  0.54750  Biso   1.000  C
  C43      1.0000 0.47170  0.62900  0.45250  Biso   1.000  C
  C44      1.0000 0.02830  0.37100  0.95250  Biso   1.000  C
  H25      1.0000 0.42690  0.14840  0.06170  Biso   1.000  H
  H26      1.0000 0.07310  0.85160  0.56170  Biso   1.000  H
  H27      1.0000 0.57310  0.64840  0.43830  Biso   1.000  H
  H28      1.0000 0.92690  0.35160  0.93830  Biso   1.000  H
  C45      1.0000 0.55040  0.05330  0.99294  Biso   1.000  C
  C46      1.0000 0.94960  0.94670  0.49294  Biso   1.000  C
  C47      1.0000 0.44960  0.55330  0.50706  Biso   1.000  C
  C48      1.0000 0.05040  0.44670  0.00706  Biso   1.000  C
  H29      1.0000 0.46490  0.02220  0.96920  Biso   1.000  H
  H30      1.0000 0.03510  0.97780  0.46920  Biso   1.000  H
  H31      1.0000 0.53510  0.52220  0.53080  Biso   1.000  H
  H32      1.0000 0.96490  0.47780  0.03080  Biso   1.000  H
  C49      1.0000 0.64890  0.83930  0.82573  Biso   1.000  C
  C50      1.0000 0.85110  0.16070  0.32573  Biso   1.000  C
  C51      1.0000 0.35110  0.33930  0.67427  Biso   1.000  C
  C52      1.0000 0.14890  0.66070  0.17427  Biso   1.000  C
  C53      1.0000 0.52360  0.80650  0.77110  Biso   1.000  C
  C54      1.0000 0.97640  0.19350  0.27110  Biso   1.000  C
  C55      1.0000 0.47640  0.30650  0.72890  Biso   1.000  C
  C56      1.0000 0.02360  0.69350  0.22890  Biso   1.000  C
  C57      1.0000 0.38960  0.86290  0.75865  Biso   1.000  C
  C58      1.0000 0.11040  0.13710  0.25865  Biso   1.000  C
  C59      1.0000 0.61040  0.36290  0.74135  Biso   1.000  C
  C60      1.0000 0.88960  0.63710  0.24135  Biso   1.000  C
  H33      1.0000 0.37590  0.92540  0.78260  Biso   1.000  H
  H34      1.0000 0.12410  0.07460  0.28260  Biso   1.000  H
  H35      1.0000 0.62410  0.42540  0.71740  Biso   1.000  H
  H36      1.0000 0.87590  0.57460  0.21740  Biso   1.000  H
  C61      1.0000 0.27650  0.82500  0.71013  Biso   1.000  C
  C62      1.0000 0.22350  0.17500  0.21013  Biso   1.000  C
  C63      1.0000 0.72350  0.32500  0.78987  Biso   1.000  C
  C64      1.0000 0.77650  0.67500  0.28987  Biso   1.000  C
  H37      1.0000 0.18420  0.86120  0.70090  Biso   1.000  H
  H38      1.0000 0.31580  0.13880  0.20090  Biso   1.000  H
  H39      1.0000 0.81580  0.36120  0.79910  Biso   1.000  H
  H40      1.0000 0.68420  0.63880  0.29910  Biso   1.000  H
  C65      1.0000 0.30150  0.73280  0.67533  Biso   1.000  C
  C66      1.0000 0.19850  0.26720  0.17533  Biso   1.000  C
  C67      1.0000 0.69850  0.23280  0.82467  Biso   1.000  C
  C68      1.0000 0.80150  0.76720  0.32467  Biso   1.000  C
  H41      1.0000 0.22610  0.70520  0.64260  Biso   1.000  H
  H42      1.0000 0.27390  0.29480  0.14260  Biso   1.000  H
  H43      1.0000 0.77390  0.20520  0.85740  Biso   1.000  H
  H44      1.0000 0.72610  0.79480  0.35740  Biso   1.000  H
  C69      1.0000 0.44040  0.68200  0.68990  Biso   1.000  C
  C70      1.0000 0.05960  0.31800  0.18990  Biso   1.000  C
  C71      1.0000 0.55960  0.18200  0.81010  Biso   1.000  C
  C72      1.0000 0.94040  0.81800  0.31010  Biso   1.000  C
  H45      1.0000 0.45780  0.62030  0.66540  Biso   1.000  H
  H46      1.0000 0.04220  0.37970  0.16540  Biso   1.000  H
  H47      1.0000 0.54220  0.12030  0.83460  Biso   1.000  H
  H48      1.0000 0.95780  0.87970  0.33460  Biso   1.000  H
  C73      1.0000 0.70750  0.55790  0.87649  Biso   1.000  C
  C74      1.0000 0.79250  0.44210  0.37649  Biso   1.000  C
  C75      1.0000 0.29250  0.05790  0.62351  Biso   1.000  C
  C76      1.0000 0.20750  0.94210  0.12351  Biso   1.000  C
  C77      1.0000 0.87820  0.56120  0.62427  Biso   1.000  C
  C78      1.0000 0.62180  0.43880  0.12427  Biso   1.000  C
  C79      1.0000 0.12180  0.06120  0.87573  Biso   1.000  C
  C80      1.0000 0.37820  0.93880  0.37573  Biso   1.000  C
