data_image0
_cell_length_a       6.9991
_cell_length_b       18.333
_cell_length_c       8.3381
_cell_angle_alpha    90
_cell_angle_beta     112.652
_cell_angle_gamma    90

_symmetry_space_group_name_H-M    "P 1"
_symmetry_int_tables_number       1

loop_
  _symmetry_equiv_pos_as_xyz
  'x, y, z'

loop_
  _atom_site_label
  _atom_site_occupancy
  _atom_site_fract_x
  _atom_site_fract_y
  _atom_site_fract_z
  _atom_site_thermal_displace_type
  _atom_site_B_iso_or_equiv
  _atom_site_type_symbol
  Cu1      1.0000 0.67311  0.79075  0.35853  Biso   1.000  Cu
  Cu2      1.0000 0.32689  0.29075  0.64147  Biso   1.000  Cu
  Cu3      1.0000 0.08810  0.51103  0.29049  Biso   1.000  Cu
  Cu4      1.0000 0.91190  0.01103  0.70951  Biso   1.000  Cu
  N1       1.0000 0.64000  0.71280  0.56590  Biso   1.000  N
  N2       1.0000 0.36000  0.21280  0.43410  Biso   1.000  N
  N3       1.0000 0.29850  0.59850  0.21860  Biso   1.000  N
  N4       1.0000 0.70150  0.09850  0.78140  Biso   1.000  N
  N5       1.0000 0.01950  0.49800  0.03400  Biso   1.000  N
  N6       1.0000 0.98050  0.99800  0.96600  Biso   1.000  N
  N7       1.0000 0.23760  0.66460  0.95750  Biso   1.000  N
  N8       1.0000 0.76240  0.16460  0.04250  Biso   1.000  N
  N9       1.0000 0.51920  0.83120  0.06250  Biso   1.000  N
  N10      1.0000 0.48080  0.33120  0.93750  Biso   1.000  N
  N11      1.0000 0.44250  0.71630  0.22220  Biso   1.000  N
  N12      1.0000 0.55750  0.21630  0.77780  Biso   1.000  N
  N13      1.0000 0.90850  0.59190  0.31730  Biso   1.000  N
  N14      1.0000 0.09150  0.09190  0.68270  Biso   1.000  N
  N15      1.0000 0.73420  0.88220  0.47700  Biso   1.000  N
  N16      1.0000 0.26580  0.38220  0.52300  Biso   1.000  N
  S1       1.0000 0.96980  0.74480  0.32340  Biso   1.000  S
  S2       1.0000 0.03020  0.24480  0.67660  Biso   1.000  S
  C1       1.0000 0.72820  0.71840  0.73520  Biso   1.000  C
  C2       1.0000 0.27180  0.21840  0.26480  Biso   1.000  C
  H1       1.0000 0.81710  0.75720  0.78420  Biso   1.000  H
  H2       1.0000 0.18290  0.25720  0.21580  Biso   1.000  H
  C3       1.0000 0.69070  0.66660  0.84440  Biso   1.000  C
  C4       1.0000 0.30930  0.16660  0.15560  Biso   1.000  C
  H3       1.0000 0.75220  0.67190  0.96450  Biso   1.000  H
  H4       1.0000 0.24780  0.17190  0.03550  Biso   1.000  H
  C5       1.0000 0.56680  0.61010  0.77510  Biso   1.000  C
  C6       1.0000 0.43320  0.11010  0.22490  Biso   1.000  C
  H5       1.0000 0.54410  0.57510  0.84650  Biso   1.000  H
  H6       1.0000 0.45590  0.07510  0.15350  Biso   1.000  H
  C7       1.0000 0.47310  0.60370  0.59860  Biso   1.000  C
  C8       1.0000 0.52690  0.10370  0.40140  Biso   1.000  C
  H7       1.0000 0.38620  0.56460  0.54830  Biso   1.000  H
  H8       1.0000 0.61380  0.06460  0.45170  Biso   1.000  H
  C9       1.0000 0.51060  0.65730  0.49560  Biso   1.000  C
  C10      1.0000 0.48940  0.15730  0.50440  Biso   1.000  C
  C11      1.0000 0.41400  0.65680  0.30240  Biso   1.000  C
  C12      1.0000 0.58600  0.15680  0.69760  Biso   1.000  C
  C13      1.0000 0.21400  0.60680  0.04620  Biso   1.000  C
  C14      1.0000 0.78600  0.10680  0.95380  Biso   1.000  C
  C15      1.0000 0.08170  0.54660  0.94200  Biso   1.000  C
  C16      1.0000 0.91830  0.04660  0.05800  Biso   1.000  C
  C17      1.0000 0.90020  0.44200  0.94350  Biso   1.000  C
  C18      1.0000 0.09980  0.94200  0.05650  Biso   1.000  C
  H9       1.0000 0.85710  0.40720  0.00350  Biso   1.000  H
  H10      1.0000 0.14290  0.90720  0.99650  Biso   1.000  H
  C19      1.0000 0.83970  0.43430  0.76590  Biso   1.000  C
  C20      1.0000 0.16030  0.93430  0.23410  Biso   1.000  C
  H11      1.0000 0.75810  0.39510  0.70770  Biso   1.000  H
  H12      1.0000 0.24190  0.89510  0.29230  Biso   1.000  H
  C21      1.0000 0.90240  0.48570  0.67750  Biso   1.000  C
  C22      1.0000 0.09760  0.98570  0.32250  Biso   1.000  C
  H13      1.0000 0.86110  0.48240  0.55750  Biso   1.000  H
  H14      1.0000 0.13890  0.98240  0.44250  Biso   1.000  H
  C23      1.0000 0.02300  0.54030  0.76450  Biso   1.000  C
  C24      1.0000 0.97700  0.04030  0.23550  Biso   1.000  C
  H15      1.0000 0.06830  0.57470  0.70500  Biso   1.000  H
  H16      1.0000 0.93170  0.07470  0.29500  Biso   1.000  H
  C25      1.0000 0.35300  0.71790  0.05360  Biso   1.000  C
  C26      1.0000 0.64700  0.21790  0.94640  Biso   1.000  C
  C27      1.0000 0.38480  0.78290  0.96150  Biso   1.000  C
  C28      1.0000 0.61520  0.28290  0.03850  Biso   1.000  C
  C29      1.0000 0.28400  0.79190  0.78240  Biso   1.000  C
  C30      1.0000 0.71600  0.29190  0.21760  Biso   1.000  C
  H17      1.0000 0.19130  0.75710  0.71480  Biso   1.000  H
  H18      1.0000 0.80870  0.25710  0.28520  Biso   1.000  H
  C31      1.0000 0.32570  0.85340  0.70950  Biso   1.000  C
  C32      1.0000 0.67430  0.35340  0.29050  Biso   1.000  C
  H19      1.0000 0.25840  0.86130  0.59060  Biso   1.000  H
  H20      1.0000 0.74160  0.36130  0.40940  Biso   1.000  H
  C33      1.0000 0.46500  0.90340  0.80930  Biso   1.000  C
  C34      1.0000 0.53500  0.40340  0.19070  Biso   1.000  C
  H21      1.0000 0.49770  0.94460  0.75960  Biso   1.000  H
  H22      1.0000 0.50230  0.44460  0.24040  Biso   1.000  H
  C35      1.0000 0.55620  0.89140  0.98600  Biso   1.000  C
  C36      1.0000 0.44380  0.39140  0.01400  Biso   1.000  C
  H23      1.0000 0.64720  0.92620  0.05540  Biso   1.000  H
  H24      1.0000 0.35280  0.42620  0.94460  Biso   1.000  H
  C37      1.0000 0.93310  0.65740  0.32400  Biso   1.000  C
  C38      1.0000 0.06690  0.15740  0.67600  Biso   1.000  C
  C39      1.0000 0.79450  0.93370  0.55760  Biso   1.000  C
  C40      1.0000 0.20550  0.43370  0.44240  Biso   1.000  C
