data_image0
_cell_length_a       9.6353
_cell_length_b       9.977
_cell_length_c       19.664
_cell_angle_alpha    87.414
_cell_angle_beta     80.443
_cell_angle_gamma    87.037

_symmetry_space_group_name_H-M    "P 1"
_symmetry_int_tables_number       1

loop_
  _symmetry_equiv_pos_as_xyz
  'x, y, z'

loop_
  _atom_site_label
  _atom_site_occupancy
  _atom_site_fract_x
  _atom_site_fract_y
  _atom_site_fract_z
  _atom_site_thermal_displace_type
  _atom_site_B_iso_or_equiv
  _atom_site_type_symbol
  C1       1.0000 0.11560  0.78310  0.12170  Biso   1.000  C
  C2       1.0000 0.88440  0.21690  0.87830  Biso   1.000  C
  C3       1.0000 0.05610  0.73860  0.18940  Biso   1.000  C
  C4       1.0000 0.94390  0.26140  0.81060  Biso   1.000  C
  H1       1.0000 0.99320  0.66980  0.19470  Biso   1.000  H
  H2       1.0000 0.00680  0.33020  0.80530  Biso   1.000  H
  C5       1.0000 0.18130  0.88810  0.23720  Biso   1.000  C
  C6       1.0000 0.81870  0.11190  0.76280  Biso   1.000  C
  H3       1.0000 0.20520  0.92460  0.27610  Biso   1.000  H
  H4       1.0000 0.79480  0.07540  0.72390  Biso   1.000  H
  C7       1.0000 0.24170  0.93260  0.17330  Biso   1.000  C
  C8       1.0000 0.75830  0.06740  0.82670  Biso   1.000  C
  H5       1.0000 0.30570  0.00030  0.16910  Biso   1.000  H
  H6       1.0000 0.69430  0.99970  0.83090  Biso   1.000  H
  C9       1.0000 0.28770  0.46610  0.12300  Biso   1.000  C
  C10      1.0000 0.71230  0.53390  0.87700  Biso   1.000  C
  C11      1.0000 0.22160  0.41200  0.18820  Biso   1.000  C
  C12      1.0000 0.77840  0.58800  0.81180  Biso   1.000  C
  H7       1.0000 0.16110  0.34190  0.18950  Biso   1.000  H
  H8       1.0000 0.83890  0.65810  0.81050  Biso   1.000  H
  C13      1.0000 0.33890  0.55810  0.24440  Biso   1.000  C
  C14      1.0000 0.66110  0.44190  0.75560  Biso   1.000  C
  H9       1.0000 0.35780  0.59030  0.28540  Biso   1.000  H
  H10      1.0000 0.64220  0.40970  0.71460  Biso   1.000  H
  C15      1.0000 0.40390  0.60850  0.18380  Biso   1.000  C
  C16      1.0000 0.59610  0.39150  0.81620  Biso   1.000  C
  H11      1.0000 0.46950  0.67390  0.18310  Biso   1.000  H
  H12      1.0000 0.53050  0.32610  0.81690  Biso   1.000  H
  Cu1      1.0000 0.98045  0.74732  0.33350  Biso   1.000  Cu
  Cu2      1.0000 0.01955  0.25268  0.66650  Biso   1.000  Cu
  Mo1      1.0000 0.89935  0.13822  0.13959  Biso   1.000  Mo
  Mo2      1.0000 0.10065  0.86178  0.86041  Biso   1.000  Mo
  Mo3      1.0000 0.76827  0.44054  0.13946  Biso   1.000  Mo
  Mo4      1.0000 0.23173  0.55946  0.86054  Biso   1.000  Mo
  Mo5      1.0000 0.73922  0.44297  0.30790  Biso   1.000  Mo
  Mo6      1.0000 0.26078  0.55703  0.69210  Biso   1.000  Mo
  Mo7      1.0000 0.87641  0.13656  0.30483  Biso   1.000  Mo
  Mo8      1.0000 0.12359  0.86344  0.69517  Biso   1.000  Mo
  Mo9      1.0000 0.55756  0.20125  0.24014  Biso   1.000  Mo
  Mo10     1.0000 0.44244  0.79875  0.75986  Biso   1.000  Mo
  Mo11     1.0000 0.69110  0.89812  0.24258  Biso   1.000  Mo
  Mo12     1.0000 0.30890  0.10188  0.75742  Biso   1.000  Mo
  Mo13     1.0000 0.71473  0.89763  0.07435  Biso   1.000  Mo
  Mo14     1.0000 0.28527  0.10237  0.92565  Biso   1.000  Mo
  Mo15     1.0000 0.58091  0.20569  0.07494  Biso   1.000  Mo
  Mo16     1.0000 0.41909  0.79431  0.92506  Biso   1.000  Mo
  N1       1.0000 0.21070  0.88080  0.11630  Biso   1.000  N
  N2       1.0000 0.78930  0.11920  0.88370  Biso   1.000  N
  H13      1.0000 0.25080  0.90930  0.07630  Biso   1.000  H
  H14      1.0000 0.74920  0.09070  0.92370  Biso   1.000  H
  N3       1.0000 0.08650  0.79090  0.24440  Biso   1.000  N
  N4       1.0000 0.91350  0.20910  0.75560  Biso   1.000  N
  N5       1.0000 0.08590  0.72500  0.06630  Biso   1.000  N
  N6       1.0000 0.91410  0.27500  0.93370  Biso   1.000  N
  H15      1.0000 0.12730  0.74910  0.02580  Biso   1.000  H
  H16      1.0000 0.87270  0.25090  0.97420  Biso   1.000  H
  H17      1.0000 0.02530  0.66350  0.07110  Biso   1.000  H
  H18      1.0000 0.97470  0.33650  0.92890  Biso   1.000  H
  N7       1.0000 0.37470  0.56510  0.12380  Biso   1.000  N
  N8       1.0000 0.62530  0.43490  0.87620  Biso   1.000  N
  H19      1.0000 0.41320  0.60220  0.08540  Biso   1.000  H
  H20      1.0000 0.58680  0.39780  0.91460  Biso   1.000  H
  N9       1.0000 0.24460  0.45910  0.24600  Biso   1.000  N
  N10      1.0000 0.75540  0.54090  0.75400  Biso   1.000  N
  N11      1.0000 0.26090  0.41890  0.06450  Biso   1.000  N
  N12      1.0000 0.73910  0.58110  0.93550  Biso   1.000  N
  H21      1.0000 0.30040  0.45250  0.02540  Biso   1.000  H
  H22      1.0000 0.69960  0.54750  0.97460  Biso   1.000  H
  H23      1.0000 0.20410  0.35480  0.06570  Biso   1.000  H
  H24      1.0000 0.79590  0.64520  0.93430  Biso   1.000  H
  O1       1.0000 0.06430  0.19610  0.13100  Biso   1.000  O
  O2       1.0000 0.93570  0.80390  0.86900  Biso   1.000  O
  O3       1.0000 0.68670  0.53720  0.08310  Biso   1.000  O
  O4       1.0000 0.31330  0.46280  0.91690  Biso   1.000  O
  O5       1.0000 0.93900  0.48980  0.12580  Biso   1.000  O
  O6       1.0000 0.06100  0.51020  0.87420  Biso   1.000  O
  O7       1.0000 0.64160  0.53510  0.37000  Biso   1.000  O
  O8       1.0000 0.35840  0.46490  0.63000  Biso   1.000  O
  O9       1.0000 0.90850  0.49370  0.30200  Biso   1.000  O
  O10      1.0000 0.09150  0.50630  0.69800  Biso   1.000  O
  O11      1.0000 0.88830  0.01430  0.36630  Biso   1.000  O
  O12      1.0000 0.11170  0.98570  0.63370  Biso   1.000  O
  O13      1.0000 0.03860  0.20540  0.29070  Biso   1.000  O
  O14      1.0000 0.96140  0.79460  0.70930  Biso   1.000  O
  O15      1.0000 0.79570  0.27030  0.21770  Biso   1.000  O
  O16      1.0000 0.20430  0.72970  0.78230  Biso   1.000  O
  O17      1.0000 0.91260  0.01000  0.08130  Biso   1.000  O
  O18      1.0000 0.08740  0.99000  0.91870  Biso   1.000  O
  O19      1.0000 0.80570  0.27350  0.08520  Biso   1.000  O
  O20      1.0000 0.19430  0.72650  0.91480  Biso   1.000  O
  O21      1.0000 0.69400  0.52110  0.22400  Biso   1.000  O
  O22      1.0000 0.30600  0.47890  0.77600  Biso   1.000  O
  O23      1.0000 0.76800  0.27400  0.35580  Biso   1.000  O
  O24      1.0000 0.23200  0.72600  0.64420  Biso   1.000  O
  O25      1.0000 0.89500  0.02440  0.22270  Biso   1.000  O
  O26      1.0000 0.10500  0.97560  0.77730  Biso   1.000  O
  O27      1.0000 0.39350  0.14410  0.25060  Biso   1.000  O
  O28      1.0000 0.60650  0.85590  0.74940  Biso   1.000  O
  O29      1.0000 0.76900  0.79990  0.30070  Biso   1.000  O
  O30      1.0000 0.23100  0.20010  0.69930  Biso   1.000  O
  O31      1.0000 0.52100  0.85110  0.25410  Biso   1.000  O
  O32      1.0000 0.47900  0.14890  0.74590  Biso   1.000  O
  O33      1.0000 0.80630  0.79710  0.01370  Biso   1.000  O
  O34      1.0000 0.19370  0.20290  0.98630  Biso   1.000  O
  O35      1.0000 0.54620  0.84690  0.08640  Biso   1.000  O
  O36      1.0000 0.45380  0.15310  0.91360  Biso   1.000  O
  O37      1.0000 0.57910  0.32980  0.01230  Biso   1.000  O
  O38      1.0000 0.42090  0.67020  0.98770  Biso   1.000  O
  O39      1.0000 0.41690  0.14730  0.08920  Biso   1.000  O
  O40      1.0000 0.58310  0.85270  0.91080  Biso   1.000  O
  O41      1.0000 0.66090  0.07340  0.16110  Biso   1.000  O
  O42      1.0000 0.33910  0.92660  0.83890  Biso   1.000  O
  O43      1.0000 0.54410  0.33130  0.29820  Biso   1.000  O
  O44      1.0000 0.45590  0.66870  0.70180  Biso   1.000  O
  O45      1.0000 0.65350  0.06900  0.29350  Biso   1.000  O
  O46      1.0000 0.34650  0.93100  0.70650  Biso   1.000  O
  O47      1.0000 0.77010  0.82080  0.15780  Biso   1.000  O
  O48      1.0000 0.22990  0.17920  0.84220  Biso   1.000  O
  O49      1.0000 0.68690  0.06680  0.02280  Biso   1.000  O
  O50      1.0000 0.31310  0.93320  0.97720  Biso   1.000  O
  O51      1.0000 0.56140  0.31710  0.15720  Biso   1.000  O
  O52      1.0000 0.43860  0.68290  0.84280  Biso   1.000  O
  Cu3      1.0000 0.12050  0.39810  0.33010  Biso   1.000  Cu
  Cu4      1.0000 0.87950  0.60190  0.66990  Biso   1.000  Cu
  N13      1.0000 0.90520  0.64390  0.57090  Biso   1.000  N
  N14      1.0000 0.09480  0.35610  0.42910  Biso   1.000  N
  C17      1.0000 0.79270  0.66410  0.53690  Biso   1.000  C
  C18      1.0000 0.20730  0.33590  0.46310  Biso   1.000  C
  C19      1.0000 0.81900  0.69500  0.46510  Biso   1.000  C
  C20      1.0000 0.18100  0.30500  0.53490  Biso   1.000  C
  H25      1.0000 0.74240  0.70840  0.44200  Biso   1.000  H
  H26      1.0000 0.25760  0.29160  0.55800  Biso   1.000  H
  N15      1.0000 0.94400  0.70500  0.43000  Biso   1.000  N
  N16      1.0000 0.05600  0.29500  0.57000  Biso   1.000  N
  C21      1.0000 0.05430  0.68500  0.46460  Biso   1.000  C
  C22      1.0000 0.94570  0.31500  0.53540  Biso   1.000  C
  H27      1.0000 0.14510  0.69440  0.44060  Biso   1.000  H
  H28      1.0000 0.85490  0.30560  0.55940  Biso   1.000  H
  C23      1.0000 0.03640  0.65300  0.53260  Biso   1.000  C
  C24      1.0000 0.96360  0.34700  0.46740  Biso   1.000  C
  H29      1.0000 0.11510  0.63640  0.55390  Biso   1.000  H
  H30      1.0000 0.88490  0.36360  0.44610  Biso   1.000  H
  N17      1.0000 0.66100  0.65400  0.56970  Biso   1.000  N
  N18      1.0000 0.33900  0.34600  0.43030  Biso   1.000  N
  H31      1.0000 0.64520  0.63440  0.61320  Biso   1.000  H
  H32      1.0000 0.35480  0.36560  0.38680  Biso   1.000  H
  H33      1.0000 0.59180  0.66710  0.54730  Biso   1.000  H
  H34      1.0000 0.40820  0.33290  0.45270  Biso   1.000  H
  O53      1.0000 0.41400  0.78100  0.52160  Biso   1.000  O
  O54      1.0000 0.58600  0.21900  0.47840  Biso   1.000  O
  O55      1.0000 0.51300  0.00600  0.56800  Biso   1.000  O
  O56      1.0000 0.48700  0.99400  0.43200  Biso   1.000  O
  O57      1.0000 0.37300  0.74220  0.38410  Biso   1.000  O
  O58      1.0000 0.62700  0.25780  0.61590  Biso   1.000  O
  O59      1.0000 0.23200  0.00400  0.39380  Biso   1.000  O
  O60      1.0000 0.76800  0.99600  0.60620  Biso   1.000  O
  Cu5      1.0000 0.17000  0.37700  0.33110  Biso   1.000  Cu
  Cu6      1.0000 0.83000  0.62300  0.66890  Biso   1.000  Cu
  N19      1.0000 0.87400  0.66100  0.57410  Biso   1.000  N
  N20      1.0000 0.12600  0.33900  0.42590  Biso   1.000  N
  C25      1.0000 0.77200  0.69300  0.53500  Biso   1.000  C
  C26      1.0000 0.22800  0.30700  0.46500  Biso   1.000  C
  C27      1.0000 0.81200  0.71300  0.46310  Biso   1.000  C
  C28      1.0000 0.18800  0.28700  0.53690  Biso   1.000  C
  H35      1.0000 0.74180  0.73360  0.43660  Biso   1.000  H
  H36      1.0000 0.25820  0.26640  0.56340  Biso   1.000  H
  N21      1.0000 0.94100  0.70400  0.43200  Biso   1.000  N
  N22      1.0000 0.05900  0.29600  0.56800  Biso   1.000  N
  C29      1.0000 0.04100  0.67200  0.47180  Biso   1.000  C
  C30      1.0000 0.95900  0.32800  0.52820  Biso   1.000  C
  H37      1.0000 0.13450  0.65910  0.45060  Biso   1.000  H
  H38      1.0000 0.86550  0.34090  0.54940  Biso   1.000  H
  C31      1.0000 0.00900  0.65900  0.54100  Biso   1.000  C
  C32      1.0000 0.99100  0.34100  0.45900  Biso   1.000  C
  H39      1.0000 0.08200  0.64860  0.56690  Biso   1.000  H
  H40      1.0000 0.91800  0.35140  0.43310  Biso   1.000  H
  N23      1.0000 0.63800  0.71400  0.56490  Biso   1.000  N
  N24      1.0000 0.36200  0.28600  0.43510  Biso   1.000  N
  O61      1.0000 0.42400  0.66200  0.48370  Biso   1.000  O
  O62      1.0000 0.57600  0.33800  0.51630  Biso   1.000  O
  O63      1.0000 0.05370  0.00900  0.48790  Biso   1.000  O
  O64      1.0000 0.94630  0.99100  0.51210  Biso   1.000  O
