data_image0
_cell_length_a       9.547
_cell_length_b       11.873
_cell_length_c       14.949
_cell_angle_alpha    90
_cell_angle_beta     111.23
_cell_angle_gamma    90

_symmetry_space_group_name_H-M    "P 1"
_symmetry_int_tables_number       1

loop_
  _symmetry_equiv_pos_as_xyz
  'x, y, z'

loop_
  _atom_site_label
  _atom_site_occupancy
  _atom_site_fract_x
  _atom_site_fract_y
  _atom_site_fract_z
  _atom_site_thermal_displace_type
  _atom_site_B_iso_or_equiv
  _atom_site_type_symbol
  I1       1.0000 0.74660  0.90029  0.52039  Biso   1.000  I
  I2       1.0000 0.25340  0.40029  0.97961  Biso   1.000  I
  I3       1.0000 0.25340  0.09971  0.47961  Biso   1.000  I
  I4       1.0000 0.74660  0.59971  0.02039  Biso   1.000  I
  I5       1.0000 0.29095  0.82072  0.28935  Biso   1.000  I
  I6       1.0000 0.70905  0.32072  0.21065  Biso   1.000  I
  I7       1.0000 0.70905  0.17928  0.71065  Biso   1.000  I
  I8       1.0000 0.29095  0.67928  0.78935  Biso   1.000  I
  Cu1      1.0000 0.55078  0.93271  0.34053  Biso   1.000  Cu
  Cu2      1.0000 0.44922  0.43271  0.15947  Biso   1.000  Cu
  Cu3      1.0000 0.44922  0.06729  0.65947  Biso   1.000  Cu
  Cu4      1.0000 0.55078  0.56729  0.84053  Biso   1.000  Cu
  Cu5      1.0000 0.63707  0.09064  0.54680  Biso   1.000  Cu
  Cu6      1.0000 0.36293  0.59064  0.95320  Biso   1.000  Cu
  Cu7      1.0000 0.36293  0.90936  0.45320  Biso   1.000  Cu
  Cu8      1.0000 0.63707  0.40936  0.04680  Biso   1.000  Cu
  N1       1.0000 0.51420  0.09980  0.33650  Biso   1.000  N
  N2       1.0000 0.48580  0.59980  0.16350  Biso   1.000  N
  N3       1.0000 0.48580  0.90020  0.66350  Biso   1.000  N
  N4       1.0000 0.51420  0.40020  0.83650  Biso   1.000  N
  N5       1.0000 0.56190  0.16680  0.41870  Biso   1.000  N
  N6       1.0000 0.43810  0.66680  0.08130  Biso   1.000  N
  N7       1.0000 0.43810  0.83320  0.58130  Biso   1.000  N
  N8       1.0000 0.56190  0.33320  0.91870  Biso   1.000  N
  N9       1.0000 0.41230  0.26580  0.29980  Biso   1.000  N
  N10      1.0000 0.58770  0.76580  0.20020  Biso   1.000  N
  N11      1.0000 0.58770  0.73420  0.70020  Biso   1.000  N
  N12      1.0000 0.41230  0.23420  0.79980  Biso   1.000  N
  N13      1.0000 0.34490  0.36190  0.24500  Biso   1.000  N
  N14      1.0000 0.65510  0.86190  0.25500  Biso   1.000  N
  N15      1.0000 0.65510  0.63810  0.75500  Biso   1.000  N
  N16      1.0000 0.34490  0.13810  0.74500  Biso   1.000  N
  N17      1.0000 0.13380  0.31290  0.28240  Biso   1.000  N
  N18      1.0000 0.86620  0.81290  0.21760  Biso   1.000  N
  N19      1.0000 0.86620  0.68710  0.71760  Biso   1.000  N
  N20      1.0000 0.13380  0.18710  0.78240  Biso   1.000  N
  H1       1.0000 0.07990  0.35580  0.30890  Biso   1.000  H
  H2       1.0000 0.92010  0.85580  0.19110  Biso   1.000  H
  H3       1.0000 0.92010  0.64420  0.69110  Biso   1.000  H
  H4       1.0000 0.07990  0.14420  0.80890  Biso   1.000  H
  H5       1.0000 0.20030  0.26960  0.32870  Biso   1.000  H
  H6       1.0000 0.79970  0.76960  0.17130  Biso   1.000  H
  H7       1.0000 0.79970  0.73040  0.67130  Biso   1.000  H
  H8       1.0000 0.20030  0.23040  0.82870  Biso   1.000  H
  C1       1.0000 0.42380  0.16060  0.26530  Biso   1.000  C
  C2       1.0000 0.57620  0.66060  0.23470  Biso   1.000  C
  C3       1.0000 0.57620  0.83940  0.73470  Biso   1.000  C
  C4       1.0000 0.42380  0.33940  0.76530  Biso   1.000  C
  C5       1.0000 0.34560  0.12390  0.16490  Biso   1.000  C
  C6       1.0000 0.65440  0.62390  0.33510  Biso   1.000  C
  C7       1.0000 0.65440  0.87610  0.83510  Biso   1.000  C
  C8       1.0000 0.34560  0.37610  0.66490  Biso   1.000  C
  H9       1.0000 0.40190  0.06230  0.15000  Biso   1.000  H
  H10      1.0000 0.59810  0.56230  0.35000  Biso   1.000  H
  H11      1.0000 0.59810  0.93770  0.85000  Biso   1.000  H
  H12      1.0000 0.40190  0.43770  0.65000  Biso   1.000  H
  H13      1.0000 0.33890  0.18730  0.12150  Biso   1.000  H
  H14      1.0000 0.66110  0.68730  0.37850  Biso   1.000  H
  H15      1.0000 0.66110  0.81270  0.87850  Biso   1.000  H
  H16      1.0000 0.33890  0.31270  0.62150  Biso   1.000  H
  H17      1.0000 0.24420  0.09790  0.15660  Biso   1.000  H
  H18      1.0000 0.75580  0.59790  0.34340  Biso   1.000  H
  H19      1.0000 0.75580  0.90210  0.84340  Biso   1.000  H
  H20      1.0000 0.24420  0.40210  0.65660  Biso   1.000  H
  C9       1.0000 0.50030  0.26660  0.39440  Biso   1.000  C
  C10      1.0000 0.49970  0.76660  0.10560  Biso   1.000  C
  C11      1.0000 0.49970  0.73340  0.60560  Biso   1.000  C
  C12      1.0000 0.50030  0.23340  0.89440  Biso   1.000  C
  C13      1.0000 0.51310  0.36400  0.45850  Biso   1.000  C
  C14      1.0000 0.48690  0.86400  0.04150  Biso   1.000  C
  C15      1.0000 0.48690  0.63600  0.54150  Biso   1.000  C
  C16      1.0000 0.51310  0.13600  0.95850  Biso   1.000  C
  H21      1.0000 0.57850  0.34420  0.52400  Biso   1.000  H
  H22      1.0000 0.42150  0.84420  0.97600  Biso   1.000  H
  H23      1.0000 0.42150  0.65580  0.47600  Biso   1.000  H
  H24      1.0000 0.57850  0.15580  0.02400  Biso   1.000  H
  H25      1.0000 0.41320  0.38410  0.45800  Biso   1.000  H
  H26      1.0000 0.58680  0.88410  0.04200  Biso   1.000  H
  H27      1.0000 0.58680  0.61590  0.54200  Biso   1.000  H
  H28      1.0000 0.41320  0.11590  0.95800  Biso   1.000  H
  H29      1.0000 0.55590  0.42820  0.43610  Biso   1.000  H
  H30      1.0000 0.44410  0.92820  0.06390  Biso   1.000  H
  H31      1.0000 0.44410  0.57180  0.56390  Biso   1.000  H
  H32      1.0000 0.55590  0.07180  0.93610  Biso   1.000  H
  C17      1.0000 0.20900  0.38060  0.24360  Biso   1.000  C
  C18      1.0000 0.79100  0.88060  0.25640  Biso   1.000  C
  C19      1.0000 0.79100  0.61940  0.75640  Biso   1.000  C
  C20      1.0000 0.20900  0.11940  0.74360  Biso   1.000  C
  C21      1.0000 0.13150  0.48450  0.19420  Biso   1.000  C
  C22      1.0000 0.86850  0.98450  0.30580  Biso   1.000  C
  C23      1.0000 0.86850  0.51550  0.80580  Biso   1.000  C
  C24      1.0000 0.13150  0.01550  0.69420  Biso   1.000  C
  H33      1.0000 0.19280  0.52130  0.16240  Biso   1.000  H
  H34      1.0000 0.80720  0.02130  0.33760  Biso   1.000  H
  H35      1.0000 0.80720  0.47870  0.83760  Biso   1.000  H
  H36      1.0000 0.19280  0.97870  0.66240  Biso   1.000  H
  H37      1.0000 0.11730  0.53600  0.24140  Biso   1.000  H
  H38      1.0000 0.88270  0.03600  0.25860  Biso   1.000  H
  H39      1.0000 0.88270  0.46400  0.75860  Biso   1.000  H
  H40      1.0000 0.11730  0.96400  0.74140  Biso   1.000  H
  H41      1.0000 0.03350  0.46450  0.14620  Biso   1.000  H
  H42      1.0000 0.96650  0.96450  0.35380  Biso   1.000  H
  H43      1.0000 0.96650  0.53550  0.85380  Biso   1.000  H
  H44      1.0000 0.03350  0.03550  0.64620  Biso   1.000  H
  C25      1.0000 0.90360  0.09800  0.04430  Biso   1.000  C
  C26      1.0000 0.09640  0.59800  0.45570  Biso   1.000  C
  C27      1.0000 0.09640  0.90200  0.95570  Biso   1.000  C
  C28      1.0000 0.90360  0.40200  0.54430  Biso   1.000  C
  C29      1.0000 0.93060  0.20570  0.00830  Biso   1.000  C
  C30      1.0000 0.06940  0.70570  0.49170  Biso   1.000  C
  C31      1.0000 0.06940  0.79430  0.99170  Biso   1.000  C
  C32      1.0000 0.93060  0.29430  0.50830  Biso   1.000  C
  H45      1.0000 0.02910  0.20470  0.00170  Biso   1.000  H
  H46      1.0000 0.97090  0.70470  0.49830  Biso   1.000  H
  H47      1.0000 0.97090  0.79530  0.99830  Biso   1.000  H
  H48      1.0000 0.02910  0.29530  0.50170  Biso   1.000  H
  H49      1.0000 0.92880  0.26530  0.05320  Biso   1.000  H
  H50      1.0000 0.07120  0.76530  0.44680  Biso   1.000  H
  H51      1.0000 0.07120  0.73470  0.94680  Biso   1.000  H
  H52      1.0000 0.92880  0.23470  0.55320  Biso   1.000  H
  H53      1.0000 0.85230  0.22010  0.94550  Biso   1.000  H
  H54      1.0000 0.14770  0.72010  0.55450  Biso   1.000  H
  H55      1.0000 0.14770  0.77990  0.05450  Biso   1.000  H
  H56      1.0000 0.85230  0.27990  0.44550  Biso   1.000  H
  N21      1.0000 0.87880  0.01150  0.06980  Biso   1.000  N
  N22      1.0000 0.12120  0.51150  0.43020  Biso   1.000  N
  N23      1.0000 0.12120  0.98850  0.93020  Biso   1.000  N
  N24      1.0000 0.87880  0.48850  0.56980  Biso   1.000  N
