data_image0
_cell_length_a       16.253
_cell_length_b       16.253
_cell_length_c       19.078
_cell_angle_alpha    90
_cell_angle_beta     90
_cell_angle_gamma    90

_symmetry_space_group_name_H-M    "P 1"
_symmetry_int_tables_number       1

loop_
  _symmetry_equiv_pos_as_xyz
  'x, y, z'

loop_
  _atom_site_label
  _atom_site_occupancy
  _atom_site_fract_x
  _atom_site_fract_y
  _atom_site_fract_z
  _atom_site_thermal_displace_type
  _atom_site_B_iso_or_equiv
  _atom_site_type_symbol
  Cu1      1.0000 0.98402  0.32663  0.07544  Biso   1.000  Cu
  Cu2      1.0000 0.51598  0.67337  0.57544  Biso   1.000  Cu
  Cu3      1.0000 0.42337  0.23402  0.32544  Biso   1.000  Cu
  Cu4      1.0000 0.07663  0.76598  0.82544  Biso   1.000  Cu
  Cu5      1.0000 0.48402  0.82663  0.57544  Biso   1.000  Cu
  Cu6      1.0000 0.01598  0.17337  0.07544  Biso   1.000  Cu
  Cu7      1.0000 0.92337  0.73402  0.82544  Biso   1.000  Cu
  Cu8      1.0000 0.57663  0.26598  0.32544  Biso   1.000  Cu
  Cu9      1.0000 0.01598  0.67337  0.92456  Biso   1.000  Cu
  Cu10     1.0000 0.48402  0.32663  0.42456  Biso   1.000  Cu
  Cu11     1.0000 0.07663  0.26598  0.17456  Biso   1.000  Cu
  Cu12     1.0000 0.42337  0.73402  0.67456  Biso   1.000  Cu
  Cu13     1.0000 0.51598  0.17337  0.42456  Biso   1.000  Cu
  Cu14     1.0000 0.98402  0.82663  0.92456  Biso   1.000  Cu
  Cu15     1.0000 0.57663  0.76598  0.67456  Biso   1.000  Cu
  Cu16     1.0000 0.92337  0.23402  0.17456  Biso   1.000  Cu
  Cu17     1.0000 0.13920  0.44731  0.13283  Biso   1.000  Cu
  Cu18     1.0000 0.36080  0.55269  0.63283  Biso   1.000  Cu
  Cu19     1.0000 0.30269  0.38920  0.38283  Biso   1.000  Cu
  Cu20     1.0000 0.19731  0.61080  0.88283  Biso   1.000  Cu
  Cu21     1.0000 0.63920  0.94731  0.63283  Biso   1.000  Cu
  Cu22     1.0000 0.86080  0.05269  0.13283  Biso   1.000  Cu
  Cu23     1.0000 0.80269  0.88920  0.88283  Biso   1.000  Cu
  Cu24     1.0000 0.69731  0.11080  0.38283  Biso   1.000  Cu
  Cu25     1.0000 0.86080  0.55269  0.86717  Biso   1.000  Cu
  Cu26     1.0000 0.63920  0.44731  0.36717  Biso   1.000  Cu
  Cu27     1.0000 0.19731  0.11080  0.11717  Biso   1.000  Cu
  Cu28     1.0000 0.30269  0.88920  0.61717  Biso   1.000  Cu
  Cu29     1.0000 0.36080  0.05269  0.36717  Biso   1.000  Cu
  Cu30     1.0000 0.13920  0.94731  0.86717  Biso   1.000  Cu
  Cu31     1.0000 0.69731  0.61080  0.61717  Biso   1.000  Cu
  Cu32     1.0000 0.80269  0.38920  0.11717  Biso   1.000  Cu
  I1       1.0000 0.13006  0.29281  0.04825  Biso   1.000  I
  I2       1.0000 0.36994  0.70719  0.54825  Biso   1.000  I
  I3       1.0000 0.45719  0.38006  0.29825  Biso   1.000  I
  I4       1.0000 0.04281  0.61994  0.79825  Biso   1.000  I
  I5       1.0000 0.63006  0.79281  0.54825  Biso   1.000  I
  I6       1.0000 0.86994  0.20719  0.04825  Biso   1.000  I
  I7       1.0000 0.95719  0.88006  0.79825  Biso   1.000  I
  I8       1.0000 0.54281  0.11994  0.29825  Biso   1.000  I
  I9       1.0000 0.86994  0.70719  0.95175  Biso   1.000  I
  I10      1.0000 0.63006  0.29281  0.45175  Biso   1.000  I
  I11      1.0000 0.04281  0.11994  0.20175  Biso   1.000  I
  I12      1.0000 0.45719  0.88006  0.70175  Biso   1.000  I
  I13      1.0000 0.36994  0.20719  0.45175  Biso   1.000  I
  I14      1.0000 0.13006  0.79281  0.95175  Biso   1.000  I
  I15      1.0000 0.54281  0.61994  0.70175  Biso   1.000  I
  I16      1.0000 0.95719  0.38006  0.20175  Biso   1.000  I
  N1       1.0000 0.85070  0.42540  0.03770  Biso   1.000  N
  N2       1.0000 0.64930  0.57460  0.53770  Biso   1.000  N
  N3       1.0000 0.32460  0.10070  0.28770  Biso   1.000  N
  N4       1.0000 0.17540  0.89930  0.78770  Biso   1.000  N
  N5       1.0000 0.35070  0.92540  0.53770  Biso   1.000  N
  N6       1.0000 0.14930  0.07460  0.03770  Biso   1.000  N
  N7       1.0000 0.82460  0.60070  0.78770  Biso   1.000  N
  N8       1.0000 0.67540  0.39930  0.28770  Biso   1.000  N
  N9       1.0000 0.14930  0.57460  0.96230  Biso   1.000  N
  N10      1.0000 0.35070  0.42540  0.46230  Biso   1.000  N
  N11      1.0000 0.17540  0.39930  0.21230  Biso   1.000  N
  N12      1.0000 0.32460  0.60070  0.71230  Biso   1.000  N
  N13      1.0000 0.64930  0.07460  0.46230  Biso   1.000  N
  N14      1.0000 0.85070  0.92540  0.96230  Biso   1.000  N
  N15      1.0000 0.67540  0.89930  0.71230  Biso   1.000  N
  N16      1.0000 0.82460  0.10070  0.21230  Biso   1.000  N
  N17      1.0000 0.92570  0.40280  0.01720  Biso   1.000  N
  N18      1.0000 0.57430  0.59720  0.51720  Biso   1.000  N
  N19      1.0000 0.34720  0.17570  0.26720  Biso   1.000  N
  N20      1.0000 0.15280  0.82430  0.76720  Biso   1.000  N
  N21      1.0000 0.42570  0.90280  0.51720  Biso   1.000  N
  N22      1.0000 0.07430  0.09720  0.01720  Biso   1.000  N
  N23      1.0000 0.84720  0.67570  0.76720  Biso   1.000  N
  N24      1.0000 0.65280  0.32430  0.26720  Biso   1.000  N
  N25      1.0000 0.07430  0.59720  0.98280  Biso   1.000  N
  N26      1.0000 0.42570  0.40280  0.48280  Biso   1.000  N
  N27      1.0000 0.15280  0.32430  0.23280  Biso   1.000  N
  N28      1.0000 0.34720  0.67570  0.73280  Biso   1.000  N
  N29      1.0000 0.57430  0.09720  0.48280  Biso   1.000  N
  N30      1.0000 0.92570  0.90280  0.98280  Biso   1.000  N
  N31      1.0000 0.65280  0.82430  0.73280  Biso   1.000  N
  N32      1.0000 0.84720  0.17570  0.23280  Biso   1.000  N
  N33      1.0000 0.87520  0.48330  0.94030  Biso   1.000  N
  N34      1.0000 0.62480  0.51670  0.44030  Biso   1.000  N
  N35      1.0000 0.26670  0.12520  0.19030  Biso   1.000  N
  N36      1.0000 0.23330  0.87480  0.69030  Biso   1.000  N
  N37      1.0000 0.37520  0.98330  0.44030  Biso   1.000  N
  N38      1.0000 0.12480  0.01670  0.94030  Biso   1.000  N
  N39      1.0000 0.76670  0.62520  0.69030  Biso   1.000  N
  N40      1.0000 0.73330  0.37480  0.19030  Biso   1.000  N
  N41      1.0000 0.12480  0.51670  0.05970  Biso   1.000  N
  N42      1.0000 0.37520  0.48330  0.55970  Biso   1.000  N
  N43      1.0000 0.23330  0.37480  0.30970  Biso   1.000  N
  N44      1.0000 0.26670  0.62520  0.80970  Biso   1.000  N
  N45      1.0000 0.62480  0.01670  0.55970  Biso   1.000  N
  N46      1.0000 0.87520  0.98330  0.05970  Biso   1.000  N
  N47      1.0000 0.73330  0.87480  0.80970  Biso   1.000  N
  N48      1.0000 0.76670  0.12520  0.30970  Biso   1.000  N
  C1       1.0000 0.82240  0.47280  0.99080  Biso   1.000  C
  C2       1.0000 0.67760  0.52720  0.49080  Biso   1.000  C
  C3       1.0000 0.27720  0.07240  0.24080  Biso   1.000  C
  C4       1.0000 0.22280  0.92760  0.74080  Biso   1.000  C
  C5       1.0000 0.32240  0.97280  0.49080  Biso   1.000  C
  C6       1.0000 0.17760  0.02720  0.99080  Biso   1.000  C
  C7       1.0000 0.77720  0.57240  0.74080  Biso   1.000  C
  C8       1.0000 0.72280  0.42760  0.24080  Biso   1.000  C
  C9       1.0000 0.17760  0.52720  0.00920  Biso   1.000  C
  C10      1.0000 0.32240  0.47280  0.50920  Biso   1.000  C
  C11      1.0000 0.22280  0.42760  0.25920  Biso   1.000  C
  C12      1.0000 0.27720  0.57240  0.75920  Biso   1.000  C
  C13      1.0000 0.67760  0.02720  0.50920  Biso   1.000  C
  C14      1.0000 0.82240  0.97280  0.00920  Biso   1.000  C
  C15      1.0000 0.72280  0.92760  0.75920  Biso   1.000  C
  C16      1.0000 0.77720  0.07240  0.25920  Biso   1.000  C
  C17      1.0000 0.74160  0.50770  0.99320  Biso   1.000  C
  C18      1.0000 0.75840  0.49230  0.49320  Biso   1.000  C
  C19      1.0000 0.24230  0.99160  0.24320  Biso   1.000  C
  C20      1.0000 0.25770  0.00840  0.74320  Biso   1.000  C
  C21      1.0000 0.24160  0.00770  0.49320  Biso   1.000  C
  C22      1.0000 0.25840  0.99230  0.99320  Biso   1.000  C
  C23      1.0000 0.74230  0.49160  0.74320  Biso   1.000  C
  C24      1.0000 0.75770  0.50840  0.24320  Biso   1.000  C
  C25      1.0000 0.25840  0.49230  0.00680  Biso   1.000  C
  C26      1.0000 0.24160  0.50770  0.50680  Biso   1.000  C
  C27      1.0000 0.25770  0.50840  0.25680  Biso   1.000  C
  C28      1.0000 0.24230  0.49160  0.75680  Biso   1.000  C
  C29      1.0000 0.75840  0.99230  0.50680  Biso   1.000  C
  C30      1.0000 0.74160  0.00770  0.00680  Biso   1.000  C
  C31      1.0000 0.75770  0.00840  0.75680  Biso   1.000  C
  C32      1.0000 0.74230  0.99160  0.25680  Biso   1.000  C
  H1       1.0000 0.74650  0.56820  0.98880  Biso   1.000  H
  H2       1.0000 0.75350  0.43180  0.48880  Biso   1.000  H
  H3       1.0000 0.18180  0.99650  0.23880  Biso   1.000  H
  H4       1.0000 0.31820  0.00350  0.73880  Biso   1.000  H
  H5       1.0000 0.24650  0.06820  0.48880  Biso   1.000  H
  H6       1.0000 0.25350  0.93180  0.98880  Biso   1.000  H
  H7       1.0000 0.68180  0.49650  0.73880  Biso   1.000  H
  H8       1.0000 0.81820  0.50350  0.23880  Biso   1.000  H
  H9       1.0000 0.25350  0.43180  0.01120  Biso   1.000  H
  H10      1.0000 0.24650  0.56820  0.51120  Biso   1.000  H
  H11      1.0000 0.31820  0.50350  0.26120  Biso   1.000  H
  H12      1.0000 0.18180  0.49650  0.76120  Biso   1.000  H
  H13      1.0000 0.75350  0.93180  0.51120  Biso   1.000  H
  H14      1.0000 0.74650  0.06820  0.01120  Biso   1.000  H
  H15      1.0000 0.81820  0.00350  0.76120  Biso   1.000  H
  H16      1.0000 0.68180  0.99650  0.26120  Biso   1.000  H
  H17      1.0000 0.71740  0.49590  0.03970  Biso   1.000  H
  H18      1.0000 0.78260  0.50410  0.53970  Biso   1.000  H
  H19      1.0000 0.25410  0.96740  0.28970  Biso   1.000  H
  H20      1.0000 0.24590  0.03260  0.78970  Biso   1.000  H
  H21      1.0000 0.21740  0.99590  0.53970  Biso   1.000  H
  H22      1.0000 0.28260  0.00410  0.03970  Biso   1.000  H
  H23      1.0000 0.75410  0.46740  0.78970  Biso   1.000  H
  H24      1.0000 0.74590  0.53260  0.28970  Biso   1.000  H
  H25      1.0000 0.28260  0.50410  0.96030  Biso   1.000  H
  H26      1.0000 0.21740  0.49590  0.46030  Biso   1.000  H
  H27      1.0000 0.24590  0.53260  0.21030  Biso   1.000  H
  H28      1.0000 0.25410  0.46740  0.71030  Biso   1.000  H
  H29      1.0000 0.78260  0.00410  0.46030  Biso   1.000  H
  H30      1.0000 0.71740  0.99590  0.96030  Biso   1.000  H
  H31      1.0000 0.74590  0.03260  0.71030  Biso   1.000  H
  H32      1.0000 0.75410  0.96740  0.21030  Biso   1.000  H
  C33      1.0000 0.68590  0.47870  0.94020  Biso   1.000  C
  C34      1.0000 0.81410  0.52130  0.44020  Biso   1.000  C
  C35      1.0000 0.27130  0.93590  0.19020  Biso   1.000  C
  C36      1.0000 0.22870  0.06410  0.69020  Biso   1.000  C
  C37      1.0000 0.18590  0.97870  0.44020  Biso   1.000  C
  C38      1.0000 0.31410  0.02130  0.94020  Biso   1.000  C
  C39      1.0000 0.77130  0.43590  0.69020  Biso   1.000  C
  C40      1.0000 0.72870  0.56410  0.19020  Biso   1.000  C
  C41      1.0000 0.31410  0.52130  0.05980  Biso   1.000  C
  C42      1.0000 0.18590  0.47870  0.55980  Biso   1.000  C
  C43      1.0000 0.22870  0.56410  0.30980  Biso   1.000  C
  C44      1.0000 0.27130  0.43590  0.80980  Biso   1.000  C
  C45      1.0000 0.81410  0.02130  0.55980  Biso   1.000  C
  C46      1.0000 0.68590  0.97870  0.05980  Biso   1.000  C
  C47      1.0000 0.72870  0.06410  0.80980  Biso   1.000  C
  C48      1.0000 0.77130  0.93590  0.30980  Biso   1.000  C
  H33      1.0000 0.63110  0.50340  0.94840  Biso   1.000  H
  H34      1.0000 0.86890  0.49660  0.44840  Biso   1.000  H
  H35      1.0000 0.24660  0.88110  0.19840  Biso   1.000  H
  H36      1.0000 0.25340  0.11890  0.69840  Biso   1.000  H
  H37      1.0000 0.13110  0.00340  0.44840  Biso   1.000  H
  H38      1.0000 0.36890  0.99660  0.94840  Biso   1.000  H
  H39      1.0000 0.74660  0.38110  0.69840  Biso   1.000  H
  H40      1.0000 0.75340  0.61890  0.19840  Biso   1.000  H
  H41      1.0000 0.36890  0.49660  0.05160  Biso   1.000  H
  H42      1.0000 0.13110  0.50340  0.55160  Biso   1.000  H
  H43      1.0000 0.25340  0.61890  0.30160  Biso   1.000  H
  H44      1.0000 0.24660  0.38110  0.80160  Biso   1.000  H
  H45      1.0000 0.86890  0.99660  0.55160  Biso   1.000  H
  H46      1.0000 0.63110  0.00340  0.05160  Biso   1.000  H
  H47      1.0000 0.75340  0.11890  0.80160  Biso   1.000  H
  H48      1.0000 0.74660  0.88110  0.30160  Biso   1.000  H
  H49      1.0000 0.70550  0.49790  0.89380  Biso   1.000  H
  H50      1.0000 0.79450  0.50210  0.39380  Biso   1.000  H
  H51      1.0000 0.25210  0.95550  0.14380  Biso   1.000  H
  H52      1.0000 0.24790  0.04450  0.64380  Biso   1.000  H
  H53      1.0000 0.20550  0.99790  0.39380  Biso   1.000  H
  H54      1.0000 0.29450  0.00210  0.89380  Biso   1.000  H
  H55      1.0000 0.75210  0.45550  0.64380  Biso   1.000  H
  H56      1.0000 0.74790  0.54450  0.14380  Biso   1.000  H
  H57      1.0000 0.29450  0.50210  0.10620  Biso   1.000  H
  H58      1.0000 0.20550  0.49790  0.60620  Biso   1.000  H
  H59      1.0000 0.24790  0.54450  0.35620  Biso   1.000  H
  H60      1.0000 0.25210  0.45550  0.85620  Biso   1.000  H
  H61      1.0000 0.79450  0.00210  0.60620  Biso   1.000  H
  H62      1.0000 0.70550  0.99790  0.10620  Biso   1.000  H
  H63      1.0000 0.74790  0.04450  0.85620  Biso   1.000  H
  H64      1.0000 0.75210  0.95550  0.35620  Biso   1.000  H
  C49      1.0000 0.67780  0.39330  0.93840  Biso   1.000  C
  C50      1.0000 0.82220  0.60670  0.43840  Biso   1.000  C
  C51      1.0000 0.35670  0.92780  0.18840  Biso   1.000  C
  C52      1.0000 0.14330  0.07220  0.68840  Biso   1.000  C
  C53      1.0000 0.17780  0.89330  0.43840  Biso   1.000  C
  C54      1.0000 0.32220  0.10670  0.93840  Biso   1.000  C
  C55      1.0000 0.85670  0.42780  0.68840  Biso   1.000  C
  C56      1.0000 0.64330  0.57220  0.18840  Biso   1.000  C
  C57      1.0000 0.32220  0.60670  0.06160  Biso   1.000  C
  C58      1.0000 0.17780  0.39330  0.56160  Biso   1.000  C
  C59      1.0000 0.14330  0.57220  0.31160  Biso   1.000  C
  C60      1.0000 0.35670  0.42780  0.81160  Biso   1.000  C
  C61      1.0000 0.82220  0.10670  0.56160  Biso   1.000  C
  C62      1.0000 0.67780  0.89330  0.06160  Biso   1.000  C
  C63      1.0000 0.64330  0.07220  0.81160  Biso   1.000  C
  C64      1.0000 0.85670  0.92780  0.31160  Biso   1.000  C
  H65      1.0000 0.73150  0.36780  0.94730  Biso   1.000  H
  H66      1.0000 0.76850  0.63220  0.44730  Biso   1.000  H
  H67      1.0000 0.38220  0.98150  0.19730  Biso   1.000  H
  H68      1.0000 0.11780  0.01850  0.69730  Biso   1.000  H
  H69      1.0000 0.23150  0.86780  0.44730  Biso   1.000  H
  H70      1.0000 0.26850  0.13220  0.94730  Biso   1.000  H
  H71      1.0000 0.88220  0.48150  0.69730  Biso   1.000  H
  H72      1.0000 0.61780  0.51850  0.19730  Biso   1.000  H
  H73      1.0000 0.26850  0.63220  0.05270  Biso   1.000  H
  H74      1.0000 0.23150  0.36780  0.55270  Biso   1.000  H
  H75      1.0000 0.11780  0.51850  0.30270  Biso   1.000  H
  H76      1.0000 0.38220  0.48150  0.80270  Biso   1.000  H
  H77      1.0000 0.76850  0.13220  0.55270  Biso   1.000  H
  H78      1.0000 0.73150  0.86780  0.05270  Biso   1.000  H
  H79      1.0000 0.61780  0.01850  0.80270  Biso   1.000  H
  H80      1.0000 0.88220  0.98150  0.30270  Biso   1.000  H
  H81      1.0000 0.65770  0.37630  0.89220  Biso   1.000  H
  H82      1.0000 0.84230  0.62370  0.39220  Biso   1.000  H
  H83      1.0000 0.37370  0.90770  0.14220  Biso   1.000  H
  H84      1.0000 0.12630  0.09230  0.64220  Biso   1.000  H
  H85      1.0000 0.15770  0.87630  0.39220  Biso   1.000  H
  H86      1.0000 0.34230  0.12370  0.89220  Biso   1.000  H
  H87      1.0000 0.87370  0.40770  0.64220  Biso   1.000  H
  H88      1.0000 0.62630  0.59230  0.14220  Biso   1.000  H
  H89      1.0000 0.34230  0.62370  0.10780  Biso   1.000  H
  H90      1.0000 0.15770  0.37630  0.60780  Biso   1.000  H
  H91      1.0000 0.12630  0.59230  0.35780  Biso   1.000  H
  H92      1.0000 0.37370  0.40770  0.85780  Biso   1.000  H
  H93      1.0000 0.84230  0.12370  0.60780  Biso   1.000  H
  H94      1.0000 0.65770  0.87630  0.10780  Biso   1.000  H
  H95      1.0000 0.62630  0.09230  0.85780  Biso   1.000  H
  H96      1.0000 0.87370  0.90770  0.35780  Biso   1.000  H
  H97      1.0000 0.63870  0.37580  0.97450  Biso   1.000  H
  H98      1.0000 0.86130  0.62420  0.47450  Biso   1.000  H
  H99      1.0000 0.37420  0.88870  0.22450  Biso   1.000  H
  H100     1.0000 0.12580  0.11130  0.72450  Biso   1.000  H
  H101     1.0000 0.13870  0.87580  0.47450  Biso   1.000  H
  H102     1.0000 0.36130  0.12420  0.97450  Biso   1.000  H
  H103     1.0000 0.87420  0.38870  0.72450  Biso   1.000  H
  H104     1.0000 0.62580  0.61130  0.22450  Biso   1.000  H
  H105     1.0000 0.36130  0.62420  0.02550  Biso   1.000  H
  H106     1.0000 0.13870  0.37580  0.52550  Biso   1.000  H
  H107     1.0000 0.12580  0.61130  0.27550  Biso   1.000  H
  H108     1.0000 0.37420  0.38870  0.77550  Biso   1.000  H
  H109     1.0000 0.86130  0.12420  0.52550  Biso   1.000  H
  H110     1.0000 0.63870  0.87580  0.02550  Biso   1.000  H
  H111     1.0000 0.62580  0.11130  0.77550  Biso   1.000  H
  H112     1.0000 0.87420  0.88870  0.27550  Biso   1.000  H
  C65      1.0000 0.93810  0.43810  0.95880  Biso   1.000  C
  C66      1.0000 0.56190  0.56190  0.45880  Biso   1.000  C
  C67      1.0000 0.31190  0.18810  0.20880  Biso   1.000  C
  C68      1.0000 0.18810  0.81190  0.70880  Biso   1.000  C
  C69      1.0000 0.43810  0.93810  0.45880  Biso   1.000  C
  C70      1.0000 0.06190  0.06190  0.95880  Biso   1.000  C
  C71      1.0000 0.81190  0.68810  0.70880  Biso   1.000  C
  C72      1.0000 0.68810  0.31190  0.20880  Biso   1.000  C
  C73      1.0000 0.06190  0.56190  0.04120  Biso   1.000  C
  C74      1.0000 0.43810  0.43810  0.54120  Biso   1.000  C
  C75      1.0000 0.18810  0.31190  0.29120  Biso   1.000  C
  C76      1.0000 0.31190  0.68810  0.79120  Biso   1.000  C
  C77      1.0000 0.56190  0.06190  0.54120  Biso   1.000  C
  C78      1.0000 0.93810  0.93810  0.04120  Biso   1.000  C
  C79      1.0000 0.68810  0.81190  0.79120  Biso   1.000  C
  C80      1.0000 0.81190  0.18810  0.29120  Biso   1.000  C
  C81      1.0000 0.00870  0.42520  0.91620  Biso   1.000  C
  C82      1.0000 0.49130  0.57480  0.41620  Biso   1.000  C
  C83      1.0000 0.32480  0.25870  0.16620  Biso   1.000  C
  C84      1.0000 0.17520  0.74130  0.66620  Biso   1.000  C
  C85      1.0000 0.50870  0.92520  0.41620  Biso   1.000  C
  C86      1.0000 0.99130  0.07480  0.91620  Biso   1.000  C
  C87      1.0000 0.82480  0.75870  0.66620  Biso   1.000  C
  C88      1.0000 0.67520  0.24130  0.16620  Biso   1.000  C
  C89      1.0000 0.99130  0.57480  0.08380  Biso   1.000  C
  C90      1.0000 0.50870  0.42520  0.58380  Biso   1.000  C
  C91      1.0000 0.17520  0.24130  0.33380  Biso   1.000  C
  C92      1.0000 0.32480  0.75870  0.83380  Biso   1.000  C
  C93      1.0000 0.49130  0.07480  0.58380  Biso   1.000  C
  C94      1.0000 0.00870  0.92520  0.08380  Biso   1.000  C
  C95      1.0000 0.67520  0.74130  0.83380  Biso   1.000  C
  C96      1.0000 0.82480  0.25870  0.33380  Biso   1.000  C
  H113     1.0000 0.05490  0.40610  0.94580  Biso   1.000  H
  H114     1.0000 0.44510  0.59390  0.44580  Biso   1.000  H
  H115     1.0000 0.34390  0.30490  0.19580  Biso   1.000  H
  H116     1.0000 0.15610  0.69510  0.69580  Biso   1.000  H
  H117     1.0000 0.55490  0.90610  0.44580  Biso   1.000  H
  H118     1.0000 0.94510  0.09390  0.94580  Biso   1.000  H
  H119     1.0000 0.84390  0.80490  0.69580  Biso   1.000  H
  H120     1.0000 0.65610  0.19510  0.19580  Biso   1.000  H
  H121     1.0000 0.94510  0.59390  0.05420  Biso   1.000  H
  H122     1.0000 0.55490  0.40610  0.55420  Biso   1.000  H
  H123     1.0000 0.15610  0.19510  0.30420  Biso   1.000  H
  H124     1.0000 0.34390  0.80490  0.80420  Biso   1.000  H
  H125     1.0000 0.44510  0.09390  0.55420  Biso   1.000  H
  H126     1.0000 0.05490  0.90610  0.05420  Biso   1.000  H
  H127     1.0000 0.65610  0.69510  0.80420  Biso   1.000  H
  H128     1.0000 0.84390  0.30490  0.30420  Biso   1.000  H
  H129     1.0000 0.02510  0.47800  0.89430  Biso   1.000  H
  H130     1.0000 0.47490  0.52200  0.39430  Biso   1.000  H
  H131     1.0000 0.27200  0.27510  0.14430  Biso   1.000  H
  H132     1.0000 0.22800  0.72490  0.64430  Biso   1.000  H
  H133     1.0000 0.52510  0.97800  0.39430  Biso   1.000  H
  H134     1.0000 0.97490  0.02200  0.89430  Biso   1.000  H
  H135     1.0000 0.77200  0.77510  0.64430  Biso   1.000  H
  H136     1.0000 0.72800  0.22490  0.14430  Biso   1.000  H
  H137     1.0000 0.97490  0.52200  0.10570  Biso   1.000  H
  H138     1.0000 0.52510  0.47800  0.60570  Biso   1.000  H
  H139     1.0000 0.22800  0.22490  0.35570  Biso   1.000  H
  H140     1.0000 0.27200  0.77510  0.85570  Biso   1.000  H
  H141     1.0000 0.47490  0.02200  0.60570  Biso   1.000  H
  H142     1.0000 0.02510  0.97800  0.10570  Biso   1.000  H
  H143     1.0000 0.72800  0.72490  0.85570  Biso   1.000  H
  H144     1.0000 0.77200  0.27510  0.35570  Biso   1.000  H
  C97      1.0000 0.99290  0.36510  0.86190  Biso   1.000  C
  C98      1.0000 0.50710  0.63490  0.36190  Biso   1.000  C
  C99      1.0000 0.38490  0.24290  0.11190  Biso   1.000  C
  C100     1.0000 0.11510  0.75710  0.61190  Biso   1.000  C
  C101     1.0000 0.49290  0.86510  0.36190  Biso   1.000  C
  C102     1.0000 0.00710  0.13490  0.86190  Biso   1.000  C
  C103     1.0000 0.88490  0.74290  0.61190  Biso   1.000  C
  C104     1.0000 0.61510  0.25710  0.11190  Biso   1.000  C
  C105     1.0000 0.00710  0.63490  0.13810  Biso   1.000  C
  C106     1.0000 0.49290  0.36510  0.63810  Biso   1.000  C
  C107     1.0000 0.11510  0.25710  0.38810  Biso   1.000  C
  C108     1.0000 0.38490  0.74290  0.88810  Biso   1.000  C
  C109     1.0000 0.50710  0.13490  0.63810  Biso   1.000  C
  C110     1.0000 0.99290  0.86510  0.13810  Biso   1.000  C
  C111     1.0000 0.61510  0.75710  0.88810  Biso   1.000  C
  C112     1.0000 0.88490  0.24290  0.38810  Biso   1.000  C
  H145     1.0000 0.94760  0.38500  0.83160  Biso   1.000  H
  H146     1.0000 0.55240  0.61500  0.33160  Biso   1.000  H
  H147     1.0000 0.36500  0.19760  0.08160  Biso   1.000  H
  H148     1.0000 0.13500  0.80240  0.58160  Biso   1.000  H
  H149     1.0000 0.44760  0.88500  0.33160  Biso   1.000  H
  H150     1.0000 0.05240  0.11500  0.83160  Biso   1.000  H
  H151     1.0000 0.86500  0.69760  0.58160  Biso   1.000  H
  H152     1.0000 0.63500  0.30240  0.08160  Biso   1.000  H
  H153     1.0000 0.05240  0.61500  0.16840  Biso   1.000  H
  H154     1.0000 0.44760  0.38500  0.66840  Biso   1.000  H
  H155     1.0000 0.13500  0.30240  0.41840  Biso   1.000  H
  H156     1.0000 0.36500  0.69760  0.91840  Biso   1.000  H
  H157     1.0000 0.55240  0.11500  0.66840  Biso   1.000  H
  H158     1.0000 0.94760  0.88500  0.16840  Biso   1.000  H
  H159     1.0000 0.63500  0.80240  0.91840  Biso   1.000  H
  H160     1.0000 0.86500  0.19760  0.41840  Biso   1.000  H
  H161     1.0000 0.97490  0.31290  0.88390  Biso   1.000  H
  H162     1.0000 0.52510  0.68710  0.38390  Biso   1.000  H
  H163     1.0000 0.43710  0.22490  0.13390  Biso   1.000  H
  H164     1.0000 0.06290  0.77510  0.63390  Biso   1.000  H
  H165     1.0000 0.47490  0.81290  0.38390  Biso   1.000  H
  H166     1.0000 0.02510  0.18710  0.88390  Biso   1.000  H
  H167     1.0000 0.93710  0.72490  0.63390  Biso   1.000  H
  H168     1.0000 0.56290  0.27510  0.13390  Biso   1.000  H
  H169     1.0000 0.02510  0.68710  0.11610  Biso   1.000  H
  H170     1.0000 0.47490  0.31290  0.61610  Biso   1.000  H
  H171     1.0000 0.06290  0.27510  0.36610  Biso   1.000  H
  H172     1.0000 0.43710  0.72490  0.86610  Biso   1.000  H
  H173     1.0000 0.52510  0.18710  0.61610  Biso   1.000  H
  H174     1.0000 0.97490  0.81290  0.11610  Biso   1.000  H
  H175     1.0000 0.56290  0.77510  0.86610  Biso   1.000  H
  H176     1.0000 0.93710  0.22490  0.36610  Biso   1.000  H
  C113     1.0000 0.06610  0.34960  0.81870  Biso   1.000  C
  C114     1.0000 0.43390  0.65040  0.31870  Biso   1.000  C
  C115     1.0000 0.40040  0.31610  0.06870  Biso   1.000  C
  C116     1.0000 0.09960  0.68390  0.56870  Biso   1.000  C
  C117     1.0000 0.56610  0.84960  0.31870  Biso   1.000  C
  C118     1.0000 0.93390  0.15040  0.81870  Biso   1.000  C
  C119     1.0000 0.90040  0.81610  0.56870  Biso   1.000  C
  C120     1.0000 0.59960  0.18390  0.06870  Biso   1.000  C
  C121     1.0000 0.93390  0.65040  0.18130  Biso   1.000  C
  C122     1.0000 0.56610  0.34960  0.68130  Biso   1.000  C
  C123     1.0000 0.09960  0.18390  0.43130  Biso   1.000  C
  C124     1.0000 0.40040  0.81610  0.93130  Biso   1.000  C
  C125     1.0000 0.43390  0.15040  0.68130  Biso   1.000  C
  C126     1.0000 0.06610  0.84960  0.18130  Biso   1.000  C
  C127     1.0000 0.59960  0.68390  0.93130  Biso   1.000  C
  C128     1.0000 0.90040  0.31610  0.43130  Biso   1.000  C
  H177     1.0000 0.08590  0.40170  0.79900  Biso   1.000  H
  H178     1.0000 0.41410  0.59830  0.29900  Biso   1.000  H
  H179     1.0000 0.34830  0.33590  0.04900  Biso   1.000  H
  H180     1.0000 0.15170  0.66410  0.54900  Biso   1.000  H
  H181     1.0000 0.58590  0.90170  0.29900  Biso   1.000  H
  H182     1.0000 0.91410  0.09830  0.79900  Biso   1.000  H
  H183     1.0000 0.84830  0.83590  0.54900  Biso   1.000  H
  H184     1.0000 0.65170  0.16410  0.04900  Biso   1.000  H
  H185     1.0000 0.91410  0.59830  0.20100  Biso   1.000  H
  H186     1.0000 0.58590  0.40170  0.70100  Biso   1.000  H
  H187     1.0000 0.15170  0.16410  0.45100  Biso   1.000  H
  H188     1.0000 0.34830  0.83590  0.95100  Biso   1.000  H
  H189     1.0000 0.41410  0.09830  0.70100  Biso   1.000  H
  H190     1.0000 0.08590  0.90170  0.20100  Biso   1.000  H
  H191     1.0000 0.65170  0.66410  0.95100  Biso   1.000  H
  H192     1.0000 0.84830  0.33590  0.45100  Biso   1.000  H
  H193     1.0000 0.05190  0.31190  0.78050  Biso   1.000  H
  H194     1.0000 0.44810  0.68810  0.28050  Biso   1.000  H
  H195     1.0000 0.43810  0.30190  0.03050  Biso   1.000  H
  H196     1.0000 0.06190  0.69810  0.53050  Biso   1.000  H
  H197     1.0000 0.55190  0.81190  0.28050  Biso   1.000  H
  H198     1.0000 0.94810  0.18810  0.78050  Biso   1.000  H
  H199     1.0000 0.93810  0.80190  0.53050  Biso   1.000  H
  H200     1.0000 0.56190  0.19810  0.03050  Biso   1.000  H
  H201     1.0000 0.94810  0.68810  0.21950  Biso   1.000  H
  H202     1.0000 0.55190  0.31190  0.71950  Biso   1.000  H
  H203     1.0000 0.06190  0.19810  0.46950  Biso   1.000  H
  H204     1.0000 0.43810  0.80190  0.96950  Biso   1.000  H
  H205     1.0000 0.44810  0.18810  0.71950  Biso   1.000  H
  H206     1.0000 0.05190  0.81190  0.21950  Biso   1.000  H
  H207     1.0000 0.56190  0.69810  0.96950  Biso   1.000  H
  H208     1.0000 0.93810  0.30190  0.46950  Biso   1.000  H
  H209     1.0000 0.10940  0.32500  0.84770  Biso   1.000  H
  H210     1.0000 0.39060  0.67500  0.34770  Biso   1.000  H
  H211     1.0000 0.42500  0.35940  0.09770  Biso   1.000  H
  H212     1.0000 0.07500  0.64060  0.59770  Biso   1.000  H
  H213     1.0000 0.60940  0.82500  0.34770  Biso   1.000  H
  H214     1.0000 0.89060  0.17500  0.84770  Biso   1.000  H
  H215     1.0000 0.92500  0.85940  0.59770  Biso   1.000  H
  H216     1.0000 0.57500  0.14060  0.09770  Biso   1.000  H
  H217     1.0000 0.89060  0.67500  0.15230  Biso   1.000  H
  H218     1.0000 0.60940  0.32500  0.65230  Biso   1.000  H
  H219     1.0000 0.07500  0.14060  0.40230  Biso   1.000  H
  H220     1.0000 0.42500  0.85940  0.90230  Biso   1.000  H
  H221     1.0000 0.39060  0.17500  0.65230  Biso   1.000  H
  H222     1.0000 0.10940  0.82500  0.15230  Biso   1.000  H
  H223     1.0000 0.57500  0.64060  0.90230  Biso   1.000  H
  H224     1.0000 0.92500  0.35940  0.40230  Biso   1.000  H
