data_image0
_cell_length_a       18.582
_cell_length_b       31.73
_cell_length_c       10.249
_cell_angle_alpha    90
_cell_angle_beta     90
_cell_angle_gamma    90

_symmetry_space_group_name_H-M    "P 1"
_symmetry_int_tables_number       1

loop_
  _symmetry_equiv_pos_as_xyz
  'x, y, z'

loop_
  _atom_site_label
  _atom_site_occupancy
  _atom_site_fract_x
  _atom_site_fract_y
  _atom_site_fract_z
  _atom_site_thermal_displace_type
  _atom_site_B_iso_or_equiv
  _atom_site_type_symbol
  C1       1.0000 0.32460  0.05030  0.01690  Biso   1.000  C
  C2       1.0000 0.67540  0.94970  0.01690  Biso   1.000  C
  C3       1.0000 0.82460  0.44970  0.01690  Biso   1.000  C
  C4       1.0000 0.17540  0.55030  0.01690  Biso   1.000  C
  C5       1.0000 0.82460  0.55030  0.51690  Biso   1.000  C
  C6       1.0000 0.17540  0.44970  0.51690  Biso   1.000  C
  C7       1.0000 0.32460  0.94970  0.51690  Biso   1.000  C
  C8       1.0000 0.67540  0.05030  0.51690  Biso   1.000  C
  H1       1.0000 0.30580  0.02740  0.06210  Biso   1.000  H
  H2       1.0000 0.69420  0.97260  0.06210  Biso   1.000  H
  H3       1.0000 0.80580  0.47260  0.06210  Biso   1.000  H
  H4       1.0000 0.19420  0.52740  0.06210  Biso   1.000  H
  H5       1.0000 0.80580  0.52740  0.56210  Biso   1.000  H
  H6       1.0000 0.19420  0.47260  0.56210  Biso   1.000  H
  H7       1.0000 0.30580  0.97260  0.56210  Biso   1.000  H
  H8       1.0000 0.69420  0.02740  0.56210  Biso   1.000  H
  C9       1.0000 0.28050  0.07010  0.92580  Biso   1.000  C
  C10      1.0000 0.71950  0.92990  0.92580  Biso   1.000  C
  C11      1.0000 0.78050  0.42990  0.92580  Biso   1.000  C
  C12      1.0000 0.21950  0.57010  0.92580  Biso   1.000  C
  C13      1.0000 0.78050  0.57010  0.42580  Biso   1.000  C
  C14      1.0000 0.21950  0.42990  0.42580  Biso   1.000  C
  C15      1.0000 0.28050  0.92990  0.42580  Biso   1.000  C
  C16      1.0000 0.71950  0.07010  0.42580  Biso   1.000  C
  H9       1.0000 0.23370  0.06060  0.91250  Biso   1.000  H
  H10      1.0000 0.76630  0.93940  0.91250  Biso   1.000  H
  H11      1.0000 0.73370  0.43940  0.91250  Biso   1.000  H
  H12      1.0000 0.26630  0.56060  0.91250  Biso   1.000  H
  H13      1.0000 0.73370  0.56060  0.41250  Biso   1.000  H
  H14      1.0000 0.26630  0.43940  0.41250  Biso   1.000  H
  H15      1.0000 0.23370  0.93940  0.41250  Biso   1.000  H
  H16      1.0000 0.76630  0.06060  0.41250  Biso   1.000  H
  C17      1.0000 0.30600  0.10350  0.85650  Biso   1.000  C
  C18      1.0000 0.69400  0.89650  0.85650  Biso   1.000  C
  C19      1.0000 0.80600  0.39650  0.85650  Biso   1.000  C
  C20      1.0000 0.19400  0.60350  0.85650  Biso   1.000  C
  C21      1.0000 0.80600  0.60350  0.35650  Biso   1.000  C
  C22      1.0000 0.19400  0.39650  0.35650  Biso   1.000  C
  C23      1.0000 0.30600  0.89650  0.35650  Biso   1.000  C
  C24      1.0000 0.69400  0.10350  0.35650  Biso   1.000  C
  C25      1.0000 0.37590  0.11610  0.88590  Biso   1.000  C
  C26      1.0000 0.62410  0.88390  0.88590  Biso   1.000  C
  C27      1.0000 0.87590  0.38390  0.88590  Biso   1.000  C
  C28      1.0000 0.12410  0.61610  0.88590  Biso   1.000  C
  C29      1.0000 0.87590  0.61610  0.38590  Biso   1.000  C
  C30      1.0000 0.12410  0.38390  0.38590  Biso   1.000  C
  C31      1.0000 0.37590  0.88390  0.38590  Biso   1.000  C
  C32      1.0000 0.62410  0.11610  0.38590  Biso   1.000  C
  H17      1.0000 0.39660  0.13890  0.84260  Biso   1.000  H
  H18      1.0000 0.60340  0.86110  0.84260  Biso   1.000  H
  H19      1.0000 0.89660  0.36110  0.84260  Biso   1.000  H
  H20      1.0000 0.10340  0.63890  0.84260  Biso   1.000  H
  H21      1.0000 0.89660  0.63890  0.34260  Biso   1.000  H
  H22      1.0000 0.10340  0.36110  0.34260  Biso   1.000  H
  H23      1.0000 0.39660  0.86110  0.34260  Biso   1.000  H
  H24      1.0000 0.60340  0.13890  0.34260  Biso   1.000  H
  C33      1.0000 0.41360  0.09480  0.97870  Biso   1.000  C
  C34      1.0000 0.58640  0.90520  0.97870  Biso   1.000  C
  C35      1.0000 0.91360  0.40520  0.97870  Biso   1.000  C
  C36      1.0000 0.08640  0.59480  0.97870  Biso   1.000  C
  C37      1.0000 0.91360  0.59480  0.47870  Biso   1.000  C
  C38      1.0000 0.08640  0.40520  0.47870  Biso   1.000  C
  C39      1.0000 0.41360  0.90520  0.47870  Biso   1.000  C
  C40      1.0000 0.58640  0.09480  0.47870  Biso   1.000  C
  H25      1.0000 0.45970  0.10440  0.99850  Biso   1.000  H
  H26      1.0000 0.54030  0.89560  0.99850  Biso   1.000  H
  H27      1.0000 0.95970  0.39560  0.99850  Biso   1.000  H
  H28      1.0000 0.04030  0.60440  0.99850  Biso   1.000  H
  H29      1.0000 0.95970  0.60440  0.49850  Biso   1.000  H
  H30      1.0000 0.04030  0.39560  0.49850  Biso   1.000  H
  H31      1.0000 0.45970  0.89560  0.49850  Biso   1.000  H
  H32      1.0000 0.54030  0.10440  0.49850  Biso   1.000  H
  C41      1.0000 0.21400  0.10290  0.68370  Biso   1.000  C
  C42      1.0000 0.78600  0.89710  0.68370  Biso   1.000  C
  C43      1.0000 0.71400  0.39710  0.68370  Biso   1.000  C
  C44      1.0000 0.28600  0.60290  0.68370  Biso   1.000  C
  C45      1.0000 0.71400  0.60290  0.18370  Biso   1.000  C
  C46      1.0000 0.28600  0.39710  0.18370  Biso   1.000  C
  C47      1.0000 0.21400  0.89710  0.18370  Biso   1.000  C
  C48      1.0000 0.78600  0.10290  0.18370  Biso   1.000  C
  C49      1.0000 0.22590  0.06250  0.64790  Biso   1.000  C
  C50      1.0000 0.77410  0.93750  0.64790  Biso   1.000  C
  C51      1.0000 0.72590  0.43750  0.64790  Biso   1.000  C
  C52      1.0000 0.27410  0.56250  0.64790  Biso   1.000  C
  C53      1.0000 0.72590  0.56250  0.14790  Biso   1.000  C
  C54      1.0000 0.27410  0.43750  0.14790  Biso   1.000  C
  C55      1.0000 0.22590  0.93750  0.14790  Biso   1.000  C
  C56      1.0000 0.77410  0.06250  0.14790  Biso   1.000  C
  H33      1.0000 0.26700  0.04850  0.67640  Biso   1.000  H
  H34      1.0000 0.73300  0.95150  0.67640  Biso   1.000  H
  H35      1.0000 0.76700  0.45150  0.67640  Biso   1.000  H
  H36      1.0000 0.23300  0.54850  0.67640  Biso   1.000  H
  H37      1.0000 0.76700  0.54850  0.17640  Biso   1.000  H
  H38      1.0000 0.23300  0.45150  0.17640  Biso   1.000  H
  H39      1.0000 0.26700  0.95150  0.17640  Biso   1.000  H
  H40      1.0000 0.73300  0.04850  0.17640  Biso   1.000  H
  C57      1.0000 0.17720  0.04210  0.56950  Biso   1.000  C
  C58      1.0000 0.82280  0.95790  0.56950  Biso   1.000  C
  C59      1.0000 0.67720  0.45790  0.56950  Biso   1.000  C
  C60      1.0000 0.32280  0.54210  0.56950  Biso   1.000  C
  C61      1.0000 0.67720  0.54210  0.06950  Biso   1.000  C
  C62      1.0000 0.32280  0.45790  0.06950  Biso   1.000  C
  C63      1.0000 0.17720  0.95790  0.06950  Biso   1.000  C
  C64      1.0000 0.82280  0.04210  0.06950  Biso   1.000  C
  H41      1.0000 0.18620  0.01420  0.54760  Biso   1.000  H
  H42      1.0000 0.81380  0.98580  0.54760  Biso   1.000  H
  H43      1.0000 0.68620  0.48580  0.54760  Biso   1.000  H
  H44      1.0000 0.31380  0.51420  0.54760  Biso   1.000  H
  H45      1.0000 0.68620  0.51420  0.04760  Biso   1.000  H
  H46      1.0000 0.31380  0.48580  0.04760  Biso   1.000  H
  H47      1.0000 0.18620  0.98580  0.04760  Biso   1.000  H
  H48      1.0000 0.81380  0.01420  0.04760  Biso   1.000  H
  C65      1.0000 0.10630  0.09970  0.55950  Biso   1.000  C
  C66      1.0000 0.89370  0.90030  0.55950  Biso   1.000  C
  C67      1.0000 0.60630  0.40030  0.55950  Biso   1.000  C
  C68      1.0000 0.39370  0.59970  0.55950  Biso   1.000  C
  C69      1.0000 0.60630  0.59970  0.05950  Biso   1.000  C
  C70      1.0000 0.39370  0.40030  0.05950  Biso   1.000  C
  C71      1.0000 0.10630  0.90030  0.05950  Biso   1.000  C
  C72      1.0000 0.89370  0.09970  0.05950  Biso   1.000  C
  H49      1.0000 0.06480  0.11310  0.53040  Biso   1.000  H
  H50      1.0000 0.93520  0.88690  0.53040  Biso   1.000  H
  H51      1.0000 0.56480  0.38690  0.53040  Biso   1.000  H
  H52      1.0000 0.43520  0.61310  0.53040  Biso   1.000  H
  H53      1.0000 0.56480  0.61310  0.03040  Biso   1.000  H
  H54      1.0000 0.43520  0.38690  0.03040  Biso   1.000  H
  H55      1.0000 0.06480  0.88690  0.03040  Biso   1.000  H
  H56      1.0000 0.93520  0.11310  0.03040  Biso   1.000  H
  C73      1.0000 0.15240  0.12230  0.63860  Biso   1.000  C
  C74      1.0000 0.84760  0.87770  0.63860  Biso   1.000  C
  C75      1.0000 0.65240  0.37770  0.63860  Biso   1.000  C
  C76      1.0000 0.34760  0.62230  0.63860  Biso   1.000  C
  C77      1.0000 0.65240  0.62230  0.13860  Biso   1.000  C
  C78      1.0000 0.34760  0.37770  0.13860  Biso   1.000  C
  C79      1.0000 0.15240  0.87770  0.13860  Biso   1.000  C
  C80      1.0000 0.84760  0.12230  0.13860  Biso   1.000  C
  H57      1.0000 0.14220  0.15000  0.66110  Biso   1.000  H
  H58      1.0000 0.85780  0.85000  0.66110  Biso   1.000  H
  H59      1.0000 0.64220  0.35000  0.66110  Biso   1.000  H
  H60      1.0000 0.35780  0.65000  0.66110  Biso   1.000  H
  H61      1.0000 0.64220  0.65000  0.16110  Biso   1.000  H
  H62      1.0000 0.35780  0.35000  0.16110  Biso   1.000  H
  H63      1.0000 0.14220  0.85000  0.16110  Biso   1.000  H
  H64      1.0000 0.85780  0.15000  0.16110  Biso   1.000  H
  C81      1.0000 0.28200  0.16804  0.72800  Biso   1.000  C
  C82      1.0000 0.71800  0.83196  0.72800  Biso   1.000  C
  C83      1.0000 0.78200  0.33196  0.72800  Biso   1.000  C
  C84      1.0000 0.21800  0.66804  0.72800  Biso   1.000  C
  C85      1.0000 0.78200  0.66804  0.22800  Biso   1.000  C
  C86      1.0000 0.21800  0.33196  0.22800  Biso   1.000  C
  C87      1.0000 0.28200  0.83196  0.22800  Biso   1.000  C
  C88      1.0000 0.71800  0.16804  0.22800  Biso   1.000  C
  C89      1.0000 0.28600  0.19930  0.82460  Biso   1.000  C
  C90      1.0000 0.71400  0.80070  0.82460  Biso   1.000  C
  C91      1.0000 0.78600  0.30070  0.82460  Biso   1.000  C
  C92      1.0000 0.21400  0.69930  0.82460  Biso   1.000  C
  C93      1.0000 0.78600  0.69930  0.32460  Biso   1.000  C
  C94      1.0000 0.21400  0.30070  0.32460  Biso   1.000  C
  C95      1.0000 0.28600  0.80070  0.32460  Biso   1.000  C
  C96      1.0000 0.71400  0.19930  0.32460  Biso   1.000  C
  H65      1.0000 0.27580  0.19270  0.91100  Biso   1.000  H
  H66      1.0000 0.72420  0.80730  0.91100  Biso   1.000  H
  H67      1.0000 0.77580  0.30730  0.91100  Biso   1.000  H
  H68      1.0000 0.22420  0.69270  0.91100  Biso   1.000  H
  H69      1.0000 0.77580  0.69270  0.41100  Biso   1.000  H
  H70      1.0000 0.22420  0.30730  0.41100  Biso   1.000  H
  H71      1.0000 0.27580  0.80730  0.41100  Biso   1.000  H
  H72      1.0000 0.72420  0.19270  0.41100  Biso   1.000  H
  C97      1.0000 0.30490  0.23920  0.79190  Biso   1.000  C
  C98      1.0000 0.69510  0.76080  0.79190  Biso   1.000  C
  C99      1.0000 0.80490  0.26080  0.79190  Biso   1.000  C
  C100     1.0000 0.19510  0.73920  0.79190  Biso   1.000  C
  C101     1.0000 0.80490  0.73920  0.29190  Biso   1.000  C
  C102     1.0000 0.19510  0.26080  0.29190  Biso   1.000  C
  C103     1.0000 0.30490  0.76080  0.29190  Biso   1.000  C
  C104     1.0000 0.69510  0.23920  0.29190  Biso   1.000  C
  H73      1.0000 0.30870  0.25960  0.85680  Biso   1.000  H
  H74      1.0000 0.69130  0.74040  0.85680  Biso   1.000  H
  H75      1.0000 0.80870  0.24040  0.85680  Biso   1.000  H
  H76      1.0000 0.19130  0.75960  0.85680  Biso   1.000  H
  H77      1.0000 0.80870  0.75960  0.35680  Biso   1.000  H
  H78      1.0000 0.19130  0.24040  0.35680  Biso   1.000  H
  H79      1.0000 0.30870  0.74040  0.35680  Biso   1.000  H
  H80      1.0000 0.69130  0.25960  0.35680  Biso   1.000  H
  C105     1.0000 0.31870  0.25022  0.66330  Biso   1.000  C
  C106     1.0000 0.68130  0.74978  0.66330  Biso   1.000  C
  C107     1.0000 0.81870  0.24978  0.66330  Biso   1.000  C
  C108     1.0000 0.18130  0.75022  0.66330  Biso   1.000  C
  C109     1.0000 0.81870  0.75022  0.16330  Biso   1.000  C
  C110     1.0000 0.18130  0.24978  0.16330  Biso   1.000  C
  C111     1.0000 0.31870  0.74978  0.16330  Biso   1.000  C
  C112     1.0000 0.68130  0.25022  0.16330  Biso   1.000  C
  C113     1.0000 0.31330  0.22000  0.56710  Biso   1.000  C
  C114     1.0000 0.68670  0.78000  0.56710  Biso   1.000  C
  C115     1.0000 0.81330  0.28000  0.56710  Biso   1.000  C
  C116     1.0000 0.18670  0.72000  0.56710  Biso   1.000  C
  C117     1.0000 0.81330  0.72000  0.06710  Biso   1.000  C
  C118     1.0000 0.18670  0.28000  0.06710  Biso   1.000  C
  C119     1.0000 0.31330  0.78000  0.06710  Biso   1.000  C
  C120     1.0000 0.68670  0.22000  0.06710  Biso   1.000  C
  H81      1.0000 0.32130  0.22710  0.48030  Biso   1.000  H
  H82      1.0000 0.67870  0.77290  0.48030  Biso   1.000  H
  H83      1.0000 0.82130  0.27290  0.48030  Biso   1.000  H
  H84      1.0000 0.17870  0.72710  0.48030  Biso   1.000  H
  H85      1.0000 0.82130  0.72710  0.98030  Biso   1.000  H
  H86      1.0000 0.17870  0.27290  0.98030  Biso   1.000  H
  H87      1.0000 0.32130  0.77290  0.98030  Biso   1.000  H
  H88      1.0000 0.67870  0.22710  0.98030  Biso   1.000  H
  C121     1.0000 0.29580  0.17860  0.60150  Biso   1.000  C
  C122     1.0000 0.70420  0.82140  0.60150  Biso   1.000  C
  C123     1.0000 0.79580  0.32140  0.60150  Biso   1.000  C
  C124     1.0000 0.20420  0.67860  0.60150  Biso   1.000  C
  C125     1.0000 0.79580  0.67860  0.10150  Biso   1.000  C
  C126     1.0000 0.20420  0.32140  0.10150  Biso   1.000  C
  C127     1.0000 0.29580  0.82140  0.10150  Biso   1.000  C
  C128     1.0000 0.70420  0.17860  0.10150  Biso   1.000  C
  H89      1.0000 0.29360  0.15790  0.53710  Biso   1.000  H
  H90      1.0000 0.70640  0.84210  0.53710  Biso   1.000  H
  H91      1.0000 0.79360  0.34210  0.53710  Biso   1.000  H
  H92      1.0000 0.20640  0.65790  0.53710  Biso   1.000  H
  H93      1.0000 0.79360  0.65790  0.03710  Biso   1.000  H
  H94      1.0000 0.20640  0.34210  0.03710  Biso   1.000  H
  H95      1.0000 0.29360  0.84210  0.03710  Biso   1.000  H
  H96      1.0000 0.70640  0.15790  0.03710  Biso   1.000  H
  C129     1.0000 0.39790  0.29880  0.55260  Biso   1.000  C
  C130     1.0000 0.60210  0.70120  0.55260  Biso   1.000  C
  C131     1.0000 0.89790  0.20120  0.55260  Biso   1.000  C
  C132     1.0000 0.10210  0.79880  0.55260  Biso   1.000  C
  C133     1.0000 0.89790  0.79880  0.05260  Biso   1.000  C
  C134     1.0000 0.10210  0.20120  0.05260  Biso   1.000  C
  C135     1.0000 0.39790  0.70120  0.05260  Biso   1.000  C
  C136     1.0000 0.60210  0.29880  0.05260  Biso   1.000  C
  C137     1.0000 0.40310  0.33310  0.46490  Biso   1.000  C
  C138     1.0000 0.59690  0.66690  0.46490  Biso   1.000  C
  C139     1.0000 0.90310  0.16690  0.46490  Biso   1.000  C
  C140     1.0000 0.09690  0.83310  0.46490  Biso   1.000  C
  C141     1.0000 0.90310  0.83310  0.96490  Biso   1.000  C
  C142     1.0000 0.09690  0.16690  0.96490  Biso   1.000  C
  C143     1.0000 0.40310  0.66690  0.96490  Biso   1.000  C
  C144     1.0000 0.59690  0.33310  0.96490  Biso   1.000  C
  H97      1.0000 0.36600  0.35260  0.45610  Biso   1.000  H
  H98      1.0000 0.63400  0.64740  0.45610  Biso   1.000  H
  H99      1.0000 0.86600  0.14740  0.45610  Biso   1.000  H
  H100     1.0000 0.13400  0.85260  0.45610  Biso   1.000  H
  H101     1.0000 0.86600  0.85260  0.95610  Biso   1.000  H
  H102     1.0000 0.13400  0.14740  0.95610  Biso   1.000  H
  H103     1.0000 0.36600  0.64740  0.95610  Biso   1.000  H
  H104     1.0000 0.63400  0.35260  0.95610  Biso   1.000  H
  C145     1.0000 0.46680  0.33650  0.39190  Biso   1.000  C
  C146     1.0000 0.53320  0.66350  0.39190  Biso   1.000  C
  C147     1.0000 0.96680  0.16350  0.39190  Biso   1.000  C
  C148     1.0000 0.03320  0.83650  0.39190  Biso   1.000  C
  C149     1.0000 0.96680  0.83650  0.89190  Biso   1.000  C
  C150     1.0000 0.03320  0.16350  0.89190  Biso   1.000  C
  C151     1.0000 0.46680  0.66350  0.89190  Biso   1.000  C
  C152     1.0000 0.53320  0.33650  0.89190  Biso   1.000  C
  H105     1.0000 0.47390  0.35930  0.33640  Biso   1.000  H
  H106     1.0000 0.52610  0.64070  0.33640  Biso   1.000  H
  H107     1.0000 0.97390  0.14070  0.33640  Biso   1.000  H
  H108     1.0000 0.02610  0.85930  0.33640  Biso   1.000  H
  H109     1.0000 0.97390  0.85930  0.83640  Biso   1.000  H
  H110     1.0000 0.02610  0.14070  0.83640  Biso   1.000  H
  H111     1.0000 0.47390  0.64070  0.83640  Biso   1.000  H
  H112     1.0000 0.52610  0.35930  0.83640  Biso   1.000  H
  C153     1.0000 0.51820  0.30570  0.40340  Biso   1.000  C
  C154     1.0000 0.48180  0.69430  0.40340  Biso   1.000  C
  C155     1.0000 0.01820  0.19430  0.40340  Biso   1.000  C
  C156     1.0000 0.98180  0.80570  0.40340  Biso   1.000  C
  C157     1.0000 0.01820  0.80570  0.90340  Biso   1.000  C
  C158     1.0000 0.98180  0.19430  0.90340  Biso   1.000  C
  C159     1.0000 0.51820  0.69430  0.90340  Biso   1.000  C
  C160     1.0000 0.48180  0.30570  0.90340  Biso   1.000  C
  H113     1.0000 0.55940  0.30680  0.35190  Biso   1.000  H
  H114     1.0000 0.44060  0.69320  0.35190  Biso   1.000  H
  H115     1.0000 0.05940  0.19320  0.35190  Biso   1.000  H
  H116     1.0000 0.94060  0.80680  0.35190  Biso   1.000  H
  H117     1.0000 0.05940  0.80680  0.85190  Biso   1.000  H
  H118     1.0000 0.94060  0.19320  0.85190  Biso   1.000  H
  H119     1.0000 0.55940  0.69320  0.85190  Biso   1.000  H
  H120     1.0000 0.44060  0.30680  0.85190  Biso   1.000  H
  C161     1.0000 0.50960  0.27520  0.48620  Biso   1.000  C
  C162     1.0000 0.49040  0.72480  0.48620  Biso   1.000  C
  C163     1.0000 0.00960  0.22480  0.48620  Biso   1.000  C
  C164     1.0000 0.99040  0.77520  0.48620  Biso   1.000  C
  C165     1.0000 0.00960  0.77520  0.98620  Biso   1.000  C
  C166     1.0000 0.99040  0.22480  0.98620  Biso   1.000  C
  C167     1.0000 0.50960  0.72480  0.98620  Biso   1.000  C
  C168     1.0000 0.49040  0.27520  0.98620  Biso   1.000  C
  H121     1.0000 0.54590  0.25510  0.49290  Biso   1.000  H
  H122     1.0000 0.45410  0.74490  0.49290  Biso   1.000  H
  H123     1.0000 0.04590  0.24490  0.49290  Biso   1.000  H
  H124     1.0000 0.95410  0.75510  0.49290  Biso   1.000  H
  H125     1.0000 0.04590  0.75510  0.99290  Biso   1.000  H
  H126     1.0000 0.95410  0.24490  0.99290  Biso   1.000  H
  H127     1.0000 0.54590  0.74490  0.99290  Biso   1.000  H
  H128     1.0000 0.45410  0.25510  0.99290  Biso   1.000  H
  C169     1.0000 0.29640  0.32580  0.67930  Biso   1.000  C
  C170     1.0000 0.70360  0.67420  0.67930  Biso   1.000  C
  C171     1.0000 0.79640  0.17420  0.67930  Biso   1.000  C
  C172     1.0000 0.20360  0.82580  0.67930  Biso   1.000  C
  C173     1.0000 0.79640  0.82580  0.17930  Biso   1.000  C
  C174     1.0000 0.20360  0.17420  0.17930  Biso   1.000  C
  C175     1.0000 0.29640  0.67420  0.17930  Biso   1.000  C
  C176     1.0000 0.70360  0.32580  0.17930  Biso   1.000  C
  C177     1.0000 0.32720  0.36340  0.71330  Biso   1.000  C
  C178     1.0000 0.67280  0.63660  0.71330  Biso   1.000  C
  C179     1.0000 0.82720  0.13660  0.71330  Biso   1.000  C
  C180     1.0000 0.17280  0.86340  0.71330  Biso   1.000  C
  C181     1.0000 0.82720  0.86340  0.21330  Biso   1.000  C
  C182     1.0000 0.17280  0.13660  0.21330  Biso   1.000  C
  C183     1.0000 0.32720  0.63660  0.21330  Biso   1.000  C
  C184     1.0000 0.67280  0.36340  0.21330  Biso   1.000  C
  H129     1.0000 0.37640  0.36780  0.70310  Biso   1.000  H
  H130     1.0000 0.62360  0.63220  0.70310  Biso   1.000  H
  H131     1.0000 0.87640  0.13220  0.70310  Biso   1.000  H
  H132     1.0000 0.12360  0.86780  0.70310  Biso   1.000  H
  H133     1.0000 0.87640  0.86780  0.20310  Biso   1.000  H
  H134     1.0000 0.12360  0.13220  0.20310  Biso   1.000  H
  H135     1.0000 0.37640  0.63220  0.20310  Biso   1.000  H
  H136     1.0000 0.62360  0.36780  0.20310  Biso   1.000  H
  C185     1.0000 0.28270  0.39500  0.76400  Biso   1.000  C
  C186     1.0000 0.71730  0.60500  0.76400  Biso   1.000  C
  C187     1.0000 0.78270  0.10500  0.76400  Biso   1.000  C
  C188     1.0000 0.21730  0.89500  0.76400  Biso   1.000  C
  C189     1.0000 0.78270  0.89500  0.26400  Biso   1.000  C
  C190     1.0000 0.21730  0.10500  0.26400  Biso   1.000  C
  C191     1.0000 0.28270  0.60500  0.26400  Biso   1.000  C
  C192     1.0000 0.71730  0.39500  0.26400  Biso   1.000  C
  H137     1.0000 0.30250  0.42100  0.78650  Biso   1.000  H
  H138     1.0000 0.69750  0.57900  0.78650  Biso   1.000  H
  H139     1.0000 0.80250  0.07900  0.78650  Biso   1.000  H
  H140     1.0000 0.19750  0.92100  0.78650  Biso   1.000  H
  H141     1.0000 0.80250  0.92100  0.28650  Biso   1.000  H
  H142     1.0000 0.19750  0.07900  0.28650  Biso   1.000  H
  H143     1.0000 0.30250  0.57900  0.28650  Biso   1.000  H
  H144     1.0000 0.69750  0.42100  0.28650  Biso   1.000  H
  C193     1.0000 0.21140  0.38850  0.78080  Biso   1.000  C
  C194     1.0000 0.78860  0.61150  0.78080  Biso   1.000  C
  C195     1.0000 0.71140  0.11150  0.78080  Biso   1.000  C
  C196     1.0000 0.28860  0.88850  0.78080  Biso   1.000  C
  C197     1.0000 0.71140  0.88850  0.28080  Biso   1.000  C
  C198     1.0000 0.28860  0.11150  0.28080  Biso   1.000  C
  C199     1.0000 0.21140  0.61150  0.28080  Biso   1.000  C
  C200     1.0000 0.78860  0.38850  0.28080  Biso   1.000  C
  H145     1.0000 0.18210  0.40930  0.81640  Biso   1.000  H
  H146     1.0000 0.81790  0.59070  0.81640  Biso   1.000  H
  H147     1.0000 0.68210  0.09070  0.81640  Biso   1.000  H
  H148     1.0000 0.31790  0.90930  0.81640  Biso   1.000  H
  H149     1.0000 0.68210  0.90930  0.31640  Biso   1.000  H
  H150     1.0000 0.31790  0.09070  0.31640  Biso   1.000  H
  H151     1.0000 0.18210  0.59070  0.31640  Biso   1.000  H
  H152     1.0000 0.81790  0.40930  0.31640  Biso   1.000  H
  C201     1.0000 0.18360  0.35080  0.74430  Biso   1.000  C
  C202     1.0000 0.81640  0.64920  0.74430  Biso   1.000  C
  C203     1.0000 0.68360  0.14920  0.74430  Biso   1.000  C
  C204     1.0000 0.31640  0.85080  0.74430  Biso   1.000  C
  C205     1.0000 0.68360  0.85080  0.24430  Biso   1.000  C
  C206     1.0000 0.31640  0.14920  0.24430  Biso   1.000  C
  C207     1.0000 0.18360  0.64920  0.24430  Biso   1.000  C
  C208     1.0000 0.81640  0.35080  0.24430  Biso   1.000  C
  H153     1.0000 0.13450  0.34640  0.75500  Biso   1.000  H
  H154     1.0000 0.86550  0.65360  0.75500  Biso   1.000  H
  H155     1.0000 0.63450  0.15360  0.75500  Biso   1.000  H
  H156     1.0000 0.36550  0.84640  0.75500  Biso   1.000  H
  H157     1.0000 0.63450  0.84640  0.25500  Biso   1.000  H
  H158     1.0000 0.36550  0.15360  0.25500  Biso   1.000  H
  H159     1.0000 0.13450  0.65360  0.25500  Biso   1.000  H
  H160     1.0000 0.86550  0.34640  0.25500  Biso   1.000  H
  C209     1.0000 0.42750  0.04180  0.47810  Biso   1.000  C
  C210     1.0000 0.57250  0.95820  0.47810  Biso   1.000  C
  C211     1.0000 0.92750  0.45820  0.47810  Biso   1.000  C
  C212     1.0000 0.07250  0.54180  0.47810  Biso   1.000  C
  C213     1.0000 0.92750  0.54180  0.97810  Biso   1.000  C
  C214     1.0000 0.07250  0.45820  0.97810  Biso   1.000  C
  C215     1.0000 0.42750  0.95820  0.97810  Biso   1.000  C
  C216     1.0000 0.57250  0.04180  0.97810  Biso   1.000  C
  C217     1.0000 0.06810  0.04300  0.09130  Biso   1.000  C
  C218     1.0000 0.93190  0.95700  0.09130  Biso   1.000  C
  C219     1.0000 0.56810  0.45700  0.09130  Biso   1.000  C
  C220     1.0000 0.43190  0.54300  0.09130  Biso   1.000  C
  C221     1.0000 0.56810  0.54300  0.59130  Biso   1.000  C
  C222     1.0000 0.43190  0.45700  0.59130  Biso   1.000  C
  C223     1.0000 0.06810  0.95700  0.59130  Biso   1.000  C
  C224     1.0000 0.93190  0.04300  0.59130  Biso   1.000  C
  Cu1      1.0000 0.44698  0.03181  0.18394  Biso   1.000  Cu
  Cu2      1.0000 0.55302  0.96819  0.18394  Biso   1.000  Cu
  Cu3      1.0000 0.94698  0.46819  0.18394  Biso   1.000  Cu
  Cu4      1.0000 0.05302  0.53181  0.18394  Biso   1.000  Cu
  Cu5      1.0000 0.94698  0.53181  0.68394  Biso   1.000  Cu
  Cu6      1.0000 0.05302  0.46819  0.68394  Biso   1.000  Cu
  Cu7      1.0000 0.44698  0.96819  0.68394  Biso   1.000  Cu
  Cu8      1.0000 0.55302  0.03181  0.68394  Biso   1.000  Cu
  Cu9      1.0000 0.05370  0.03123  0.38718  Biso   1.000  Cu
  Cu10     1.0000 0.94630  0.96877  0.38718  Biso   1.000  Cu
  Cu11     1.0000 0.55370  0.46877  0.38718  Biso   1.000  Cu
  Cu12     1.0000 0.44630  0.53123  0.38718  Biso   1.000  Cu
  Cu13     1.0000 0.55370  0.53123  0.88718  Biso   1.000  Cu
  Cu14     1.0000 0.44630  0.46877  0.88718  Biso   1.000  Cu
  Cu15     1.0000 0.05370  0.96877  0.88718  Biso   1.000  Cu
  Cu16     1.0000 0.94630  0.03123  0.88718  Biso   1.000  Cu
  N1       1.0000 0.38950  0.06150  0.04270  Biso   1.000  N
  N2       1.0000 0.61050  0.93850  0.04270  Biso   1.000  N
  N3       1.0000 0.88950  0.43850  0.04270  Biso   1.000  N
  N4       1.0000 0.11050  0.56150  0.04270  Biso   1.000  N
  N5       1.0000 0.88950  0.56150  0.54270  Biso   1.000  N
  N6       1.0000 0.11050  0.43850  0.54270  Biso   1.000  N
  N7       1.0000 0.38950  0.93850  0.54270  Biso   1.000  N
  N8       1.0000 0.61050  0.06150  0.54270  Biso   1.000  N
  N9       1.0000 0.26400  0.12459  0.76240  Biso   1.000  N
  N10      1.0000 0.73600  0.87541  0.76240  Biso   1.000  N
  N11      1.0000 0.76400  0.37541  0.76240  Biso   1.000  N
  N12      1.0000 0.23600  0.62459  0.76240  Biso   1.000  N
  N13      1.0000 0.76400  0.62459  0.26240  Biso   1.000  N
  N14      1.0000 0.23600  0.37541  0.26240  Biso   1.000  N
  N15      1.0000 0.26400  0.87541  0.26240  Biso   1.000  N
  N16      1.0000 0.73600  0.12459  0.26240  Biso   1.000  N
  N17      1.0000 0.11710  0.06025  0.52230  Biso   1.000  N
  N18      1.0000 0.88290  0.93975  0.52230  Biso   1.000  N
  N19      1.0000 0.61710  0.43975  0.52230  Biso   1.000  N
  N20      1.0000 0.38290  0.56025  0.52230  Biso   1.000  N
  N21      1.0000 0.61710  0.56025  0.02230  Biso   1.000  N
  N22      1.0000 0.38290  0.43975  0.02230  Biso   1.000  N
  N23      1.0000 0.11710  0.93975  0.02230  Biso   1.000  N
  N24      1.0000 0.88290  0.06025  0.02230  Biso   1.000  N
  N25      1.0000 0.33780  0.29204  0.63030  Biso   1.000  N
  N26      1.0000 0.66220  0.70796  0.63030  Biso   1.000  N
  N27      1.0000 0.83780  0.20796  0.63030  Biso   1.000  N
  N28      1.0000 0.16220  0.79204  0.63030  Biso   1.000  N
  N29      1.0000 0.83780  0.79204  0.13030  Biso   1.000  N
  N30      1.0000 0.16220  0.20796  0.13030  Biso   1.000  N
  N31      1.0000 0.33780  0.70796  0.13030  Biso   1.000  N
  N32      1.0000 0.66220  0.29204  0.13030  Biso   1.000  N
  N33      1.0000 0.45110  0.27080  0.56310  Biso   1.000  N
  N34      1.0000 0.54890  0.72920  0.56310  Biso   1.000  N
  N35      1.0000 0.95110  0.22920  0.56310  Biso   1.000  N
  N36      1.0000 0.04890  0.77080  0.56310  Biso   1.000  N
  N37      1.0000 0.95110  0.77080  0.06310  Biso   1.000  N
  N38      1.0000 0.04890  0.22920  0.06310  Biso   1.000  N
  N39      1.0000 0.45110  0.72920  0.06310  Biso   1.000  N
  N40      1.0000 0.54890  0.27080  0.06310  Biso   1.000  N
  N41      1.0000 0.22480  0.31830  0.69150  Biso   1.000  N
  N42      1.0000 0.77520  0.68170  0.69150  Biso   1.000  N
  N43      1.0000 0.72480  0.18170  0.69150  Biso   1.000  N
  N44      1.0000 0.27520  0.81830  0.69150  Biso   1.000  N
  N45      1.0000 0.72480  0.81830  0.19150  Biso   1.000  N
  N46      1.0000 0.27520  0.18170  0.19150  Biso   1.000  N
  N47      1.0000 0.22480  0.68170  0.19150  Biso   1.000  N
  N48      1.0000 0.77520  0.31830  0.19150  Biso   1.000  N
  N49      1.0000 0.42820  0.03980  0.36690  Biso   1.000  N
  N50      1.0000 0.57180  0.96020  0.36690  Biso   1.000  N
  N51      1.0000 0.92820  0.46020  0.36690  Biso   1.000  N
  N52      1.0000 0.07180  0.53980  0.36690  Biso   1.000  N
  N53      1.0000 0.92820  0.53980  0.86690  Biso   1.000  N
  N54      1.0000 0.07180  0.46020  0.86690  Biso   1.000  N
  N55      1.0000 0.42820  0.96020  0.86690  Biso   1.000  N
  N56      1.0000 0.57180  0.03980  0.86690  Biso   1.000  N
  N57      1.0000 0.06700  0.04220  0.20370  Biso   1.000  N
  N58      1.0000 0.93300  0.95780  0.20370  Biso   1.000  N
  N59      1.0000 0.56700  0.45780  0.20370  Biso   1.000  N
  N60      1.0000 0.43300  0.54220  0.20370  Biso   1.000  N
  N61      1.0000 0.56700  0.54220  0.70370  Biso   1.000  N
  N62      1.0000 0.43300  0.45780  0.70370  Biso   1.000  N
  N63      1.0000 0.06700  0.95780  0.70370  Biso   1.000  N
  N64      1.0000 0.93300  0.04220  0.70370  Biso   1.000  N
  S1       1.0000 0.42706  0.04395  0.63960  Biso   1.000  S
  S2       1.0000 0.57294  0.95605  0.63960  Biso   1.000  S
  S3       1.0000 0.92706  0.45605  0.63960  Biso   1.000  S
  S4       1.0000 0.07294  0.54395  0.63960  Biso   1.000  S
  S5       1.0000 0.92706  0.54395  0.13960  Biso   1.000  S
  S6       1.0000 0.07294  0.45605  0.13960  Biso   1.000  S
  S7       1.0000 0.42706  0.95605  0.13960  Biso   1.000  S
  S8       1.0000 0.57294  0.04395  0.13960  Biso   1.000  S
  S9       1.0000 0.07114  0.04483  0.92990  Biso   1.000  S
  S10      1.0000 0.92886  0.95517  0.92990  Biso   1.000  S
  S11      1.0000 0.57114  0.45517  0.92990  Biso   1.000  S
  S12      1.0000 0.42886  0.54483  0.92990  Biso   1.000  S
  S13      1.0000 0.57114  0.54483  0.42990  Biso   1.000  S
  S14      1.0000 0.42886  0.45517  0.42990  Biso   1.000  S
  S15      1.0000 0.07114  0.95517  0.42990  Biso   1.000  S
  S16      1.0000 0.92886  0.04483  0.42990  Biso   1.000  S
  O1       1.0000 0.48570  0.20030  0.72300  Biso   1.000  O
  O2       1.0000 0.51430  0.79970  0.72300  Biso   1.000  O
  O3       1.0000 0.98570  0.29970  0.72300  Biso   1.000  O
  O4       1.0000 0.01430  0.70030  0.72300  Biso   1.000  O
  O5       1.0000 0.98570  0.70030  0.22300  Biso   1.000  O
  O6       1.0000 0.01430  0.29970  0.22300  Biso   1.000  O
  O7       1.0000 0.48570  0.79970  0.22300  Biso   1.000  O
  O8       1.0000 0.51430  0.20030  0.22300  Biso   1.000  O
  H161     1.0000 0.52240  0.21460  0.72180  Biso   1.000  H
  H162     1.0000 0.47760  0.78540  0.72180  Biso   1.000  H
  H163     1.0000 0.02240  0.28540  0.72180  Biso   1.000  H
  H164     1.0000 0.97760  0.71460  0.72180  Biso   1.000  H
  H165     1.0000 0.02240  0.71460  0.22180  Biso   1.000  H
  H166     1.0000 0.97760  0.28540  0.22180  Biso   1.000  H
  H167     1.0000 0.52240  0.78540  0.22180  Biso   1.000  H
  H168     1.0000 0.47760  0.21460  0.22180  Biso   1.000  H
  C225     1.0000 0.49100  0.16610  0.62300  Biso   1.000  C
  C226     1.0000 0.50900  0.83390  0.62300  Biso   1.000  C
  C227     1.0000 0.99100  0.33390  0.62300  Biso   1.000  C
  C228     1.0000 0.00900  0.66610  0.62300  Biso   1.000  C
  C229     1.0000 0.99100  0.66610  0.12300  Biso   1.000  C
  C230     1.0000 0.00900  0.33390  0.12300  Biso   1.000  C
  C231     1.0000 0.49100  0.83390  0.12300  Biso   1.000  C
  C232     1.0000 0.50900  0.16610  0.12300  Biso   1.000  C
  H169     1.0000 0.49560  0.17840  0.53820  Biso   1.000  H
  H170     1.0000 0.50440  0.82160  0.53820  Biso   1.000  H
  H171     1.0000 0.99560  0.32160  0.53820  Biso   1.000  H
  H172     1.0000 0.00440  0.67840  0.53820  Biso   1.000  H
  H173     1.0000 0.99560  0.67840  0.03820  Biso   1.000  H
  H174     1.0000 0.00440  0.32160  0.03820  Biso   1.000  H
  H175     1.0000 0.49560  0.82160  0.03820  Biso   1.000  H
  H176     1.0000 0.50440  0.17840  0.03820  Biso   1.000  H
  H177     1.0000 0.44830  0.14900  0.62630  Biso   1.000  H
  H178     1.0000 0.55170  0.85100  0.62630  Biso   1.000  H
  H179     1.0000 0.94830  0.35100  0.62630  Biso   1.000  H
  H180     1.0000 0.05170  0.64900  0.62630  Biso   1.000  H
  H181     1.0000 0.94830  0.64900  0.12630  Biso   1.000  H
  H182     1.0000 0.05170  0.35100  0.12630  Biso   1.000  H
  H183     1.0000 0.44830  0.85100  0.12630  Biso   1.000  H
  H184     1.0000 0.55170  0.14900  0.12630  Biso   1.000  H
  H185     1.0000 0.53220  0.14880  0.64140  Biso   1.000  H
  H186     1.0000 0.46780  0.85120  0.64140  Biso   1.000  H
  H187     1.0000 0.03220  0.35120  0.64140  Biso   1.000  H
  H188     1.0000 0.96780  0.64880  0.64140  Biso   1.000  H
  H189     1.0000 0.03220  0.64880  0.14140  Biso   1.000  H
  H190     1.0000 0.96780  0.35120  0.14140  Biso   1.000  H
  H191     1.0000 0.53220  0.85120  0.14140  Biso   1.000  H
  H192     1.0000 0.46780  0.14880  0.14140  Biso   1.000  H
