data_image0
_cell_length_a       8.855
_cell_length_b       9.723
_cell_length_c       10.427
_cell_angle_alpha    84.179
_cell_angle_beta     75.926
_cell_angle_gamma    64.305

_symmetry_space_group_name_H-M    "P 1"
_symmetry_int_tables_number       1

loop_
  _symmetry_equiv_pos_as_xyz
  'x, y, z'

loop_
  _atom_site_label
  _atom_site_occupancy
  _atom_site_fract_x
  _atom_site_fract_y
  _atom_site_fract_z
  _atom_site_thermal_displace_type
  _atom_site_B_iso_or_equiv
  _atom_site_type_symbol
  Cu1      1.0000 0.42598  0.61488  0.61529  Biso   1.000  Cu
  Cu2      1.0000 0.57402  0.38512  0.38471  Biso   1.000  Cu
  C1       1.0000 0.46650  0.84500  0.43280  Biso   1.000  C
  C2       1.0000 0.53350  0.15500  0.56720  Biso   1.000  C
  H1       1.0000 0.57820  0.81720  0.44130  Biso   1.000  H
  H2       1.0000 0.42180  0.18280  0.55870  Biso   1.000  H
  C3       1.0000 0.22510  0.96380  0.37060  Biso   1.000  C
  C4       1.0000 0.77490  0.03620  0.62940  Biso   1.000  C
  H3       1.0000 0.13900  0.03210  0.32970  Biso   1.000  H
  H4       1.0000 0.86100  0.96790  0.67030  Biso   1.000  H
  C5       1.0000 0.21750  0.84970  0.45160  Biso   1.000  C
  C6       1.0000 0.78250  0.15030  0.54840  Biso   1.000  C
  H5       1.0000 0.12400  0.82510  0.47660  Biso   1.000  H
  H6       1.0000 0.87600  0.17490  0.52340  Biso   1.000  H
  C7       1.0000 0.44830  0.06240  0.27780  Biso   1.000  C
  C8       1.0000 0.55170  0.93760  0.72220  Biso   1.000  C
  H7       1.0000 0.55640  0.04710  0.29700  Biso   1.000  H
  H8       1.0000 0.44360  0.95290  0.70300  Biso   1.000  H
  H9       1.0000 0.36720  0.16750  0.29880  Biso   1.000  H
  H10      1.0000 0.63280  0.83250  0.70120  Biso   1.000  H
  C9       1.0000 0.47550  0.03240  0.13170  Biso   1.000  C
  C10      1.0000 0.52450  0.96760  0.86830  Biso   1.000  C
  C11      1.0000 0.62430  0.91540  0.06790  Biso   1.000  C
  C12      1.0000 0.37570  0.08460  0.93210  Biso   1.000  C
  H11      1.0000 0.70920  0.85760  0.11390  Biso   1.000  H
  H12      1.0000 0.29080  0.14240  0.88610  Biso   1.000  H
  C13      1.0000 0.35130  0.11680  0.06280  Biso   1.000  C
  C14      1.0000 0.64870  0.88320  0.93720  Biso   1.000  C
  H13      1.0000 0.25040  0.19610  0.10470  Biso   1.000  H
  H14      1.0000 0.74960  0.80390  0.89530  Biso   1.000  H
  C15      1.0000 0.68710  0.46350  0.76770  Biso   1.000  C
  C16      1.0000 0.31290  0.53650  0.23230  Biso   1.000  C
  H15      1.0000 0.75720  0.50900  0.72130  Biso   1.000  H
  H16      1.0000 0.24280  0.49100  0.27870  Biso   1.000  H
  C17      1.0000 0.59220  0.32290  0.90840  Biso   1.000  C
  C18      1.0000 0.40780  0.67710  0.09160  Biso   1.000  C
  H17      1.0000 0.58160  0.25550  0.97620  Biso   1.000  H
  H18      1.0000 0.41840  0.74450  0.02380  Biso   1.000  H
  C19      1.0000 0.48160  0.39620  0.83060  Biso   1.000  C
  C20      1.0000 0.51840  0.60380  0.16940  Biso   1.000  C
  H19      1.0000 0.38000  0.38710  0.83580  Biso   1.000  H
  H20      1.0000 0.62000  0.61290  0.16420  Biso   1.000  H
  C21      1.0000 0.87210  0.32070  0.92920  Biso   1.000  C
  C22      1.0000 0.12790  0.67930  0.07080  Biso   1.000  C
  H21      1.0000 0.83840  0.38150  0.00800  Biso   1.000  H
  H22      1.0000 0.16160  0.61850  0.99200  Biso   1.000  H
  H23      1.0000 0.96270  0.33960  0.86780  Biso   1.000  H
  H24      1.0000 0.03730  0.66040  0.13220  Biso   1.000  H
  C23      1.0000 0.93860  0.15430  0.96500  Biso   1.000  C
  C24      1.0000 0.06140  0.84570  0.03500  Biso   1.000  C
  C25      1.0000 0.91510  0.11000  0.09630  Biso   1.000  C
  C26      1.0000 0.08490  0.89000  0.90370  Biso   1.000  C
  H25      1.0000 0.85660  0.18410  0.16240  Biso   1.000  H
  H26      1.0000 0.14340  0.81590  0.83760  Biso   1.000  H
  C27      1.0000 0.02340  0.04080  0.86980  Biso   1.000  C
  C28      1.0000 0.97660  0.95920  0.13020  Biso   1.000  C
  H27      1.0000 0.03910  0.06760  0.78100  Biso   1.000  H
  H28      1.0000 0.96090  0.93240  0.21900  Biso   1.000  H
  N1       1.0000 0.36940  0.77520  0.49170  Biso   1.000  N
  N2       1.0000 0.63060  0.22480  0.50830  Biso   1.000  N
  N3       1.0000 0.38310  0.96060  0.35940  Biso   1.000  N
  N4       1.0000 0.61690  0.03940  0.64060  Biso   1.000  N
  N5       1.0000 0.53910  0.48630  0.74250  Biso   1.000  N
  N6       1.0000 0.46090  0.51370  0.25750  Biso   1.000  N
  N7       1.0000 0.72390  0.36660  0.86860  Biso   1.000  N
  N8       1.0000 0.27610  0.63340  0.13140  Biso   1.000  N
  O1       1.0000 0.86970  0.72300  0.44620  Biso   1.000  O
  O2       1.0000 0.13030  0.27700  0.55380  Biso   1.000  O
  Br1      1.0000 0.09836  0.58434  0.69026  Biso   1.000  Br
  Br2      1.0000 0.90164  0.41566  0.30974  Biso   1.000  Br
