data_image0
_cell_length_a       8.6163
_cell_length_b       15.7573
_cell_length_c       14.2116
_cell_angle_alpha    90
_cell_angle_beta     95.956
_cell_angle_gamma    90

_symmetry_space_group_name_H-M    "P 1"
_symmetry_int_tables_number       1

loop_
  _symmetry_equiv_pos_as_xyz
  'x, y, z'

loop_
  _atom_site_label
  _atom_site_occupancy
  _atom_site_fract_x
  _atom_site_fract_y
  _atom_site_fract_z
  _atom_site_thermal_displace_type
  _atom_site_B_iso_or_equiv
  _atom_site_type_symbol
  Cu1      1.0000 0.71125  0.36553  0.88330  Biso   1.000  Cu
  Cu2      1.0000 0.21125  0.86553  0.88330  Biso   1.000  Cu
  Cu3      1.0000 0.28875  0.36553  0.61670  Biso   1.000  Cu
  Cu4      1.0000 0.78875  0.86553  0.61670  Biso   1.000  Cu
  Cu5      1.0000 0.28875  0.63447  0.11670  Biso   1.000  Cu
  Cu6      1.0000 0.78875  0.13447  0.11670  Biso   1.000  Cu
  Cu7      1.0000 0.71125  0.63447  0.38330  Biso   1.000  Cu
  Cu8      1.0000 0.21125  0.13447  0.38330  Biso   1.000  Cu
  N1       1.0000 0.76610  0.49300  0.93870  Biso   1.000  N
  N2       1.0000 0.26610  0.99300  0.93870  Biso   1.000  N
  N3       1.0000 0.23390  0.49300  0.56130  Biso   1.000  N
  N4       1.0000 0.73390  0.99300  0.56130  Biso   1.000  N
  N5       1.0000 0.23390  0.50700  0.06130  Biso   1.000  N
  N6       1.0000 0.73390  0.00700  0.06130  Biso   1.000  N
  N7       1.0000 0.76610  0.50700  0.43870  Biso   1.000  N
  N8       1.0000 0.26610  0.00700  0.43870  Biso   1.000  N
  N9       1.0000 0.91700  0.40620  0.81110  Biso   1.000  N
  N10      1.0000 0.41700  0.90620  0.81110  Biso   1.000  N
  N11      1.0000 0.08300  0.40620  0.68890  Biso   1.000  N
  N12      1.0000 0.58300  0.90620  0.68890  Biso   1.000  N
  N13      1.0000 0.08300  0.59380  0.18890  Biso   1.000  N
  N14      1.0000 0.58300  0.09380  0.18890  Biso   1.000  N
  N15      1.0000 0.91700  0.59380  0.31110  Biso   1.000  N
  N16      1.0000 0.41700  0.09380  0.31110  Biso   1.000  N
  N17      1.0000 0.00000  0.53680  0.75000  Biso   1.000  N
  N18      1.0000 0.50000  0.03680  0.75000  Biso   1.000  N
  N19      1.0000 0.00000  0.46320  0.25000  Biso   1.000  N
  N20      1.0000 0.50000  0.96320  0.25000  Biso   1.000  N
  N21      1.0000 0.12140  0.23350  0.71860  Biso   1.000  N
  N22      1.0000 0.62140  0.73350  0.71860  Biso   1.000  N
  N23      1.0000 0.87860  0.23350  0.78140  Biso   1.000  N
  N24      1.0000 0.37860  0.73350  0.78140  Biso   1.000  N
  N25      1.0000 0.87860  0.76650  0.28140  Biso   1.000  N
  N26      1.0000 0.37860  0.26650  0.28140  Biso   1.000  N
  N27      1.0000 0.12140  0.76650  0.21860  Biso   1.000  N
  N28      1.0000 0.62140  0.26650  0.21860  Biso   1.000  N
  N29      1.0000 0.54760  0.37190  0.78120  Biso   1.000  N
  N30      1.0000 0.04760  0.87190  0.78120  Biso   1.000  N
  N31      1.0000 0.45240  0.37190  0.71880  Biso   1.000  N
  N32      1.0000 0.95240  0.87190  0.71880  Biso   1.000  N
  N33      1.0000 0.45240  0.62810  0.21880  Biso   1.000  N
  N34      1.0000 0.95240  0.12810  0.21880  Biso   1.000  N
  N35      1.0000 0.54760  0.62810  0.28120  Biso   1.000  N
  N36      1.0000 0.04760  0.12810  0.28120  Biso   1.000  N
  N37      1.0000 0.74060  0.27840  0.97600  Biso   1.000  N
  N38      1.0000 0.24060  0.77840  0.97600  Biso   1.000  N
  N39      1.0000 0.25940  0.27840  0.52400  Biso   1.000  N
  N40      1.0000 0.75940  0.77840  0.52400  Biso   1.000  N
  N41      1.0000 0.25940  0.72160  0.02400  Biso   1.000  N
  N42      1.0000 0.75940  0.22160  0.02400  Biso   1.000  N
  N43      1.0000 0.74060  0.72160  0.47600  Biso   1.000  N
  N44      1.0000 0.24060  0.22160  0.47600  Biso   1.000  N
  C1       1.0000 0.71040  0.53250  0.01180  Biso   1.000  C
  C2       1.0000 0.21040  0.03250  0.01180  Biso   1.000  C
  C3       1.0000 0.28960  0.53250  0.48820  Biso   1.000  C
  C4       1.0000 0.78960  0.03250  0.48820  Biso   1.000  C
  C5       1.0000 0.28960  0.46750  0.98820  Biso   1.000  C
  C6       1.0000 0.78960  0.96750  0.98820  Biso   1.000  C
  C7       1.0000 0.71040  0.46750  0.51180  Biso   1.000  C
  C8       1.0000 0.21040  0.96750  0.51180  Biso   1.000  C
  H1       1.0000 0.63890  0.50350  0.04460  Biso   1.000  H
  H2       1.0000 0.13890  0.00350  0.04460  Biso   1.000  H
  H3       1.0000 0.36110  0.50350  0.45540  Biso   1.000  H
  H4       1.0000 0.86110  0.00350  0.45540  Biso   1.000  H
  H5       1.0000 0.36110  0.49650  0.95540  Biso   1.000  H
  H6       1.0000 0.86110  0.99650  0.95540  Biso   1.000  H
  H7       1.0000 0.63890  0.49650  0.54460  Biso   1.000  H
  H8       1.0000 0.13890  0.99650  0.54460  Biso   1.000  H
  C9       1.0000 0.75230  0.61310  0.04120  Biso   1.000  C
  C10      1.0000 0.25230  0.11310  0.04120  Biso   1.000  C
  C11      1.0000 0.24770  0.61310  0.45880  Biso   1.000  C
  C12      1.0000 0.74770  0.11310  0.45880  Biso   1.000  C
  C13      1.0000 0.24770  0.38690  0.95880  Biso   1.000  C
  C14      1.0000 0.74770  0.88690  0.95880  Biso   1.000  C
  C15      1.0000 0.75230  0.38690  0.54120  Biso   1.000  C
  C16      1.0000 0.25230  0.88690  0.54120  Biso   1.000  C
  H9       1.0000 0.70920  0.63810  0.09180  Biso   1.000  H
  H10      1.0000 0.20920  0.13810  0.09180  Biso   1.000  H
  H11      1.0000 0.29080  0.63810  0.40820  Biso   1.000  H
  H12      1.0000 0.79080  0.13810  0.40820  Biso   1.000  H
  H13      1.0000 0.29080  0.36190  0.90820  Biso   1.000  H
  H14      1.0000 0.79080  0.86190  0.90820  Biso   1.000  H
  H15      1.0000 0.70920  0.36190  0.59180  Biso   1.000  H
  H16      1.0000 0.20920  0.86190  0.59180  Biso   1.000  H
  C17      1.0000 0.85810  0.65520  0.99460  Biso   1.000  C
  C18      1.0000 0.35810  0.15520  0.99460  Biso   1.000  C
  C19      1.0000 0.14190  0.65520  0.50540  Biso   1.000  C
  C20      1.0000 0.64190  0.15520  0.50540  Biso   1.000  C
  C21      1.0000 0.14190  0.34480  0.00540  Biso   1.000  C
  C22      1.0000 0.64190  0.84480  0.00540  Biso   1.000  C
  C23      1.0000 0.85810  0.34480  0.49460  Biso   1.000  C
  C24      1.0000 0.35810  0.84480  0.49460  Biso   1.000  C
  H17      1.0000 0.89230  0.70870  0.01500  Biso   1.000  H
  H18      1.0000 0.39230  0.20870  0.01500  Biso   1.000  H
  H19      1.0000 0.10770  0.70870  0.48500  Biso   1.000  H
  H20      1.0000 0.60770  0.20870  0.48500  Biso   1.000  H
  H21      1.0000 0.10770  0.29130  0.98500  Biso   1.000  H
  H22      1.0000 0.60770  0.79130  0.98500  Biso   1.000  H
  H23      1.0000 0.89230  0.29130  0.51500  Biso   1.000  H
  H24      1.0000 0.39230  0.79130  0.51500  Biso   1.000  H
  C25      1.0000 0.91550  0.61830  0.91640  Biso   1.000  C
  C26      1.0000 0.41550  0.11830  0.91640  Biso   1.000  C
  C27      1.0000 0.08450  0.61830  0.58360  Biso   1.000  C
  C28      1.0000 0.58450  0.11830  0.58360  Biso   1.000  C
  C29      1.0000 0.08450  0.38170  0.08360  Biso   1.000  C
  C30      1.0000 0.58450  0.88170  0.08360  Biso   1.000  C
  C31      1.0000 0.91550  0.38170  0.41640  Biso   1.000  C
  C32      1.0000 0.41550  0.88170  0.41640  Biso   1.000  C
  H25      1.0000 0.98390  0.64750  0.88160  Biso   1.000  H
  H26      1.0000 0.48390  0.14750  0.88160  Biso   1.000  H
  H27      1.0000 0.01610  0.64750  0.61840  Biso   1.000  H
  H28      1.0000 0.51610  0.14750  0.61840  Biso   1.000  H
  H29      1.0000 0.01610  0.35250  0.11840  Biso   1.000  H
  H30      1.0000 0.51610  0.85250  0.11840  Biso   1.000  H
  H31      1.0000 0.98390  0.35250  0.38160  Biso   1.000  H
  H32      1.0000 0.48390  0.85250  0.38160  Biso   1.000  H
  C33      1.0000 0.86740  0.53650  0.89220  Biso   1.000  C
  C34      1.0000 0.36740  0.03650  0.89220  Biso   1.000  C
  C35      1.0000 0.13260  0.53650  0.60780  Biso   1.000  C
  C36      1.0000 0.63260  0.03650  0.60780  Biso   1.000  C
  C37      1.0000 0.13260  0.46350  0.10780  Biso   1.000  C
  C38      1.0000 0.63260  0.96350  0.10780  Biso   1.000  C
  C39      1.0000 0.86740  0.46350  0.39220  Biso   1.000  C
  C40      1.0000 0.36740  0.96350  0.39220  Biso   1.000  C
  C41      1.0000 0.93160  0.49140  0.81340  Biso   1.000  C
  C42      1.0000 0.43160  0.99140  0.81340  Biso   1.000  C
  C43      1.0000 0.06840  0.49140  0.68660  Biso   1.000  C
  C44      1.0000 0.56840  0.99140  0.68660  Biso   1.000  C
  C45      1.0000 0.06840  0.50860  0.18660  Biso   1.000  C
  C46      1.0000 0.56840  0.00860  0.18660  Biso   1.000  C
  C47      1.0000 0.93160  0.50860  0.31340  Biso   1.000  C
  C48      1.0000 0.43160  0.00860  0.31340  Biso   1.000  C
  C49      1.0000 0.00000  0.36760  0.75000  Biso   1.000  C
  C50      1.0000 0.50000  0.86760  0.75000  Biso   1.000  C
  C51      1.0000 0.00000  0.63240  0.25000  Biso   1.000  C
  C52      1.0000 0.50000  0.13240  0.25000  Biso   1.000  C
  C53      1.0000 0.00000  0.27250  0.75000  Biso   1.000  C
  C54      1.0000 0.50000  0.77250  0.75000  Biso   1.000  C
  C55      1.0000 0.00000  0.72750  0.25000  Biso   1.000  C
  C56      1.0000 0.50000  0.22750  0.25000  Biso   1.000  C
  H33      1.0000 0.20360  0.26360  0.69710  Biso   1.000  H
  H34      1.0000 0.70360  0.76360  0.69710  Biso   1.000  H
  H35      1.0000 0.79640  0.26360  0.80290  Biso   1.000  H
  H36      1.0000 0.29640  0.76360  0.80290  Biso   1.000  H
  H37      1.0000 0.79640  0.73640  0.30290  Biso   1.000  H
  H38      1.0000 0.29640  0.23640  0.30290  Biso   1.000  H
  H39      1.0000 0.20360  0.73640  0.19710  Biso   1.000  H
  H40      1.0000 0.70360  0.23640  0.19710  Biso   1.000  H
  C57      1.0000 0.11880  0.14650  0.71990  Biso   1.000  C
  C58      1.0000 0.61880  0.64650  0.71990  Biso   1.000  C
  C59      1.0000 0.88120  0.14650  0.78010  Biso   1.000  C
  C60      1.0000 0.38120  0.64650  0.78010  Biso   1.000  C
  C61      1.0000 0.88120  0.85350  0.28010  Biso   1.000  C
  C62      1.0000 0.38120  0.35350  0.28010  Biso   1.000  C
  C63      1.0000 0.11880  0.85350  0.21990  Biso   1.000  C
  C64      1.0000 0.61880  0.35350  0.21990  Biso   1.000  C
  H41      1.0000 0.20220  0.11700  0.69910  Biso   1.000  H
  H42      1.0000 0.70220  0.61700  0.69910  Biso   1.000  H
  H43      1.0000 0.79780  0.11700  0.80090  Biso   1.000  H
  H44      1.0000 0.29780  0.61700  0.80090  Biso   1.000  H
  H45      1.0000 0.79780  0.88300  0.30090  Biso   1.000  H
  H46      1.0000 0.29780  0.38300  0.30090  Biso   1.000  H
  H47      1.0000 0.20220  0.88300  0.19910  Biso   1.000  H
  H48      1.0000 0.70220  0.38300  0.19910  Biso   1.000  H
  C65      1.0000 0.00000  0.10260  0.75000  Biso   1.000  C
  C66      1.0000 0.50000  0.60260  0.75000  Biso   1.000  C
  C67      1.0000 0.00000  0.89740  0.25000  Biso   1.000  C
  C68      1.0000 0.50000  0.39740  0.25000  Biso   1.000  C
  H49      1.0000 0.00000  0.04360  0.75000  Biso   1.000  H
  H50      1.0000 0.50000  0.54360  0.75000  Biso   1.000  H
  H51      1.0000 0.00000  0.95640  0.25000  Biso   1.000  H
  H52      1.0000 0.50000  0.45640  0.25000  Biso   1.000  H
