data_image0
_cell_length_a       14.097
_cell_length_b       3.747
_cell_length_c       14.251
_cell_angle_alpha    90
_cell_angle_beta     101.34
_cell_angle_gamma    90

_symmetry_space_group_name_H-M    "P 1"
_symmetry_int_tables_number       1

loop_
  _symmetry_equiv_pos_as_xyz
  'x, y, z'

loop_
  _atom_site_label
  _atom_site_occupancy
  _atom_site_fract_x
  _atom_site_fract_y
  _atom_site_fract_z
  _atom_site_thermal_displace_type
  _atom_site_B_iso_or_equiv
  _atom_site_type_symbol
  Cu1      1.0000 0.07960  0.24310  0.02100  Biso   1.000  Cu
  Cu2      1.0000 0.92040  0.74310  0.47900  Biso   1.000  Cu
  Cu3      1.0000 0.92040  0.75690  0.97900  Biso   1.000  Cu
  Cu4      1.0000 0.07960  0.25690  0.52100  Biso   1.000  Cu
  Cl1      1.0000 0.07520  0.73040  0.92030  Biso   1.000  Cl
  Cl2      1.0000 0.92480  0.23040  0.57970  Biso   1.000  Cl
  Cl3      1.0000 0.92480  0.26960  0.07970  Biso   1.000  Cl
  Cl4      1.0000 0.07520  0.76960  0.42030  Biso   1.000  Cl
  N1       1.0000 0.81920  0.82010  0.86090  Biso   1.000  N
  N2       1.0000 0.18080  0.32010  0.63910  Biso   1.000  N
  N3       1.0000 0.18080  0.17990  0.13910  Biso   1.000  N
  N4       1.0000 0.81920  0.67990  0.36090  Biso   1.000  N
  C1       1.0000 0.83250  0.72230  0.77350  Biso   1.000  C
  C2       1.0000 0.16750  0.22230  0.72650  Biso   1.000  C
  C3       1.0000 0.16750  0.27770  0.22650  Biso   1.000  C
  C4       1.0000 0.83250  0.77770  0.27350  Biso   1.000  C
  C5       1.0000 0.76330  0.75490  0.69200  Biso   1.000  C
  C6       1.0000 0.23670  0.25490  0.80800  Biso   1.000  C
  C7       1.0000 0.23670  0.24510  0.30800  Biso   1.000  C
  C8       1.0000 0.76330  0.74510  0.19200  Biso   1.000  C
  C9       1.0000 0.67570  0.89450  0.69880  Biso   1.000  C
  C10      1.0000 0.32430  0.39450  0.80120  Biso   1.000  C
  C11      1.0000 0.32430  0.10550  0.30120  Biso   1.000  C
  C12      1.0000 0.67570  0.60550  0.19880  Biso   1.000  C
  C13      1.0000 0.65890  0.00250  0.78810  Biso   1.000  C
  C14      1.0000 0.34110  0.50250  0.71190  Biso   1.000  C
  C15      1.0000 0.34110  0.99750  0.21190  Biso   1.000  C
  C16      1.0000 0.65890  0.49750  0.28810  Biso   1.000  C
  C17      1.0000 0.73200  0.96040  0.86460  Biso   1.000  C
  C18      1.0000 0.26800  0.46040  0.63540  Biso   1.000  C
  C19      1.0000 0.26800  0.03960  0.13540  Biso   1.000  C
  C20      1.0000 0.73200  0.53960  0.36460  Biso   1.000  C
  C21      1.0000 0.59770  0.93630  0.61220  Biso   1.000  C
  C22      1.0000 0.40230  0.43630  0.88780  Biso   1.000  C
  C23      1.0000 0.40230  0.06370  0.38780  Biso   1.000  C
  C24      1.0000 0.59770  0.56370  0.11220  Biso   1.000  C
  O1       1.0000 0.51820  0.08310  0.62040  Biso   1.000  O
  O2       1.0000 0.48180  0.58310  0.87960  Biso   1.000  O
  O3       1.0000 0.48180  0.91690  0.37960  Biso   1.000  O
  O4       1.0000 0.51820  0.41690  0.12040  Biso   1.000  O
  O5       1.0000 0.61540  0.82960  0.53320  Biso   1.000  O
  O6       1.0000 0.38460  0.32960  0.96680  Biso   1.000  O
  O7       1.0000 0.38460  0.17040  0.46680  Biso   1.000  O
  O8       1.0000 0.61540  0.67040  0.03320  Biso   1.000  O
  H1       1.0000 0.89410  0.62450  0.76810  Biso   1.000  H
  H2       1.0000 0.10590  0.12450  0.73190  Biso   1.000  H
  H3       1.0000 0.10590  0.37550  0.23190  Biso   1.000  H
  H4       1.0000 0.89410  0.87550  0.26810  Biso   1.000  H
  H5       1.0000 0.77610  0.68050  0.63120  Biso   1.000  H
  H6       1.0000 0.22390  0.18050  0.86880  Biso   1.000  H
  H7       1.0000 0.22390  0.31950  0.36880  Biso   1.000  H
  H8       1.0000 0.77610  0.81950  0.13120  Biso   1.000  H
  H9       1.0000 0.59800  0.10260  0.79490  Biso   1.000  H
  H10      1.0000 0.40200  0.60260  0.70510  Biso   1.000  H
  H11      1.0000 0.40200  0.89740  0.20510  Biso   1.000  H
  H12      1.0000 0.59800  0.39740  0.29490  Biso   1.000  H
  H13      1.0000 0.72090  0.03600  0.92590  Biso   1.000  H
  H14      1.0000 0.27910  0.53600  0.57410  Biso   1.000  H
  H15      1.0000 0.27910  0.96400  0.07410  Biso   1.000  H
  H16      1.0000 0.72090  0.46400  0.42590  Biso   1.000  H
