data_image0
_cell_length_a       16.4623
_cell_length_b       3.7795
_cell_length_c       24.7612
_cell_angle_alpha    90
_cell_angle_beta     101.534
_cell_angle_gamma    90

_symmetry_space_group_name_H-M    "P 1"
_symmetry_int_tables_number       1

loop_
  _symmetry_equiv_pos_as_xyz
  'x, y, z'

loop_
  _atom_site_label
  _atom_site_occupancy
  _atom_site_fract_x
  _atom_site_fract_y
  _atom_site_fract_z
  _atom_site_thermal_displace_type
  _atom_site_B_iso_or_equiv
  _atom_site_type_symbol
  Cu1      1.0000 0.82235  0.55220  0.08553  Biso   1.000  Cu
  Cu2      1.0000 0.67765  0.05220  0.41447  Biso   1.000  Cu
  Cu3      1.0000 0.17765  0.44780  0.91447  Biso   1.000  Cu
  Cu4      1.0000 0.32235  0.94780  0.58553  Biso   1.000  Cu
  Cu5      1.0000 0.93180  0.03243  0.16450  Biso   1.000  Cu
  Cu6      1.0000 0.56820  0.53243  0.33550  Biso   1.000  Cu
  Cu7      1.0000 0.06820  0.96757  0.83550  Biso   1.000  Cu
  Cu8      1.0000 0.43180  0.46757  0.66450  Biso   1.000  Cu
  Cl1      1.0000 0.77794  0.08530  0.13052  Biso   1.000  Cl
  Cl2      1.0000 0.72206  0.58530  0.36948  Biso   1.000  Cl
  Cl3      1.0000 0.22206  0.91470  0.86948  Biso   1.000  Cl
  Cl4      1.0000 0.27794  0.41470  0.63052  Biso   1.000  Cl
  Cl5      1.0000 0.97962  0.56360  0.12131  Biso   1.000  Cl
  Cl6      1.0000 0.52038  0.06360  0.37869  Biso   1.000  Cl
  Cl7      1.0000 0.02038  0.43640  0.87869  Biso   1.000  Cl
  Cl8      1.0000 0.47962  0.93640  0.62131  Biso   1.000  Cl
  N1       1.0000 0.80790  0.64850  0.00521  Biso   1.000  N
  N2       1.0000 0.69210  0.14850  0.49479  Biso   1.000  N
  N3       1.0000 0.19210  0.35150  0.99479  Biso   1.000  N
  N4       1.0000 0.30790  0.85150  0.50521  Biso   1.000  N
  C1       1.0000 0.86850  0.79730  0.98396  Biso   1.000  C
  C2       1.0000 0.63150  0.29730  0.51604  Biso   1.000  C
  C3       1.0000 0.13150  0.20270  0.01604  Biso   1.000  C
  C4       1.0000 0.36850  0.70270  0.48396  Biso   1.000  C
  C5       1.0000 0.86070  0.88090  0.92875  Biso   1.000  C
  C6       1.0000 0.63930  0.38090  0.57125  Biso   1.000  C
  C7       1.0000 0.13930  0.11910  0.07125  Biso   1.000  C
  C8       1.0000 0.36070  0.61910  0.42875  Biso   1.000  C
  C9       1.0000 0.78610  0.81040  0.89275  Biso   1.000  C
  C10      1.0000 0.71390  0.31040  0.60725  Biso   1.000  C
  C11      1.0000 0.21390  0.18960  0.10725  Biso   1.000  C
  C12      1.0000 0.28610  0.68960  0.39275  Biso   1.000  C
  C13      1.0000 0.72370  0.65330  0.91464  Biso   1.000  C
  C14      1.0000 0.77630  0.15330  0.58536  Biso   1.000  C
  C15      1.0000 0.27630  0.34670  0.08536  Biso   1.000  C
  C16      1.0000 0.22370  0.84670  0.41464  Biso   1.000  C
  C17      1.0000 0.73610  0.57800  0.97000  Biso   1.000  C
  C18      1.0000 0.76390  0.07800  0.53000  Biso   1.000  C
  C19      1.0000 0.26390  0.42200  0.03000  Biso   1.000  C
  C20      1.0000 0.23610  0.92200  0.47000  Biso   1.000  C
  C21      1.0000 0.76930  0.89480  0.83159  Biso   1.000  C
  C22      1.0000 0.73070  0.39480  0.66841  Biso   1.000  C
  C23      1.0000 0.23070  0.10520  0.16841  Biso   1.000  C
  C24      1.0000 0.26930  0.60520  0.33159  Biso   1.000  C
  O1       1.0000 0.83000  0.06250  0.81206  Biso   1.000  O
  O2       1.0000 0.67000  0.56250  0.68794  Biso   1.000  O
  O3       1.0000 0.17000  0.93750  0.18794  Biso   1.000  O
  O4       1.0000 0.33000  0.43750  0.31206  Biso   1.000  O
  O5       1.0000 0.70190  0.81280  0.80249  Biso   1.000  O
  O6       1.0000 0.79810  0.31280  0.69751  Biso   1.000  O
  O7       1.0000 0.29810  0.18720  0.19751  Biso   1.000  O
  O8       1.0000 0.20190  0.68720  0.30249  Biso   1.000  O
  N5       1.0000 0.94665  0.11560  0.24508  Biso   1.000  N
  N6       1.0000 0.55335  0.61560  0.25492  Biso   1.000  N
  N7       1.0000 0.05335  0.88440  0.75492  Biso   1.000  N
  N8       1.0000 0.44665  0.38440  0.74508  Biso   1.000  N
  C25      1.0000 0.88670  0.04390  0.27320  Biso   1.000  C
  C26      1.0000 0.61330  0.54390  0.22680  Biso   1.000  C
  C27      1.0000 0.11330  0.95610  0.72680  Biso   1.000  C
  C28      1.0000 0.38670  0.45610  0.77320  Biso   1.000  C
  C29      1.0000 0.89410  0.10650  0.32900  Biso   1.000  C
  C30      1.0000 0.60590  0.60650  0.17100  Biso   1.000  C
  C31      1.0000 0.10590  0.89350  0.67100  Biso   1.000  C
  C32      1.0000 0.39410  0.39350  0.82900  Biso   1.000  C
  C33      1.0000 0.96730  0.25310  0.35834  Biso   1.000  C
  C34      1.0000 0.53270  0.75310  0.14166  Biso   1.000  C
  C35      1.0000 0.03270  0.74690  0.64166  Biso   1.000  C
  C36      1.0000 0.46730  0.24690  0.85834  Biso   1.000  C
  C37      1.0000 0.03050  0.32400  0.32962  Biso   1.000  C
  C38      1.0000 0.46950  0.82400  0.17038  Biso   1.000  C
  C39      1.0000 0.96950  0.67600  0.67038  Biso   1.000  C
  C40      1.0000 0.53050  0.17600  0.82962  Biso   1.000  C
  C41      1.0000 0.01720  0.25410  0.27390  Biso   1.000  C
  C42      1.0000 0.48280  0.75410  0.22610  Biso   1.000  C
  C43      1.0000 0.98280  0.74590  0.72610  Biso   1.000  C
  C44      1.0000 0.51720  0.24590  0.77390  Biso   1.000  C
  C45      1.0000 0.98260  0.33660  0.41884  Biso   1.000  C
  C46      1.0000 0.51740  0.83660  0.08116  Biso   1.000  C
  C47      1.0000 0.01740  0.66340  0.58116  Biso   1.000  C
  C48      1.0000 0.48260  0.16340  0.91884  Biso   1.000  C
  O9       1.0000 0.91590  0.38940  0.44133  Biso   1.000  O
  O10      1.0000 0.58410  0.88940  0.05867  Biso   1.000  O
  O11      1.0000 0.08410  0.61060  0.55867  Biso   1.000  O
  O12      1.0000 0.41590  0.11060  0.94133  Biso   1.000  O
  O13      1.0000 0.05448  0.36210  0.44557  Biso   1.000  O
  O14      1.0000 0.44552  0.86210  0.05443  Biso   1.000  O
  O15      1.0000 0.94552  0.63790  0.55443  Biso   1.000  O
  O16      1.0000 0.55448  0.13790  0.94557  Biso   1.000  O
  H1       1.0000 0.84100  0.93400  0.25430  Biso   1.000  H
  H2       1.0000 0.65900  0.43400  0.24570  Biso   1.000  H
  H3       1.0000 0.15900  0.06600  0.74570  Biso   1.000  H
  H4       1.0000 0.34100  0.56600  0.75430  Biso   1.000  H
  H5       1.0000 0.92100  0.83200  0.01280  Biso   1.000  H
  H6       1.0000 0.57900  0.33200  0.48720  Biso   1.000  H
  H7       1.0000 0.07900  0.16800  0.98720  Biso   1.000  H
  H8       1.0000 0.42100  0.66800  0.51280  Biso   1.000  H
  H9       1.0000 0.90300  0.98700  0.91400  Biso   1.000  H
  H10      1.0000 0.59700  0.48700  0.58600  Biso   1.000  H
  H11      1.0000 0.09700  0.01300  0.08600  Biso   1.000  H
  H12      1.0000 0.40300  0.51300  0.41400  Biso   1.000  H
  H13      1.0000 0.69600  0.46000  0.98270  Biso   1.000  H
  H14      1.0000 0.80400  0.96000  0.51730  Biso   1.000  H
  H15      1.0000 0.30400  0.54000  0.01730  Biso   1.000  H
  H16      1.0000 0.19600  0.04000  0.48270  Biso   1.000  H
  H17      1.0000 0.67400  0.59600  0.89300  Biso   1.000  H
  H18      1.0000 0.82600  0.09600  0.60700  Biso   1.000  H
  H19      1.0000 0.32600  0.40400  0.10700  Biso   1.000  H
  H20      1.0000 0.17400  0.90400  0.39300  Biso   1.000  H
  H21      1.0000 0.05800  0.29200  0.25350  Biso   1.000  H
  H22      1.0000 0.44200  0.79200  0.24650  Biso   1.000  H
  H23      1.0000 0.94200  0.70800  0.74650  Biso   1.000  H
  H24      1.0000 0.55800  0.20800  0.75350  Biso   1.000  H
  H25      1.0000 0.08100  0.43700  0.34620  Biso   1.000  H
  H26      1.0000 0.41900  0.93700  0.15380  Biso   1.000  H
  H27      1.0000 0.91900  0.56300  0.65380  Biso   1.000  H
  H28      1.0000 0.58100  0.06300  0.84620  Biso   1.000  H
  H29      1.0000 0.84900  0.06000  0.34670  Biso   1.000  H
  H30      1.0000 0.65100  0.56000  0.15330  Biso   1.000  H
  H31      1.0000 0.15100  0.94000  0.65330  Biso   1.000  H
  H32      1.0000 0.34900  0.44000  0.84670  Biso   1.000  H
  H33      1.0000 0.92500  0.48100  0.48600  Biso   1.000  H
  H34      1.0000 0.57500  0.98100  0.01400  Biso   1.000  H
  H35      1.0000 0.07500  0.51900  0.51400  Biso   1.000  H
  H36      1.0000 0.42500  0.01900  0.98600  Biso   1.000  H
  H37      1.0000 0.81100  0.11300  0.77100  Biso   1.000  H
  H38      1.0000 0.68900  0.61300  0.72900  Biso   1.000  H
  H39      1.0000 0.18900  0.88700  0.22900  Biso   1.000  H
  H40      1.0000 0.31100  0.38700  0.27100  Biso   1.000  H
