data_image0
_cell_length_a       7.109
_cell_length_b       3.732
_cell_length_c       14.073
_cell_angle_alpha    90
_cell_angle_beta     101.381
_cell_angle_gamma    90

_symmetry_space_group_name_H-M    "P 1"
_symmetry_int_tables_number       1

loop_
  _symmetry_equiv_pos_as_xyz
  'x, y, z'

loop_
  _atom_site_label
  _atom_site_occupancy
  _atom_site_fract_x
  _atom_site_fract_y
  _atom_site_fract_z
  _atom_site_thermal_displace_type
  _atom_site_B_iso_or_equiv
  _atom_site_type_symbol
  Cu1      1.0000 0.45792  0.25000  0.42046  Biso   1.000  Cu
  Cu2      1.0000 0.54208  0.75000  0.57954  Biso   1.000  Cu
  N1       1.0000 0.22140  0.25000  0.31950  Biso   1.000  N
  N2       1.0000 0.77860  0.75000  0.68050  Biso   1.000  N
  C1       1.0000 0.23400  0.03600  0.23190  Biso   1.000  C
  C2       1.0000 0.76600  0.53600  0.76810  Biso   1.000  C
  C3       1.0000 0.76600  0.96400  0.76810  Biso   1.000  C
  C4       1.0000 0.23400  0.46400  0.23190  Biso   1.000  C
  H1       1.0000 0.35230  0.92020  0.22700  Biso   1.000  H
  H2       1.0000 0.64770  0.42020  0.77300  Biso   1.000  H
  H3       1.0000 0.64770  0.07980  0.77300  Biso   1.000  H
  H4       1.0000 0.35230  0.57980  0.22700  Biso   1.000  H
  C5       1.0000 0.07770  0.99400  0.15930  Biso   1.000  C
  C6       1.0000 0.92230  0.49400  0.84070  Biso   1.000  C
  C7       1.0000 0.92230  0.00600  0.84070  Biso   1.000  C
  C8       1.0000 0.07770  0.50600  0.15930  Biso   1.000  C
  H5       1.0000 0.09030  0.89990  0.09740  Biso   1.000  H
  H6       1.0000 0.90970  0.39990  0.90260  Biso   1.000  H
  H7       1.0000 0.90970  0.10010  0.90260  Biso   1.000  H
  H8       1.0000 0.09030  0.60010  0.09740  Biso   1.000  H
  C9       1.0000 0.89950  0.10290  0.17490  Biso   1.000  C
  C10      1.0000 0.10050  0.60290  0.82510  Biso   1.000  C
  C11      1.0000 0.10050  0.89710  0.82510  Biso   1.000  C
  C12      1.0000 0.89950  0.39710  0.17490  Biso   1.000  C
  C13      1.0000 0.88600  0.25000  0.26400  Biso   1.000  C
  C14      1.0000 0.11400  0.75000  0.73600  Biso   1.000  C
  H9       1.0000 0.76790  0.34910  0.27550  Biso   1.000  H
  H10      1.0000 0.23210  0.84910  0.72450  Biso   1.000  H
  H11      1.0000 0.23210  0.65090  0.72450  Biso   1.000  H
  H12      1.0000 0.76790  0.15090  0.27550  Biso   1.000  H
  C15      1.0000 0.04830  0.25000  0.33260  Biso   1.000  C
  C16      1.0000 0.95170  0.75000  0.66740  Biso   1.000  C
  H13      1.0000 0.03940  0.25000  0.39970  Biso   1.000  H
  H14      1.0000 0.96060  0.75000  0.60030  Biso   1.000  H
  C17      1.0000 0.72400  0.06300  0.09710  Biso   1.000  C
  C18      1.0000 0.27600  0.56300  0.90290  Biso   1.000  C
  C19      1.0000 0.27600  0.93700  0.90290  Biso   1.000  C
  C20      1.0000 0.72400  0.43700  0.09710  Biso   1.000  C
  O1       1.0000 0.74180  0.91510  0.01960  Biso   1.000  O
  O2       1.0000 0.25820  0.41510  0.98040  Biso   1.000  O
  O3       1.0000 0.25820  0.08490  0.98040  Biso   1.000  O
  O4       1.0000 0.74180  0.58490  0.01960  Biso   1.000  O
  O5       1.0000 0.56910  0.25000  0.11410  Biso   1.000  O
  O6       1.0000 0.43090  0.75000  0.88590  Biso   1.000  O
  H15      1.0000 0.48600  0.25000  0.05900  Biso   1.000  H
  H16      1.0000 0.51400  0.75000  0.94100  Biso   1.000  H
  Cl1      1.0000 0.34135  0.25000  0.57557  Biso   1.000  Cl
  Cl2      1.0000 0.65865  0.75000  0.42443  Biso   1.000  Cl
