data_image0
_cell_length_a       7.111
_cell_length_b       3.727
_cell_length_c       14.084
_cell_angle_alpha    90
_cell_angle_beta     101.357
_cell_angle_gamma    90

_symmetry_space_group_name_H-M    "P 1"
_symmetry_int_tables_number       1

loop_
  _symmetry_equiv_pos_as_xyz
  'x, y, z'

loop_
  _atom_site_label
  _atom_site_occupancy
  _atom_site_fract_x
  _atom_site_fract_y
  _atom_site_fract_z
  _atom_site_thermal_displace_type
  _atom_site_B_iso_or_equiv
  _atom_site_type_symbol
  Cu1      1.0000 0.54190  0.06250  0.07999  Biso   1.000  Cu
  Cu2      1.0000 0.45810  0.56250  0.92001  Biso   1.000  Cu
  Cl1      1.0000 0.66000  0.05480  0.92500  Biso   1.000  Cl
  Cl2      1.0000 0.34000  0.55480  0.07500  Biso   1.000  Cl
  O1       1.0000 0.43600  0.07700  0.38640  Biso   1.000  O
  O2       1.0000 0.56400  0.57700  0.61360  Biso   1.000  O
  H1       1.0000 0.52900  0.94360  0.39000  Biso   1.000  H
  H2       1.0000 0.47100  0.44360  0.61000  Biso   1.000  H
  O3       1.0000 0.26360  0.72400  0.47980  Biso   1.000  O
  O4       1.0000 0.73640  0.22400  0.52020  Biso   1.000  O
  N1       1.0000 0.77730  0.01000  0.18290  Biso   1.000  N
  N2       1.0000 0.22270  0.51000  0.81710  Biso   1.000  N
  C1       1.0000 0.95740  0.09700  0.16520  Biso   1.000  C
  C2       1.0000 0.04260  0.59700  0.83480  Biso   1.000  C
  H3       1.0000 0.96910  0.19090  0.10550  Biso   1.000  H
  H4       1.0000 0.03090  0.69090  0.89450  Biso   1.000  H
  C3       1.0000 0.11990  0.04300  0.23670  Biso   1.000  C
  C4       1.0000 0.88010  0.54300  0.76330  Biso   1.000  C
  H5       1.0000 0.24030  0.10120  0.22490  Biso   1.000  H
  H6       1.0000 0.75970  0.60120  0.77510  Biso   1.000  H
  C5       1.0000 0.10230  0.90200  0.32600  Biso   1.000  C
  C6       1.0000 0.89770  0.40200  0.67400  Biso   1.000  C
  C7       1.0000 0.92230  0.81600  0.34370  Biso   1.000  C
  C8       1.0000 0.07770  0.31600  0.65630  Biso   1.000  C
  H7       1.0000 0.91050  0.72150  0.40340  Biso   1.000  H
  H8       1.0000 0.08950  0.22150  0.59660  Biso   1.000  H
  C9       1.0000 0.75980  0.86900  0.27220  Biso   1.000  C
  C10      1.0000 0.24020  0.36900  0.72780  Biso   1.000  C
  H9       1.0000 0.63930  0.81120  0.28400  Biso   1.000  H
  H10      1.0000 0.36070  0.31120  0.71600  Biso   1.000  H
  C11      1.0000 0.27600  0.87600  0.40500  Biso   1.000  C
  C12      1.0000 0.72400  0.37600  0.59500  Biso   1.000  C
