data_image0
_cell_length_a       8.3137
_cell_length_b       12.7112
_cell_length_c       10.4351
_cell_angle_alpha    90
_cell_angle_beta     99.641
_cell_angle_gamma    90

_symmetry_space_group_name_H-M    "P 1"
_symmetry_int_tables_number       1

loop_
  _symmetry_equiv_pos_as_xyz
  'x, y, z'

loop_
  _atom_site_label
  _atom_site_occupancy
  _atom_site_fract_x
  _atom_site_fract_y
  _atom_site_fract_z
  _atom_site_thermal_displace_type
  _atom_site_B_iso_or_equiv
  _atom_site_type_symbol
  N1       1.0000 0.33620  0.80349  0.95550  Biso   1.000  N
  N2       1.0000 0.66380  0.30349  0.54450  Biso   1.000  N
  N3       1.0000 0.66380  0.19651  0.04450  Biso   1.000  N
  N4       1.0000 0.33620  0.69651  0.45550  Biso   1.000  N
  C1       1.0000 0.23960  0.82668  0.04260  Biso   1.000  C
  C2       1.0000 0.76040  0.32668  0.45740  Biso   1.000  C
  C3       1.0000 0.76040  0.17332  0.95740  Biso   1.000  C
  C4       1.0000 0.23960  0.67332  0.54260  Biso   1.000  C
  H1       1.0000 0.26680  0.88640  0.09650  Biso   1.000  H
  H2       1.0000 0.73320  0.38640  0.40350  Biso   1.000  H
  H3       1.0000 0.73320  0.11360  0.90350  Biso   1.000  H
  H4       1.0000 0.26680  0.61360  0.59650  Biso   1.000  H
  H5       1.0000 0.87600  0.60100  0.91500  Biso   1.000  H
  H6       1.0000 0.12400  0.10100  0.58500  Biso   1.000  H
  H7       1.0000 0.12400  0.39900  0.08500  Biso   1.000  H
  H8       1.0000 0.87600  0.89900  0.41500  Biso   1.000  H
  I1       1.0000 0.69646  0.92577  0.15684  Biso   1.000  I
  I2       1.0000 0.30354  0.42577  0.34316  Biso   1.000  I
  I3       1.0000 0.30354  0.07423  0.84316  Biso   1.000  I
  I4       1.0000 0.69646  0.57423  0.65684  Biso   1.000  I
  Cu1      1.0000 0.50772  0.90955  0.92494  Biso   1.000  Cu
  Cu2      1.0000 0.49228  0.40955  0.57506  Biso   1.000  Cu
  Cu3      1.0000 0.49228  0.09045  0.07506  Biso   1.000  Cu
  Cu4      1.0000 0.50772  0.59045  0.42494  Biso   1.000  Cu
  C5       1.0000 0.29490  0.71814  0.88110  Biso   1.000  C
  C6       1.0000 0.70510  0.21814  0.61890  Biso   1.000  C
  C7       1.0000 0.70510  0.28186  0.11890  Biso   1.000  C
  C8       1.0000 0.29490  0.78186  0.38110  Biso   1.000  C
  H9       1.0000 0.36220  0.69930  0.81960  Biso   1.000  H
  H10      1.0000 0.63780  0.19930  0.68040  Biso   1.000  H
  H11      1.0000 0.63780  0.30070  0.18040  Biso   1.000  H
  H12      1.0000 0.36220  0.80070  0.31960  Biso   1.000  H
  C9       1.0000 0.90310  0.62608  0.21400  Biso   1.000  C
  C10      1.0000 0.09690  0.12608  0.28600  Biso   1.000  C
  C11      1.0000 0.09690  0.37392  0.78600  Biso   1.000  C
  C12      1.0000 0.90310  0.87392  0.71400  Biso   1.000  C
  H13      1.0000 0.01790  0.63410  0.23720  Biso   1.000  H
  H14      1.0000 0.98210  0.13410  0.26280  Biso   1.000  H
  H15      1.0000 0.98210  0.36590  0.76280  Biso   1.000  H
  H16      1.0000 0.01790  0.86590  0.73720  Biso   1.000  H
  N5       1.0000 0.91860  0.62572  0.98210  Biso   1.000  N
  N6       1.0000 0.08140  0.12572  0.51790  Biso   1.000  N
  N7       1.0000 0.08140  0.37428  0.01790  Biso   1.000  N
  N8       1.0000 0.91860  0.87428  0.48210  Biso   1.000  N
  N9       1.0000 0.64220  0.60524  0.28350  Biso   1.000  N
  N10      1.0000 0.35780  0.10524  0.21650  Biso   1.000  N
  N11      1.0000 0.35780  0.39476  0.71650  Biso   1.000  N
  N12      1.0000 0.64220  0.89476  0.78350  Biso   1.000  N
  C13      1.0000 0.10370  0.76972  0.05890  Biso   1.000  C
  C14      1.0000 0.89630  0.26972  0.44110  Biso   1.000  C
  C15      1.0000 0.89630  0.23028  0.94110  Biso   1.000  C
  C16      1.0000 0.10370  0.73028  0.55890  Biso   1.000  C
  H17      1.0000 0.04080  0.78940  0.12310  Biso   1.000  H
  H18      1.0000 0.95920  0.28940  0.37690  Biso   1.000  H
  H19      1.0000 0.95920  0.21060  0.87690  Biso   1.000  H
  H20      1.0000 0.04080  0.71060  0.62310  Biso   1.000  H
  C17      1.0000 0.06000  0.68233  0.97930  Biso   1.000  C
  C18      1.0000 0.94000  0.18233  0.52070  Biso   1.000  C
  C19      1.0000 0.94000  0.31767  0.02070  Biso   1.000  C
  C20      1.0000 0.06000  0.81767  0.47930  Biso   1.000  C
  C21      1.0000 0.82970  0.62240  0.08350  Biso   1.000  C
  C22      1.0000 0.17030  0.12240  0.41650  Biso   1.000  C
  C23      1.0000 0.17030  0.37760  0.91650  Biso   1.000  C
  C24      1.0000 0.82970  0.87760  0.58350  Biso   1.000  C
  C25      1.0000 0.80570  0.61776  0.30860  Biso   1.000  C
  C26      1.0000 0.19430  0.11776  0.19140  Biso   1.000  C
  C27      1.0000 0.19430  0.38224  0.69140  Biso   1.000  C
  C28      1.0000 0.80570  0.88224  0.80860  Biso   1.000  C
  H21      1.0000 0.85710  0.62110  0.39700  Biso   1.000  H
  H22      1.0000 0.14290  0.12110  0.10300  Biso   1.000  H
  H23      1.0000 0.14290  0.37890  0.60300  Biso   1.000  H
  H24      1.0000 0.85710  0.87890  0.89700  Biso   1.000  H
  C29      1.0000 0.16060  0.65646  0.88890  Biso   1.000  C
  C30      1.0000 0.83940  0.15646  0.61110  Biso   1.000  C
  C31      1.0000 0.83940  0.34354  0.11110  Biso   1.000  C
  C32      1.0000 0.16060  0.84354  0.38890  Biso   1.000  C
  H25      1.0000 0.13660  0.59710  0.83370  Biso   1.000  H
  H26      1.0000 0.86340  0.09710  0.66630  Biso   1.000  H
  H27      1.0000 0.86340  0.40290  0.16630  Biso   1.000  H
  H28      1.0000 0.13660  0.90290  0.33370  Biso   1.000  H
  C33      1.0000 0.66020  0.60888  0.05580  Biso   1.000  C
  C34      1.0000 0.33980  0.10888  0.44420  Biso   1.000  C
  C35      1.0000 0.33980  0.39112  0.94420  Biso   1.000  C
  C36      1.0000 0.66020  0.89112  0.55580  Biso   1.000  C
  H29      1.0000 0.60580  0.60500  0.96830  Biso   1.000  H
  H30      1.0000 0.39420  0.10500  0.53170  Biso   1.000  H
  H31      1.0000 0.39420  0.39500  0.03170  Biso   1.000  H
  H32      1.0000 0.60580  0.89500  0.46830  Biso   1.000  H
  C37      1.0000 0.57380  0.60136  0.15650  Biso   1.000  C
  C38      1.0000 0.42620  0.10136  0.34350  Biso   1.000  C
  C39      1.0000 0.42620  0.39864  0.84350  Biso   1.000  C
  C40      1.0000 0.57380  0.89864  0.65650  Biso   1.000  C
  H33      1.0000 0.45880  0.59290  0.13580  Biso   1.000  H
  H34      1.0000 0.54120  0.09290  0.36420  Biso   1.000  H
  H35      1.0000 0.54120  0.40710  0.86420  Biso   1.000  H
  H36      1.0000 0.45880  0.90710  0.63580  Biso   1.000  H
