data_image0
_cell_length_a       6.3234
_cell_length_b       16.44
_cell_length_c       8.739
_cell_angle_alpha    90
_cell_angle_beta     96.49
_cell_angle_gamma    90

_symmetry_space_group_name_H-M    "P 1"
_symmetry_int_tables_number       1

loop_
  _symmetry_equiv_pos_as_xyz
  'x, y, z'

loop_
  _atom_site_label
  _atom_site_occupancy
  _atom_site_fract_x
  _atom_site_fract_y
  _atom_site_fract_z
  _atom_site_thermal_displace_type
  _atom_site_B_iso_or_equiv
  _atom_site_type_symbol
  Cu1      1.0000 0.76740  0.13492  0.71746  Biso   1.000  Cu
  Cu2      1.0000 0.23260  0.63492  0.78254  Biso   1.000  Cu
  Cu3      1.0000 0.23260  0.86508  0.28254  Biso   1.000  Cu
  Cu4      1.0000 0.76740  0.36508  0.21746  Biso   1.000  Cu
  Cu5      1.0000 0.76104  0.99538  0.49457  Biso   1.000  Cu
  Cu6      1.0000 0.23896  0.49538  0.00543  Biso   1.000  Cu
  Cu7      1.0000 0.23896  0.00462  0.50543  Biso   1.000  Cu
  Cu8      1.0000 0.76104  0.50462  0.99457  Biso   1.000  Cu
  Cl1      1.0000 0.53199  0.02226  0.69808  Biso   1.000  Cl
  Cl2      1.0000 0.46801  0.52226  0.80192  Biso   1.000  Cl
  Cl3      1.0000 0.46801  0.97774  0.30192  Biso   1.000  Cl
  Cl4      1.0000 0.53199  0.47774  0.19808  Biso   1.000  Cl
  Cl5      1.0000 0.98439  0.10621  0.45738  Biso   1.000  Cl
  Cl6      1.0000 0.01561  0.60621  0.04262  Biso   1.000  Cl
  Cl7      1.0000 0.01561  0.89379  0.54262  Biso   1.000  Cl
  Cl8      1.0000 0.98439  0.39379  0.95738  Biso   1.000  Cl
  N1       1.0000 0.61220  0.27619  0.10710  Biso   1.000  N
  N2       1.0000 0.38780  0.77619  0.39290  Biso   1.000  N
  N3       1.0000 0.38780  0.72381  0.89290  Biso   1.000  N
  N4       1.0000 0.61220  0.22381  0.60710  Biso   1.000  N
  N5       1.0000 0.37320  0.21559  0.94160  Biso   1.000  N
  N6       1.0000 0.62680  0.71559  0.55840  Biso   1.000  N
  N7       1.0000 0.62680  0.78441  0.05840  Biso   1.000  N
  N8       1.0000 0.37320  0.28441  0.44160  Biso   1.000  N
  C1       1.0000 0.46530  0.28650  0.98760  Biso   1.000  C
  C2       1.0000 0.53470  0.78650  0.51240  Biso   1.000  C
  C3       1.0000 0.53470  0.71350  0.01240  Biso   1.000  C
  C4       1.0000 0.46530  0.21350  0.48760  Biso   1.000  C
  H1       1.0000 0.43050  0.33650  0.94150  Biso   1.000  H
  H2       1.0000 0.56950  0.83650  0.55850  Biso   1.000  H
  H3       1.0000 0.56950  0.66350  0.05850  Biso   1.000  H
  H4       1.0000 0.43050  0.16350  0.44150  Biso   1.000  H
  C5       1.0000 0.46810  0.15640  0.03830  Biso   1.000  C
  C6       1.0000 0.53190  0.65640  0.46170  Biso   1.000  C
  C7       1.0000 0.53190  0.84360  0.96170  Biso   1.000  C
  C8       1.0000 0.46810  0.34360  0.53830  Biso   1.000  C
  H5       1.0000 0.43700  0.10110  0.03500  Biso   1.000  H
  H6       1.0000 0.56300  0.60110  0.46500  Biso   1.000  H
  H7       1.0000 0.56300  0.89890  0.96500  Biso   1.000  H
  H8       1.0000 0.43700  0.39890  0.53500  Biso   1.000  H
  C9       1.0000 0.61390  0.19390  0.13810  Biso   1.000  C
  C10      1.0000 0.38610  0.69390  0.36190  Biso   1.000  C
  C11      1.0000 0.38610  0.80610  0.86190  Biso   1.000  C
  C12      1.0000 0.61390  0.30610  0.63810  Biso   1.000  C
  H9       1.0000 0.70210  0.16830  0.21590  Biso   1.000  H
  H10      1.0000 0.29790  0.66830  0.28410  Biso   1.000  H
  H11      1.0000 0.29790  0.83170  0.78410  Biso   1.000  H
  H12      1.0000 0.70210  0.33170  0.71590  Biso   1.000  H
  C13      1.0000 0.19980  0.20370  0.81810  Biso   1.000  C
  C14      1.0000 0.80020  0.70370  0.68190  Biso   1.000  C
  C15      1.0000 0.80020  0.79630  0.18190  Biso   1.000  C
  C16      1.0000 0.19980  0.29630  0.31810  Biso   1.000  C
  H13      1.0000 0.16410  0.25510  0.76710  Biso   1.000  H
  H14      1.0000 0.83590  0.75510  0.73290  Biso   1.000  H
  H15      1.0000 0.83590  0.74490  0.23290  Biso   1.000  H
  H16      1.0000 0.16410  0.24490  0.26710  Biso   1.000  H
  H17      1.0000 0.24400  0.16600  0.74240  Biso   1.000  H
  H18      1.0000 0.75600  0.66600  0.75760  Biso   1.000  H
  H19      1.0000 0.75600  0.83400  0.25760  Biso   1.000  H
  H20      1.0000 0.24400  0.33400  0.24240  Biso   1.000  H
  C17      1.0000 0.00920  0.17060  0.88460  Biso   1.000  C
  C18      1.0000 0.99080  0.67060  0.61540  Biso   1.000  C
  C19      1.0000 0.99080  0.82940  0.11540  Biso   1.000  C
  C20      1.0000 0.00920  0.32940  0.38460  Biso   1.000  C
  H21      1.0000 0.91400  0.20650  0.92240  Biso   1.000  H
  H22      1.0000 0.08600  0.70650  0.57760  Biso   1.000  H
  H23      1.0000 0.08600  0.79350  0.07760  Biso   1.000  H
  H24      1.0000 0.91400  0.29350  0.42240  Biso   1.000  H
  C21      1.0000 0.97190  0.08840  0.89090  Biso   1.000  C
  C22      1.0000 0.02810  0.58840  0.60910  Biso   1.000  C
  C23      1.0000 0.02810  0.91160  0.10910  Biso   1.000  C
  C24      1.0000 0.97190  0.41160  0.39090  Biso   1.000  C
  H25      1.0000 0.06600  0.05190  0.85330  Biso   1.000  H
  H26      1.0000 0.93400  0.55190  0.64670  Biso   1.000  H
  H27      1.0000 0.93400  0.94810  0.14670  Biso   1.000  H
  H28      1.0000 0.06600  0.44810  0.35330  Biso   1.000  H
  H29      1.0000 0.85250  0.06920  0.93260  Biso   1.000  H
  H30      1.0000 0.14750  0.56920  0.56740  Biso   1.000  H
  H31      1.0000 0.14750  0.93080  0.06740  Biso   1.000  H
  H32      1.0000 0.85250  0.43080  0.43260  Biso   1.000  H
