data_image0
_cell_length_a       6.4149
_cell_length_b       17.333
_cell_length_c       8.6356
_cell_angle_alpha    90
_cell_angle_beta     98.17
_cell_angle_gamma    90

_symmetry_space_group_name_H-M    "P 1"
_symmetry_int_tables_number       1

loop_
  _symmetry_equiv_pos_as_xyz
  'x, y, z'

loop_
  _atom_site_label
  _atom_site_occupancy
  _atom_site_fract_x
  _atom_site_fract_y
  _atom_site_fract_z
  _atom_site_thermal_displace_type
  _atom_site_B_iso_or_equiv
  _atom_site_type_symbol
  Br1      1.0000 0.54110  0.47920  0.21869  Biso   1.000  Br
  Br2      1.0000 0.45890  0.97920  0.28131  Biso   1.000  Br
  Br3      1.0000 0.45890  0.52080  0.78131  Biso   1.000  Br
  Br4      1.0000 0.54110  0.02080  0.71869  Biso   1.000  Br
  Br5      1.0000 0.98730  0.39479  0.95648  Biso   1.000  Br
  Br6      1.0000 0.01270  0.89479  0.54352  Biso   1.000  Br
  Br7      1.0000 0.01270  0.60521  0.04352  Biso   1.000  Br
  Br8      1.0000 0.98730  0.10521  0.45648  Biso   1.000  Br
  Cu1      1.0000 0.77910  0.36541  0.22578  Biso   1.000  Cu
  Cu2      1.0000 0.22090  0.86541  0.27422  Biso   1.000  Cu
  Cu3      1.0000 0.22090  0.63459  0.77422  Biso   1.000  Cu
  Cu4      1.0000 0.77910  0.13459  0.72578  Biso   1.000  Cu
  Cu5      1.0000 0.75570  0.50186  0.99954  Biso   1.000  Cu
  Cu6      1.0000 0.24430  0.00186  0.50046  Biso   1.000  Cu
  Cu7      1.0000 0.24430  0.49814  0.00046  Biso   1.000  Cu
  Cu8      1.0000 0.75570  0.99814  0.49954  Biso   1.000  Cu
  N1       1.0000 0.38060  0.27840  0.45120  Biso   1.000  N
  N2       1.0000 0.61940  0.77840  0.04880  Biso   1.000  N
  N3       1.0000 0.61940  0.72160  0.54880  Biso   1.000  N
  N4       1.0000 0.38060  0.22160  0.95120  Biso   1.000  N
  N5       1.0000 0.61800  0.21810  0.61200  Biso   1.000  N
  N6       1.0000 0.38200  0.71810  0.88800  Biso   1.000  N
  N7       1.0000 0.38200  0.78190  0.38800  Biso   1.000  N
  N8       1.0000 0.61800  0.28190  0.11200  Biso   1.000  N
  C1       1.0000 0.46930  0.21090  0.49410  Biso   1.000  C
  C2       1.0000 0.53070  0.71090  0.00590  Biso   1.000  C
  C3       1.0000 0.53070  0.78910  0.50590  Biso   1.000  C
  C4       1.0000 0.46930  0.28910  0.99410  Biso   1.000  C
  H1       1.0000 0.42960  0.16420  0.44560  Biso   1.000  H
  H2       1.0000 0.57040  0.66420  0.05440  Biso   1.000  H
  H3       1.0000 0.57040  0.83580  0.55440  Biso   1.000  H
  H4       1.0000 0.42960  0.33580  0.94560  Biso   1.000  H
  C5       1.0000 0.48190  0.33290  0.54780  Biso   1.000  C
  C6       1.0000 0.51810  0.83290  0.95220  Biso   1.000  C
  C7       1.0000 0.51810  0.66710  0.45220  Biso   1.000  C
  C8       1.0000 0.48190  0.16710  0.04780  Biso   1.000  C
  H5       1.0000 0.45600  0.38570  0.54570  Biso   1.000  H
  H6       1.0000 0.54400  0.88570  0.95430  Biso   1.000  H
  H7       1.0000 0.54400  0.61430  0.45430  Biso   1.000  H
  H8       1.0000 0.45600  0.11430  0.04570  Biso   1.000  H
  C9       1.0000 0.62410  0.29540  0.64480  Biso   1.000  C
  C10      1.0000 0.37590  0.79540  0.85520  Biso   1.000  C
  C11      1.0000 0.37590  0.70460  0.35520  Biso   1.000  C
  C12      1.0000 0.62410  0.20460  0.14480  Biso   1.000  C
  H9       1.0000 0.71600  0.31840  0.72460  Biso   1.000  H
  H10      1.0000 0.28400  0.81840  0.77540  Biso   1.000  H
  H11      1.0000 0.28400  0.68160  0.27540  Biso   1.000  H
  H12      1.0000 0.71600  0.18160  0.22460  Biso   1.000  H
  C13      1.0000 0.20320  0.29350  0.32680  Biso   1.000  C
  C14      1.0000 0.79680  0.79350  0.17320  Biso   1.000  C
  C15      1.0000 0.79680  0.70650  0.67320  Biso   1.000  C
  C16      1.0000 0.20320  0.20650  0.82680  Biso   1.000  C
  H13      1.0000 0.24680  0.32950  0.25160  Biso   1.000  H
  H14      1.0000 0.75320  0.82950  0.24840  Biso   1.000  H
  H15      1.0000 0.75320  0.67050  0.74840  Biso   1.000  H
  H16      1.0000 0.24680  0.17050  0.75160  Biso   1.000  H
  H17      1.0000 0.16100  0.24580  0.27250  Biso   1.000  H
  H18      1.0000 0.83900  0.74580  0.22750  Biso   1.000  H
  H19      1.0000 0.83900  0.75420  0.72750  Biso   1.000  H
  H20      1.0000 0.16100  0.25420  0.77250  Biso   1.000  H
  C17      1.0000 0.02000  0.32650  0.39560  Biso   1.000  C
  C18      1.0000 0.98000  0.82650  0.10440  Biso   1.000  C
  C19      1.0000 0.98000  0.67350  0.60440  Biso   1.000  C
  C20      1.0000 0.02000  0.17350  0.89560  Biso   1.000  C
  H21      1.0000 0.92280  0.29290  0.42920  Biso   1.000  H
  H22      1.0000 0.07720  0.79290  0.07080  Biso   1.000  H
  H23      1.0000 0.07720  0.70710  0.57080  Biso   1.000  H
  H24      1.0000 0.92280  0.20710  0.92920  Biso   1.000  H
  C21      1.0000 0.99200  0.40440  0.41040  Biso   1.000  C
  C22      1.0000 0.00800  0.90440  0.08960  Biso   1.000  C
  C23      1.0000 0.00800  0.59560  0.58960  Biso   1.000  C
  C24      1.0000 0.99200  0.09560  0.91040  Biso   1.000  C
  H25      1.0000 0.08790  0.43880  0.37730  Biso   1.000  H
  H26      1.0000 0.91210  0.93880  0.12270  Biso   1.000  H
  H27      1.0000 0.91210  0.56120  0.62270  Biso   1.000  H
  H28      1.0000 0.08790  0.06120  0.87730  Biso   1.000  H
  H29      1.0000 0.87680  0.42290  0.45350  Biso   1.000  H
  H30      1.0000 0.12320  0.92290  0.04650  Biso   1.000  H
  H31      1.0000 0.12320  0.57710  0.54650  Biso   1.000  H
  H32      1.0000 0.87680  0.07710  0.95350  Biso   1.000  H
