data_image0
_cell_length_a       21.831
_cell_length_b       13.347
_cell_length_c       18.266
_cell_angle_alpha    90
_cell_angle_beta     111.33
_cell_angle_gamma    90

_symmetry_space_group_name_H-M    "P 1"
_symmetry_int_tables_number       1

loop_
  _symmetry_equiv_pos_as_xyz
  'x, y, z'

loop_
  _atom_site_label
  _atom_site_occupancy
  _atom_site_fract_x
  _atom_site_fract_y
  _atom_site_fract_z
  _atom_site_thermal_displace_type
  _atom_site_B_iso_or_equiv
  _atom_site_type_symbol
  Cu1      1.0000 0.13062  0.57991  0.20617  Biso   1.000  Cu
  Cu2      1.0000 0.86938  0.07991  0.29383  Biso   1.000  Cu
  Cu3      1.0000 0.86938  0.42009  0.79383  Biso   1.000  Cu
  Cu4      1.0000 0.13062  0.92009  0.70617  Biso   1.000  Cu
  Cu5      1.0000 0.24403  0.51080  0.32039  Biso   1.000  Cu
  Cu6      1.0000 0.75597  0.01080  0.17961  Biso   1.000  Cu
  Cu7      1.0000 0.75597  0.48920  0.67961  Biso   1.000  Cu
  Cu8      1.0000 0.24403  0.98920  0.82039  Biso   1.000  Cu
  Cu9      1.0000 0.31678  0.54001  0.23870  Biso   1.000  Cu
  Cu10     1.0000 0.68322  0.04001  0.26130  Biso   1.000  Cu
  Cu11     1.0000 0.68322  0.45999  0.76130  Biso   1.000  Cu
  Cu12     1.0000 0.31678  0.95999  0.73870  Biso   1.000  Cu
  Cu13     1.0000 0.40710  0.36085  0.22347  Biso   1.000  Cu
  Cu14     1.0000 0.59290  0.86085  0.27653  Biso   1.000  Cu
  Cu15     1.0000 0.59290  0.63915  0.77653  Biso   1.000  Cu
  Cu16     1.0000 0.40710  0.13915  0.72347  Biso   1.000  Cu
  Cu17     1.0000 0.26013  0.71687  0.47869  Biso   1.000  Cu
  Cu18     1.0000 0.73987  0.21687  0.02131  Biso   1.000  Cu
  Cu19     1.0000 0.73987  0.28313  0.52131  Biso   1.000  Cu
  Cu20     1.0000 0.26013  0.78313  0.97869  Biso   1.000  Cu
  Cu21     1.0000 0.08045  0.25238  0.83636  Biso   1.000  Cu
  Cu22     1.0000 0.91955  0.75238  0.66364  Biso   1.000  Cu
  Cu23     1.0000 0.91955  0.74762  0.16364  Biso   1.000  Cu
  Cu24     1.0000 0.08045  0.24762  0.33636  Biso   1.000  Cu
  Br1      1.0000 0.02002  0.62370  0.13246  Biso   1.000  Br
  Br2      1.0000 0.97998  0.12370  0.36754  Biso   1.000  Br
  Br3      1.0000 0.97998  0.37630  0.86754  Biso   1.000  Br
  Br4      1.0000 0.02002  0.87630  0.63246  Biso   1.000  Br
  Br5      1.0000 0.21077  0.61171  0.15006  Biso   1.000  Br
  Br6      1.0000 0.78923  0.11171  0.34994  Biso   1.000  Br
  Br7      1.0000 0.78923  0.38829  0.84994  Biso   1.000  Br
  Br8      1.0000 0.21077  0.88829  0.65006  Biso   1.000  Br
  Br9      1.0000 0.14196  0.51500  0.33475  Biso   1.000  Br
  Br10     1.0000 0.85804  0.01500  0.16525  Biso   1.000  Br
  Br11     1.0000 0.85804  0.48500  0.66525  Biso   1.000  Br
  Br12     1.0000 0.14196  0.98500  0.83475  Biso   1.000  Br
  Br13     1.0000 0.32658  0.63622  0.37164  Biso   1.000  Br
  Br14     1.0000 0.67342  0.13622  0.12836  Biso   1.000  Br
  Br15     1.0000 0.67342  0.36378  0.62836  Biso   1.000  Br
  Br16     1.0000 0.32658  0.86378  0.87164  Biso   1.000  Br
  Br17     1.0000 0.28638  0.36766  0.27499  Biso   1.000  Br
  Br18     1.0000 0.71362  0.86766  0.22501  Biso   1.000  Br
  Br19     1.0000 0.71362  0.63234  0.72501  Biso   1.000  Br
  Br20     1.0000 0.28638  0.13234  0.77499  Biso   1.000  Br
  Br21     1.0000 0.41787  0.56214  0.22082  Biso   1.000  Br
  Br22     1.0000 0.58213  0.06214  0.27918  Biso   1.000  Br
  Br23     1.0000 0.58213  0.43786  0.77918  Biso   1.000  Br
  Br24     1.0000 0.41787  0.93786  0.72082  Biso   1.000  Br
  N1       1.0000 0.52650  0.25720  0.43690  Biso   1.000  N
  N2       1.0000 0.47350  0.75720  0.06310  Biso   1.000  N
  N3       1.0000 0.47350  0.74280  0.56310  Biso   1.000  N
  N4       1.0000 0.52650  0.24280  0.93690  Biso   1.000  N
  N5       1.0000 0.45990  0.33460  0.33180  Biso   1.000  N
  N6       1.0000 0.54010  0.83460  0.16820  Biso   1.000  N
  N7       1.0000 0.54010  0.66540  0.66820  Biso   1.000  N
  N8       1.0000 0.45990  0.16540  0.83180  Biso   1.000  N
  N9       1.0000 0.37020  0.31920  0.11520  Biso   1.000  N
  N10      1.0000 0.62980  0.81920  0.38480  Biso   1.000  N
  N11      1.0000 0.62980  0.68080  0.88480  Biso   1.000  N
  N12      1.0000 0.37020  0.18080  0.61520  Biso   1.000  N
  N13      1.0000 0.31410  0.31510  0.98700  Biso   1.000  N
  N14      1.0000 0.68590  0.81510  0.51300  Biso   1.000  N
  N15      1.0000 0.68590  0.68490  0.01300  Biso   1.000  N
  N16      1.0000 0.31410  0.18490  0.48700  Biso   1.000  N
  N17      1.0000 0.38240  0.62530  0.69070  Biso   1.000  N
  N18      1.0000 0.61760  0.12530  0.80930  Biso   1.000  N
  N19      1.0000 0.61760  0.37470  0.30930  Biso   1.000  N
  N20      1.0000 0.38240  0.87470  0.19070  Biso   1.000  N
  N21      1.0000 0.32260  0.65560  0.56710  Biso   1.000  N
  N22      1.0000 0.67740  0.15560  0.93290  Biso   1.000  N
  N23      1.0000 0.67740  0.34440  0.43290  Biso   1.000  N
  N24      1.0000 0.32260  0.84440  0.06710  Biso   1.000  N
  N25      1.0000 0.19160  0.79430  0.40950  Biso   1.000  N
  N26      1.0000 0.80840  0.29430  0.09050  Biso   1.000  N
  N27      1.0000 0.80840  0.20570  0.59050  Biso   1.000  N
  N28      1.0000 0.19160  0.70570  0.90950  Biso   1.000  N
  N29      1.0000 0.11870  0.85730  0.30230  Biso   1.000  N
  N30      1.0000 0.88130  0.35730  0.19770  Biso   1.000  N
  N31      1.0000 0.88130  0.14270  0.69770  Biso   1.000  N
  N32      1.0000 0.11870  0.64270  0.80230  Biso   1.000  N
  N33      1.0000 0.20800  0.21940  0.05890  Biso   1.000  N
  N34      1.0000 0.79200  0.71940  0.44110  Biso   1.000  N
  N35      1.0000 0.79200  0.78060  0.94110  Biso   1.000  N
  N36      1.0000 0.20800  0.28060  0.55890  Biso   1.000  N
  N37      1.0000 0.13740  0.25990  0.94310  Biso   1.000  N
  N38      1.0000 0.86260  0.75990  0.55690  Biso   1.000  N
  N39      1.0000 0.86260  0.74010  0.05690  Biso   1.000  N
  N40      1.0000 0.13740  0.24010  0.44310  Biso   1.000  N
  N41      1.0000 0.03990  0.23660  0.72660  Biso   1.000  N
  N42      1.0000 0.96010  0.73660  0.77340  Biso   1.000  N
  N43      1.0000 0.96010  0.76340  0.27340  Biso   1.000  N
  N44      1.0000 0.03990  0.26340  0.22660  Biso   1.000  N
  N45      1.0000 0.98160  0.27030  0.60330  Biso   1.000  N
  N46      1.0000 0.01840  0.77030  0.89670  Biso   1.000  N
  N47      1.0000 0.01840  0.72970  0.39670  Biso   1.000  N
  N48      1.0000 0.98160  0.22970  0.10330  Biso   1.000  N
  C1       1.0000 0.48900  0.08980  0.53080  Biso   1.000  C
  C2       1.0000 0.51100  0.58980  0.96920  Biso   1.000  C
  C3       1.0000 0.51100  0.91020  0.46920  Biso   1.000  C
  C4       1.0000 0.48900  0.41020  0.03080  Biso   1.000  C
  H1       1.0000 0.48120  0.14990  0.55170  Biso   1.000  H
  H2       1.0000 0.51880  0.64990  0.94830  Biso   1.000  H
  H3       1.0000 0.51880  0.85010  0.44830  Biso   1.000  H
  H4       1.0000 0.48120  0.35010  0.05170  Biso   1.000  H
  C5       1.0000 0.54390  0.99630  0.46190  Biso   1.000  C
  C6       1.0000 0.45610  0.49630  0.03810  Biso   1.000  C
  C7       1.0000 0.45610  0.00370  0.53810  Biso   1.000  C
  C8       1.0000 0.54390  0.50370  0.96190  Biso   1.000  C
  H5       1.0000 0.57350  0.99340  0.43600  Biso   1.000  H
  H6       1.0000 0.42650  0.49340  0.06400  Biso   1.000  H
  H7       1.0000 0.42650  0.00660  0.56400  Biso   1.000  H
  H8       1.0000 0.57350  0.50660  0.93600  Biso   1.000  H
  C9       1.0000 0.53310  0.08650  0.49270  Biso   1.000  C
  C10      1.0000 0.46690  0.58650  0.00730  Biso   1.000  C
  C11      1.0000 0.46690  0.91350  0.50730  Biso   1.000  C
  C12      1.0000 0.53310  0.41350  0.99270  Biso   1.000  C
  C13      1.0000 0.57060  0.17880  0.48490  Biso   1.000  C
  C14      1.0000 0.42940  0.67880  0.01510  Biso   1.000  C
  C15      1.0000 0.42940  0.82120  0.51510  Biso   1.000  C
  C16      1.0000 0.57060  0.32120  0.98490  Biso   1.000  C
  H9       1.0000 0.59500  0.20540  0.53680  Biso   1.000  H
  H10      1.0000 0.40500  0.70540  0.96320  Biso   1.000  H
  H11      1.0000 0.40500  0.79460  0.46320  Biso   1.000  H
  H12      1.0000 0.59500  0.29460  0.03680  Biso   1.000  H
  H13      1.0000 0.60200  0.16020  0.46090  Biso   1.000  H
  H14      1.0000 0.39800  0.66020  0.03910  Biso   1.000  H
  H15      1.0000 0.39800  0.83980  0.53910  Biso   1.000  H
  H16      1.0000 0.60200  0.33980  0.96090  Biso   1.000  H
  C17      1.0000 0.50070  0.25790  0.35800  Biso   1.000  C
  C18      1.0000 0.49930  0.75790  0.14200  Biso   1.000  C
  C19      1.0000 0.49930  0.74210  0.64200  Biso   1.000  C
  C20      1.0000 0.50070  0.24210  0.85800  Biso   1.000  C
  H17      1.0000 0.51020  0.21100  0.32600  Biso   1.000  H
  H18      1.0000 0.48980  0.71100  0.17400  Biso   1.000  H
  H19      1.0000 0.48980  0.78900  0.67400  Biso   1.000  H
  H20      1.0000 0.51020  0.28900  0.82600  Biso   1.000  H
  C21      1.0000 0.50100  0.33760  0.46270  Biso   1.000  C
  C22      1.0000 0.49900  0.83760  0.03730  Biso   1.000  C
  C23      1.0000 0.49900  0.66240  0.53730  Biso   1.000  C
  C24      1.0000 0.50100  0.16240  0.96270  Biso   1.000  C
  H21      1.0000 0.51020  0.35580  0.51480  Biso   1.000  H
  H22      1.0000 0.48980  0.85580  0.98520  Biso   1.000  H
  H23      1.0000 0.48980  0.64420  0.48520  Biso   1.000  H
  H24      1.0000 0.51020  0.14420  0.01480  Biso   1.000  H
  C25      1.0000 0.45990  0.38590  0.39800  Biso   1.000  C
  C26      1.0000 0.54010  0.88590  0.10200  Biso   1.000  C
  C27      1.0000 0.54010  0.61410  0.60200  Biso   1.000  C
  C28      1.0000 0.45990  0.11410  0.89800  Biso   1.000  C
  H25      1.0000 0.43580  0.44340  0.39810  Biso   1.000  H
  H26      1.0000 0.56420  0.94340  0.10190  Biso   1.000  H
  H27      1.0000 0.56420  0.55660  0.60190  Biso   1.000  H
  H28      1.0000 0.43580  0.05660  0.89810  Biso   1.000  H
  C29      1.0000 0.32700  0.36610  0.05540  Biso   1.000  C
  C30      1.0000 0.67300  0.86610  0.44460  Biso   1.000  C
  C31      1.0000 0.67300  0.63390  0.94460  Biso   1.000  C
  C32      1.0000 0.32700  0.13390  0.55540  Biso   1.000  C
  H29      1.0000 0.30770  0.42690  0.05940  Biso   1.000  H
  H30      1.0000 0.69230  0.92690  0.44060  Biso   1.000  H
  H31      1.0000 0.69230  0.57310  0.94060  Biso   1.000  H
  H32      1.0000 0.30770  0.07310  0.55940  Biso   1.000  H
  C33      1.0000 0.38530  0.23280  0.08370  Biso   1.000  C
  C34      1.0000 0.61470  0.73280  0.41630  Biso   1.000  C
  C35      1.0000 0.61470  0.76720  0.91630  Biso   1.000  C
  C36      1.0000 0.38530  0.26720  0.58370  Biso   1.000  C
  H33      1.0000 0.41430  0.18370  0.11250  Biso   1.000  H
  H34      1.0000 0.58570  0.68370  0.38750  Biso   1.000  H
  H35      1.0000 0.58570  0.81630  0.88750  Biso   1.000  H
  H36      1.0000 0.41430  0.31630  0.61250  Biso   1.000  H
  C37      1.0000 0.35230  0.22940  0.00590  Biso   1.000  C
  C38      1.0000 0.64770  0.72940  0.49410  Biso   1.000  C
  C39      1.0000 0.64770  0.77060  0.99410  Biso   1.000  C
  C40      1.0000 0.35230  0.27060  0.50590  Biso   1.000  C
  H37      1.0000 0.35460  0.17940  0.97160  Biso   1.000  H
  H38      1.0000 0.64540  0.67940  0.52840  Biso   1.000  H
  H39      1.0000 0.64540  0.82060  0.02840  Biso   1.000  H
  H40      1.0000 0.35460  0.32060  0.47160  Biso   1.000  H
  C41      1.0000 0.27200  0.34780  0.90860  Biso   1.000  C
  C42      1.0000 0.72800  0.84780  0.59140  Biso   1.000  C
  C43      1.0000 0.72800  0.65220  0.09140  Biso   1.000  C
  C44      1.0000 0.27200  0.15220  0.40860  Biso   1.000  C
  H41      1.0000 0.23340  0.38070  0.91180  Biso   1.000  H
  H42      1.0000 0.76660  0.88070  0.58820  Biso   1.000  H
  H43      1.0000 0.76660  0.61930  0.08820  Biso   1.000  H
  H44      1.0000 0.23340  0.11930  0.41180  Biso   1.000  H
  H45      1.0000 0.25730  0.28960  0.87500  Biso   1.000  H
  H46      1.0000 0.74270  0.78960  0.62500  Biso   1.000  H
  H47      1.0000 0.74270  0.71040  0.12500  Biso   1.000  H
  H48      1.0000 0.25730  0.21040  0.37500  Biso   1.000  H
  C45      1.0000 0.30650  0.41860  0.87230  Biso   1.000  C
  C46      1.0000 0.69350  0.91860  0.62770  Biso   1.000  C
  C47      1.0000 0.69350  0.58140  0.12770  Biso   1.000  C
  C48      1.0000 0.30650  0.08140  0.37230  Biso   1.000  C
  C49      1.0000 0.35750  0.38600  0.84940  Biso   1.000  C
  C50      1.0000 0.64250  0.88600  0.65060  Biso   1.000  C
  C51      1.0000 0.64250  0.61400  0.15060  Biso   1.000  C
  C52      1.0000 0.35750  0.11400  0.34940  Biso   1.000  C
  H49      1.0000 0.36990  0.31890  0.85480  Biso   1.000  H
  H50      1.0000 0.63010  0.81890  0.64520  Biso   1.000  H
  H51      1.0000 0.63010  0.68110  0.14520  Biso   1.000  H
  H52      1.0000 0.36990  0.18110  0.35480  Biso   1.000  H
  C53      1.0000 0.39000  0.45420  0.81850  Biso   1.000  C
  C54      1.0000 0.61000  0.95420  0.68150  Biso   1.000  C
  C55      1.0000 0.61000  0.54580  0.18150  Biso   1.000  C
  C56      1.0000 0.39000  0.04580  0.31850  Biso   1.000  C
  H53      1.0000 0.42420  0.43240  0.80360  Biso   1.000  H
  H54      1.0000 0.57580  0.93240  0.69640  Biso   1.000  H
  H55      1.0000 0.57580  0.56760  0.19640  Biso   1.000  H
  H56      1.0000 0.42420  0.06760  0.30360  Biso   1.000  H
  C57      1.0000 0.37160  0.55530  0.80980  Biso   1.000  C
  C58      1.0000 0.62840  0.05530  0.69020  Biso   1.000  C
  C59      1.0000 0.62840  0.44470  0.19020  Biso   1.000  C
  C60      1.0000 0.37160  0.94470  0.30980  Biso   1.000  C
  C61      1.0000 0.31960  0.58550  0.83080  Biso   1.000  C
  C62      1.0000 0.68040  0.08550  0.66920  Biso   1.000  C
  C63      1.0000 0.68040  0.41450  0.16920  Biso   1.000  C
  C64      1.0000 0.31960  0.91450  0.33080  Biso   1.000  C
  H57      1.0000 0.30590  0.65200  0.82370  Biso   1.000  H
  H58      1.0000 0.69410  0.15200  0.67630  Biso   1.000  H
  H59      1.0000 0.69410  0.34800  0.17630  Biso   1.000  H
  H60      1.0000 0.30590  0.84800  0.32370  Biso   1.000  H
  C65      1.0000 0.28780  0.51870  0.86210  Biso   1.000  C
  C66      1.0000 0.71220  0.01870  0.63790  Biso   1.000  C
  C67      1.0000 0.71220  0.48130  0.13790  Biso   1.000  C
  C68      1.0000 0.28780  0.98130  0.36210  Biso   1.000  C
  H61      1.0000 0.25350  0.54070  0.87660  Biso   1.000  H
  H62      1.0000 0.74650  0.04070  0.62340  Biso   1.000  H
  H63      1.0000 0.74650  0.45930  0.12340  Biso   1.000  H
  H64      1.0000 0.25350  0.95930  0.37660  Biso   1.000  H
  C69      1.0000 0.40710  0.62870  0.77680  Biso   1.000  C
  C70      1.0000 0.59290  0.12870  0.72320  Biso   1.000  C
  C71      1.0000 0.59290  0.37130  0.22320  Biso   1.000  C
  C72      1.0000 0.40710  0.87130  0.27680  Biso   1.000  C
  H65      1.0000 0.40150  0.69580  0.79370  Biso   1.000  H
  H66      1.0000 0.59850  0.19580  0.70630  Biso   1.000  H
  H67      1.0000 0.59850  0.30420  0.20630  Biso   1.000  H
  H68      1.0000 0.40150  0.80420  0.29370  Biso   1.000  H
  H69      1.0000 0.45370  0.61340  0.79720  Biso   1.000  H
  H70      1.0000 0.54630  0.11340  0.70280  Biso   1.000  H
  H71      1.0000 0.54630  0.38660  0.20280  Biso   1.000  H
  H72      1.0000 0.45370  0.88660  0.29720  Biso   1.000  H
  C73      1.0000 0.33610  0.68510  0.64160  Biso   1.000  C
  C74      1.0000 0.66390  0.18510  0.85840  Biso   1.000  C
  C75      1.0000 0.66390  0.31490  0.35840  Biso   1.000  C
  C76      1.0000 0.33610  0.81490  0.14160  Biso   1.000  C
  H73      1.0000 0.31640  0.73880  0.65690  Biso   1.000  H
  H74      1.0000 0.68360  0.23880  0.84310  Biso   1.000  H
  H75      1.0000 0.68360  0.26120  0.34310  Biso   1.000  H
  H76      1.0000 0.31640  0.76120  0.15690  Biso   1.000  H
  C77      1.0000 0.39870  0.55450  0.64600  Biso   1.000  C
  C78      1.0000 0.60130  0.05450  0.85400  Biso   1.000  C
  C79      1.0000 0.60130  0.44550  0.35400  Biso   1.000  C
  C80      1.0000 0.39870  0.94550  0.14600  Biso   1.000  C
  H77      1.0000 0.42940  0.50340  0.66440  Biso   1.000  H
  H78      1.0000 0.57060  0.00340  0.83560  Biso   1.000  H
  H79      1.0000 0.57060  0.49660  0.33560  Biso   1.000  H
  H80      1.0000 0.42940  0.99660  0.16440  Biso   1.000  H
  C81      1.0000 0.36120  0.57390  0.57010  Biso   1.000  C
  C82      1.0000 0.63880  0.07390  0.92990  Biso   1.000  C
  C83      1.0000 0.63880  0.42610  0.42990  Biso   1.000  C
  C84      1.0000 0.36120  0.92610  0.07010  Biso   1.000  C
  H81      1.0000 0.36170  0.53750  0.52690  Biso   1.000  H
  H82      1.0000 0.63830  0.03750  0.97310  Biso   1.000  H
  H83      1.0000 0.63830  0.46250  0.47310  Biso   1.000  H
  H84      1.0000 0.36170  0.96250  0.02690  Biso   1.000  H
  C85      1.0000 0.16800  0.79130  0.33290  Biso   1.000  C
  C86      1.0000 0.83200  0.29130  0.16710  Biso   1.000  C
  C87      1.0000 0.83200  0.20870  0.66710  Biso   1.000  C
  C88      1.0000 0.16800  0.70870  0.83290  Biso   1.000  C
  H85      1.0000 0.18340  0.74880  0.30310  Biso   1.000  H
  H86      1.0000 0.81660  0.24880  0.19690  Biso   1.000  H
  H87      1.0000 0.81660  0.25120  0.69690  Biso   1.000  H
  H88      1.0000 0.18340  0.75120  0.80310  Biso   1.000  H
  C89      1.0000 0.15570  0.86810  0.42930  Biso   1.000  C
  C90      1.0000 0.84430  0.36810  0.07070  Biso   1.000  C
  C91      1.0000 0.84430  0.13190  0.57070  Biso   1.000  C
  C92      1.0000 0.15570  0.63190  0.92930  Biso   1.000  C
  H89      1.0000 0.16130  0.88760  0.48020  Biso   1.000  H
  H90      1.0000 0.83870  0.38760  0.01980  Biso   1.000  H
  H91      1.0000 0.83870  0.11240  0.51980  Biso   1.000  H
  H92      1.0000 0.16130  0.61240  0.98020  Biso   1.000  H
  C93      1.0000 0.11130  0.90740  0.36310  Biso   1.000  C
  C94      1.0000 0.88870  0.40740  0.13690  Biso   1.000  C
  C95      1.0000 0.88870  0.09260  0.63690  Biso   1.000  C
  C96      1.0000 0.11130  0.59260  0.86310  Biso   1.000  C
  H93      1.0000 0.08150  0.95860  0.35980  Biso   1.000  H
  H94      1.0000 0.91850  0.45860  0.14020  Biso   1.000  H
  H95      1.0000 0.91850  0.04140  0.64020  Biso   1.000  H
  H96      1.0000 0.08150  0.54140  0.85980  Biso   1.000  H
  C97      1.0000 0.08680  0.88110  0.21760  Biso   1.000  C
  C98      1.0000 0.91320  0.38110  0.28240  Biso   1.000  C
  C99      1.0000 0.91320  0.11890  0.78240  Biso   1.000  C
  C100     1.0000 0.08680  0.61890  0.71760  Biso   1.000  C
  H97      1.0000 0.04430  0.91190  0.20800  Biso   1.000  H
  H98      1.0000 0.95570  0.41190  0.29200  Biso   1.000  H
  H99      1.0000 0.95570  0.08810  0.79200  Biso   1.000  H
  H100     1.0000 0.04430  0.58810  0.70800  Biso   1.000  H
  H101     1.0000 0.07970  0.81980  0.18710  Biso   1.000  H
  H102     1.0000 0.92030  0.31980  0.31290  Biso   1.000  H
  H103     1.0000 0.92030  0.18020  0.81290  Biso   1.000  H
  H104     1.0000 0.07970  0.68020  0.68710  Biso   1.000  H
  C101     1.0000 0.12870  0.95090  0.19210  Biso   1.000  C
  C102     1.0000 0.87130  0.45090  0.30790  Biso   1.000  C
  C103     1.0000 0.87130  0.04910  0.80790  Biso   1.000  C
  C104     1.0000 0.12870  0.54910  0.69210  Biso   1.000  C
  C105     1.0000 0.16890  0.91640  0.15360  Biso   1.000  C
  C106     1.0000 0.83110  0.41640  0.34640  Biso   1.000  C
  C107     1.0000 0.83110  0.08360  0.84640  Biso   1.000  C
  C108     1.0000 0.16890  0.58360  0.65360  Biso   1.000  C
  H105     1.0000 0.16920  0.84850  0.14220  Biso   1.000  H
  H106     1.0000 0.83080  0.34850  0.35780  Biso   1.000  H
  H107     1.0000 0.83080  0.15150  0.85780  Biso   1.000  H
  H108     1.0000 0.16920  0.65150  0.64220  Biso   1.000  H
  C109     1.0000 0.20840  0.98180  0.13190  Biso   1.000  C
  C110     1.0000 0.79160  0.48180  0.36810  Biso   1.000  C
  C111     1.0000 0.79160  0.01820  0.86810  Biso   1.000  C
  C112     1.0000 0.20840  0.51820  0.63190  Biso   1.000  C
  H109     1.0000 0.23450  0.95780  0.10540  Biso   1.000  H
  H110     1.0000 0.76550  0.45780  0.39460  Biso   1.000  H
  H111     1.0000 0.76550  0.04220  0.89460  Biso   1.000  H
  H112     1.0000 0.23450  0.54220  0.60540  Biso   1.000  H
  C113     1.0000 0.20930  0.08340  0.14960  Biso   1.000  C
  C114     1.0000 0.79070  0.58340  0.35040  Biso   1.000  C
  C115     1.0000 0.79070  0.91660  0.85040  Biso   1.000  C
  C116     1.0000 0.20930  0.41660  0.64960  Biso   1.000  C
  C117     1.0000 0.17050  0.11790  0.18920  Biso   1.000  C
  C118     1.0000 0.82950  0.61790  0.31080  Biso   1.000  C
  C119     1.0000 0.82950  0.88210  0.81080  Biso   1.000  C
  C120     1.0000 0.17050  0.38210  0.68920  Biso   1.000  C
  H113     1.0000 0.17150  0.18530  0.20220  Biso   1.000  H
  H114     1.0000 0.82850  0.68530  0.29780  Biso   1.000  H
  H115     1.0000 0.82850  0.81470  0.79780  Biso   1.000  H
  H116     1.0000 0.17150  0.31470  0.70220  Biso   1.000  H
  C121     1.0000 0.13000  0.05270  0.20960  Biso   1.000  C
  C122     1.0000 0.87000  0.55270  0.29040  Biso   1.000  C
  C123     1.0000 0.87000  0.94730  0.79040  Biso   1.000  C
  C124     1.0000 0.13000  0.44730  0.70960  Biso   1.000  C
  H117     1.0000 0.10340  0.07720  0.23530  Biso   1.000  H
  H118     1.0000 0.89660  0.57720  0.26470  Biso   1.000  H
  H119     1.0000 0.89660  0.92280  0.76470  Biso   1.000  H
  H120     1.0000 0.10340  0.42280  0.73530  Biso   1.000  H
  C125     1.0000 0.25030  0.15530  0.12330  Biso   1.000  C
  C126     1.0000 0.74970  0.65530  0.37670  Biso   1.000  C
  C127     1.0000 0.74970  0.84470  0.87670  Biso   1.000  C
  C128     1.0000 0.25030  0.34470  0.62330  Biso   1.000  C
  H121     1.0000 0.27610  0.19700  0.16720  Biso   1.000  H
  H122     1.0000 0.72390  0.69700  0.33280  Biso   1.000  H
  H123     1.0000 0.72390  0.80300  0.83280  Biso   1.000  H
  H124     1.0000 0.27610  0.30300  0.66720  Biso   1.000  H
  H125     1.0000 0.28050  0.11810  0.10550  Biso   1.000  H
  H126     1.0000 0.71950  0.61810  0.39450  Biso   1.000  H
  H127     1.0000 0.71950  0.88190  0.89450  Biso   1.000  H
  H128     1.0000 0.28050  0.38190  0.60550  Biso   1.000  H
  C129     1.0000 0.17820  0.18980  0.98330  Biso   1.000  C
  C130     1.0000 0.82180  0.68980  0.51670  Biso   1.000  C
  C131     1.0000 0.82180  0.81020  0.01670  Biso   1.000  C
  C132     1.0000 0.17820  0.31020  0.48330  Biso   1.000  C
  H129     1.0000 0.18550  0.12910  0.96280  Biso   1.000  H
  H130     1.0000 0.81450  0.62910  0.53720  Biso   1.000  H
  H131     1.0000 0.81450  0.87090  0.03720  Biso   1.000  H
  H132     1.0000 0.18550  0.37090  0.46280  Biso   1.000  H
  C133     1.0000 0.18450  0.31150  0.06600  Biso   1.000  C
  C134     1.0000 0.81550  0.81150  0.43400  Biso   1.000  C
  C135     1.0000 0.81550  0.68850  0.93400  Biso   1.000  C
  C136     1.0000 0.18450  0.18850  0.56600  Biso   1.000  C
  H133     1.0000 0.19600  0.34980  0.11150  Biso   1.000  H
  H134     1.0000 0.80400  0.84980  0.38850  Biso   1.000  H
  H135     1.0000 0.80400  0.65020  0.88850  Biso   1.000  H
  H136     1.0000 0.19600  0.15020  0.61150  Biso   1.000  H
  C137     1.0000 0.14120  0.33670  0.99440  Biso   1.000  C
  C138     1.0000 0.85880  0.83670  0.50560  Biso   1.000  C
  C139     1.0000 0.85880  0.66330  0.00560  Biso   1.000  C
  C140     1.0000 0.14120  0.16330  0.49440  Biso   1.000  C
  H137     1.0000 0.11780  0.39650  0.98190  Biso   1.000  H
  H138     1.0000 0.88220  0.89650  0.51810  Biso   1.000  H
  H139     1.0000 0.88220  0.60350  0.01810  Biso   1.000  H
  H140     1.0000 0.11780  0.10350  0.48190  Biso   1.000  H
  C141     1.0000 0.99290  0.29310  0.67850  Biso   1.000  C
  C142     1.0000 0.00710  0.79310  0.82150  Biso   1.000  C
  C143     1.0000 0.00710  0.70690  0.32150  Biso   1.000  C
  C144     1.0000 0.99290  0.20690  0.17850  Biso   1.000  C
  H141     1.0000 0.97050  0.34240  0.69470  Biso   1.000  H
  H142     1.0000 0.02950  0.84240  0.80530  Biso   1.000  H
  H143     1.0000 0.02950  0.65760  0.30530  Biso   1.000  H
  H144     1.0000 0.97050  0.15760  0.19470  Biso   1.000  H
  C145     1.0000 0.05820  0.17340  0.67940  Biso   1.000  C
  C146     1.0000 0.94180  0.67340  0.82060  Biso   1.000  C
  C147     1.0000 0.94180  0.82660  0.32060  Biso   1.000  C
  C148     1.0000 0.05820  0.32660  0.17940  Biso   1.000  C
  H145     1.0000 0.08990  0.12360  0.69750  Biso   1.000  H
  H146     1.0000 0.91010  0.62360  0.80250  Biso   1.000  H
  H147     1.0000 0.91010  0.87640  0.30250  Biso   1.000  H
  H148     1.0000 0.08990  0.37640  0.19750  Biso   1.000  H
  C149     1.0000 0.02320  0.19330  0.60170  Biso   1.000  C
  C150     1.0000 0.97680  0.69330  0.89830  Biso   1.000  C
  C151     1.0000 0.97680  0.80670  0.39830  Biso   1.000  C
  C152     1.0000 0.02320  0.30670  0.10170  Biso   1.000  C
  H149     1.0000 0.02660  0.16200  0.55790  Biso   1.000  H
  H150     1.0000 0.97340  0.66200  0.94210  Biso   1.000  H
  H151     1.0000 0.97340  0.83800  0.44210  Biso   1.000  H
  H152     1.0000 0.02660  0.33800  0.05790  Biso   1.000  H
  C153     1.0000 0.93720  0.32370  0.53500  Biso   1.000  C
  C154     1.0000 0.06280  0.82370  0.96500  Biso   1.000  C
  C155     1.0000 0.06280  0.67630  0.46500  Biso   1.000  C
  C156     1.0000 0.93720  0.17630  0.03500  Biso   1.000  C
  H153     1.0000 0.89840  0.34430  0.54510  Biso   1.000  H
  H154     1.0000 0.10160  0.84430  0.95490  Biso   1.000  H
  H155     1.0000 0.10160  0.65570  0.45490  Biso   1.000  H
  H156     1.0000 0.89840  0.15570  0.04510  Biso   1.000  H
  H157     1.0000 0.92320  0.27890  0.49010  Biso   1.000  H
  H158     1.0000 0.07680  0.77890  0.00990  Biso   1.000  H
  H159     1.0000 0.07680  0.72110  0.50990  Biso   1.000  H
  H160     1.0000 0.92320  0.22110  0.99010  Biso   1.000  H
  C157     1.0000 0.96950  0.41480  0.51570  Biso   1.000  C
  C158     1.0000 0.03050  0.91480  0.98430  Biso   1.000  C
  C159     1.0000 0.03050  0.58520  0.48430  Biso   1.000  C
  C160     1.0000 0.96950  0.08520  0.01570  Biso   1.000  C
  C161     1.0000 0.95070  0.51000  0.53050  Biso   1.000  C
  C162     1.0000 0.04930  0.01000  0.96950  Biso   1.000  C
  C163     1.0000 0.04930  0.49000  0.46950  Biso   1.000  C
  C164     1.0000 0.95070  0.99000  0.03050  Biso   1.000  C
  H161     1.0000 0.91790  0.51720  0.55120  Biso   1.000  H
  H162     1.0000 0.08210  0.01720  0.94880  Biso   1.000  H
  H163     1.0000 0.08210  0.48280  0.44880  Biso   1.000  H
  H164     1.0000 0.91790  0.98280  0.05120  Biso   1.000  H
  C165     1.0000 0.01900  0.40530  0.48560  Biso   1.000  C
  C166     1.0000 0.98100  0.90530  0.01440  Biso   1.000  C
  C167     1.0000 0.98100  0.59470  0.51440  Biso   1.000  C
  C168     1.0000 0.01900  0.09470  0.98560  Biso   1.000  C
  H165     1.0000 0.03220  0.34200  0.47610  Biso   1.000  H
  H166     1.0000 0.96780  0.84200  0.02390  Biso   1.000  H
  H167     1.0000 0.96780  0.65800  0.52390  Biso   1.000  H
  H168     1.0000 0.03220  0.15800  0.97610  Biso   1.000  H
