data_image0
_cell_length_a       19.9539
_cell_length_b       20.3295
_cell_length_c       11.904
_cell_angle_alpha    90
_cell_angle_beta     90
_cell_angle_gamma    90

_symmetry_space_group_name_H-M    "P 1"
_symmetry_int_tables_number       1

loop_
  _symmetry_equiv_pos_as_xyz
  'x, y, z'

loop_
  _atom_site_label
  _atom_site_occupancy
  _atom_site_fract_x
  _atom_site_fract_y
  _atom_site_fract_z
  _atom_site_thermal_displace_type
  _atom_site_B_iso_or_equiv
  _atom_site_type_symbol
  Zn1      1.0000 0.06574  0.39842  0.86657  Biso   1.000  Zn
  Zn2      1.0000 0.43426  0.10158  0.86657  Biso   1.000  Zn
  Zn3      1.0000 0.93426  0.89842  0.63343  Biso   1.000  Zn
  Zn4      1.0000 0.56574  0.60158  0.63343  Biso   1.000  Zn
  Zn5      1.0000 0.93426  0.60158  0.13343  Biso   1.000  Zn
  Zn6      1.0000 0.56574  0.89842  0.13343  Biso   1.000  Zn
  Zn7      1.0000 0.06574  0.10158  0.36657  Biso   1.000  Zn
  Zn8      1.0000 0.43426  0.39842  0.36657  Biso   1.000  Zn
  Zn9      1.0000 0.25000  0.75000  0.18193  Biso   1.000  Zn
  Zn10     1.0000 0.75000  0.25000  0.31807  Biso   1.000  Zn
  Zn11     1.0000 0.75000  0.25000  0.81807  Biso   1.000  Zn
  Zn12     1.0000 0.25000  0.75000  0.68193  Biso   1.000  Zn
  Cu1      1.0000 0.19633  0.43794  0.65309  Biso   1.000  Cu
  Cu2      1.0000 0.30367  0.06206  0.65309  Biso   1.000  Cu
  Cu3      1.0000 0.80367  0.93794  0.84691  Biso   1.000  Cu
  Cu4      1.0000 0.69633  0.56206  0.84691  Biso   1.000  Cu
  Cu5      1.0000 0.80367  0.56206  0.34691  Biso   1.000  Cu
  Cu6      1.0000 0.69633  0.93794  0.34691  Biso   1.000  Cu
  Cu7      1.0000 0.19633  0.06206  0.15309  Biso   1.000  Cu
  Cu8      1.0000 0.30367  0.43794  0.15309  Biso   1.000  Cu
  O1       1.0000 0.12135  0.33920  0.65762  Biso   1.000  O
  O2       1.0000 0.37865  0.16080  0.65762  Biso   1.000  O
  O3       1.0000 0.87865  0.83920  0.84238  Biso   1.000  O
  O4       1.0000 0.62135  0.66080  0.84238  Biso   1.000  O
  O5       1.0000 0.87865  0.66080  0.34238  Biso   1.000  O
  O6       1.0000 0.62135  0.83920  0.34238  Biso   1.000  O
  O7       1.0000 0.12135  0.16080  0.15762  Biso   1.000  O
  O8       1.0000 0.37865  0.33920  0.15762  Biso   1.000  O
  O9       1.0000 0.11411  0.31672  0.83962  Biso   1.000  O
  O10      1.0000 0.38589  0.18328  0.83962  Biso   1.000  O
  O11      1.0000 0.88589  0.81672  0.66038  Biso   1.000  O
  O12      1.0000 0.61411  0.68328  0.66038  Biso   1.000  O
  O13      1.0000 0.88589  0.68328  0.16038  Biso   1.000  O
  O14      1.0000 0.61411  0.81672  0.16038  Biso   1.000  O
  O15      1.0000 0.11411  0.18328  0.33962  Biso   1.000  O
  O16      1.0000 0.38589  0.31672  0.33962  Biso   1.000  O
  O17      1.0000 0.96571  0.36038  0.72103  Biso   1.000  O
  O18      1.0000 0.53429  0.13962  0.72103  Biso   1.000  O
  O19      1.0000 0.03429  0.86038  0.77897  Biso   1.000  O
  O20      1.0000 0.46571  0.63962  0.77897  Biso   1.000  O
  O21      1.0000 0.03429  0.63962  0.27897  Biso   1.000  O
  O22      1.0000 0.46571  0.86038  0.27897  Biso   1.000  O
  O23      1.0000 0.96571  0.13962  0.22103  Biso   1.000  O
  O24      1.0000 0.53429  0.36038  0.22103  Biso   1.000  O
  O25      1.0000 0.01620  0.45467  0.76332  Biso   1.000  O
  O26      1.0000 0.48380  0.04533  0.76332  Biso   1.000  O
  O27      1.0000 0.98380  0.95467  0.73668  Biso   1.000  O
  O28      1.0000 0.51620  0.54533  0.73668  Biso   1.000  O
  O29      1.0000 0.98380  0.54533  0.23668  Biso   1.000  O
  O30      1.0000 0.51620  0.95467  0.23668  Biso   1.000  O
  O31      1.0000 0.01620  0.04533  0.26332  Biso   1.000  O
  O32      1.0000 0.48380  0.45467  0.26332  Biso   1.000  O
  O33      1.0000 0.12186  0.80881  0.15457  Biso   1.000  O
  O34      1.0000 0.37814  0.69119  0.15457  Biso   1.000  O
  O35      1.0000 0.87814  0.30881  0.34543  Biso   1.000  O
  O36      1.0000 0.62186  0.19119  0.34543  Biso   1.000  O
  O37      1.0000 0.87814  0.19119  0.84543  Biso   1.000  O
  O38      1.0000 0.62186  0.30881  0.84543  Biso   1.000  O
  O39      1.0000 0.12186  0.69119  0.65457  Biso   1.000  O
  O40      1.0000 0.37814  0.80881  0.65457  Biso   1.000  O
  O41      1.0000 0.17765  0.75955  0.29216  Biso   1.000  O
  O42      1.0000 0.32235  0.74045  0.29216  Biso   1.000  O
  O43      1.0000 0.82235  0.25955  0.20784  Biso   1.000  O
  O44      1.0000 0.67765  0.24045  0.20784  Biso   1.000  O
  O45      1.0000 0.82235  0.24045  0.70784  Biso   1.000  O
  O46      1.0000 0.67765  0.25955  0.70784  Biso   1.000  O
  O47      1.0000 0.17765  0.74045  0.79216  Biso   1.000  O
  O48      1.0000 0.32235  0.75955  0.79216  Biso   1.000  O
  O49      1.0000 0.18926  0.49066  0.81260  Biso   1.000  O
  O50      1.0000 0.31074  0.00934  0.81260  Biso   1.000  O
  O51      1.0000 0.81074  0.99066  0.68740  Biso   1.000  O
  O52      1.0000 0.68926  0.50934  0.68740  Biso   1.000  O
  O53      1.0000 0.81074  0.50934  0.18740  Biso   1.000  O
  O54      1.0000 0.68926  0.99066  0.18740  Biso   1.000  O
  O55      1.0000 0.18926  0.00934  0.31260  Biso   1.000  O
  O56      1.0000 0.31074  0.49066  0.31260  Biso   1.000  O
  O57      1.0000 0.11861  0.46423  0.95002  Biso   1.000  O
  O58      1.0000 0.38139  0.03577  0.95002  Biso   1.000  O
  O59      1.0000 0.88139  0.96423  0.54998  Biso   1.000  O
  O60      1.0000 0.61861  0.53577  0.54998  Biso   1.000  O
  O61      1.0000 0.88139  0.53577  0.04998  Biso   1.000  O
  O62      1.0000 0.61861  0.96423  0.04998  Biso   1.000  O
  O63      1.0000 0.11861  0.03577  0.45002  Biso   1.000  O
  O64      1.0000 0.38139  0.46423  0.45002  Biso   1.000  O
  N1       1.0000 0.22693  0.11819  0.68020  Biso   1.000  N
  N2       1.0000 0.27307  0.38181  0.68020  Biso   1.000  N
  N3       1.0000 0.77307  0.61819  0.81980  Biso   1.000  N
  N4       1.0000 0.72693  0.88181  0.81980  Biso   1.000  N
  N5       1.0000 0.77307  0.88181  0.31980  Biso   1.000  N
  N6       1.0000 0.72693  0.61819  0.31980  Biso   1.000  N
  N7       1.0000 0.22693  0.38181  0.18020  Biso   1.000  N
  N8       1.0000 0.27307  0.11819  0.18020  Biso   1.000  N
  N9       1.0000 0.86390  0.51863  0.44861  Biso   1.000  N
  N10      1.0000 0.63610  0.98137  0.44861  Biso   1.000  N
  N11      1.0000 0.13610  0.01863  0.05139  Biso   1.000  N
  N12      1.0000 0.36390  0.48137  0.05139  Biso   1.000  N
  N13      1.0000 0.13610  0.48137  0.55139  Biso   1.000  N
  N14      1.0000 0.36390  0.01863  0.55139  Biso   1.000  N
  N15      1.0000 0.86390  0.98137  0.94861  Biso   1.000  N
  N16      1.0000 0.63610  0.51863  0.94861  Biso   1.000  N
  N17      1.0000 0.99330  0.86467  0.50445  Biso   1.000  N
  N18      1.0000 0.50670  0.63533  0.50445  Biso   1.000  N
  N19      1.0000 0.00670  0.36467  0.99555  Biso   1.000  N
  N20      1.0000 0.49330  0.13533  0.99555  Biso   1.000  N
  N21      1.0000 0.00670  0.13533  0.49555  Biso   1.000  N
  N22      1.0000 0.49330  0.36467  0.49555  Biso   1.000  N
  N23      1.0000 0.99330  0.63533  0.00445  Biso   1.000  N
  N24      1.0000 0.50670  0.86467  0.00445  Biso   1.000  N
  N25      1.0000 0.22259  0.67115  0.08922  Biso   1.000  N
  N26      1.0000 0.27741  0.82885  0.08922  Biso   1.000  N
  N27      1.0000 0.77741  0.17115  0.41078  Biso   1.000  N
  N28      1.0000 0.72259  0.32885  0.41078  Biso   1.000  N
  N29      1.0000 0.77741  0.32885  0.91078  Biso   1.000  N
  N30      1.0000 0.72259  0.17115  0.91078  Biso   1.000  N
  N31      1.0000 0.22259  0.82885  0.58922  Biso   1.000  N
  N32      1.0000 0.27741  0.67115  0.58922  Biso   1.000  N
  C1       1.0000 0.19932  0.15246  0.59617  Biso   1.000  C
  C2       1.0000 0.30068  0.34754  0.59617  Biso   1.000  C
  C3       1.0000 0.80068  0.65246  0.90383  Biso   1.000  C
  C4       1.0000 0.69932  0.84754  0.90383  Biso   1.000  C
  C5       1.0000 0.80068  0.84754  0.40383  Biso   1.000  C
  C6       1.0000 0.69932  0.65246  0.40383  Biso   1.000  C
  C7       1.0000 0.19932  0.34754  0.09617  Biso   1.000  C
  C8       1.0000 0.30068  0.15246  0.09617  Biso   1.000  C
  H1       1.0000 0.20390  0.13660  0.52330  Biso   1.000  H
  H2       1.0000 0.29610  0.36340  0.52330  Biso   1.000  H
  H3       1.0000 0.79610  0.63660  0.97670  Biso   1.000  H
  H4       1.0000 0.70390  0.86340  0.97670  Biso   1.000  H
  H5       1.0000 0.79610  0.86340  0.47670  Biso   1.000  H
  H6       1.0000 0.70390  0.63660  0.47670  Biso   1.000  H
  H7       1.0000 0.20390  0.36340  0.02330  Biso   1.000  H
  H8       1.0000 0.29610  0.13660  0.02330  Biso   1.000  H
  C9       1.0000 0.16435  0.21025  0.61229  Biso   1.000  C
  C10      1.0000 0.33565  0.28975  0.61229  Biso   1.000  C
  C11      1.0000 0.83565  0.71025  0.88771  Biso   1.000  C
  C12      1.0000 0.66435  0.78975  0.88771  Biso   1.000  C
  C13      1.0000 0.83565  0.78975  0.38771  Biso   1.000  C
  C14      1.0000 0.66435  0.71025  0.38771  Biso   1.000  C
  C15      1.0000 0.16435  0.28975  0.11229  Biso   1.000  C
  C16      1.0000 0.33565  0.21025  0.11229  Biso   1.000  C
  H9       1.0000 0.14610  0.23250  0.55130  Biso   1.000  H
  H10      1.0000 0.35390  0.26750  0.55130  Biso   1.000  H
  H11      1.0000 0.85390  0.73250  0.94870  Biso   1.000  H
  H12      1.0000 0.64610  0.76750  0.94870  Biso   1.000  H
  H13      1.0000 0.85390  0.76750  0.44870  Biso   1.000  H
  H14      1.0000 0.64610  0.73250  0.44870  Biso   1.000  H
  H15      1.0000 0.14610  0.26750  0.05130  Biso   1.000  H
  H16      1.0000 0.35390  0.23250  0.05130  Biso   1.000  H
  C17      1.0000 0.15662  0.23466  0.71955  Biso   1.000  C
  C18      1.0000 0.34338  0.26534  0.71955  Biso   1.000  C
  C19      1.0000 0.84338  0.73466  0.78045  Biso   1.000  C
  C20      1.0000 0.65662  0.76534  0.78045  Biso   1.000  C
  C21      1.0000 0.84338  0.76534  0.28045  Biso   1.000  C
  C22      1.0000 0.65662  0.73466  0.28045  Biso   1.000  C
  C23      1.0000 0.15662  0.26534  0.21955  Biso   1.000  C
  C24      1.0000 0.34338  0.23466  0.21955  Biso   1.000  C
  C25      1.0000 0.18019  0.19672  0.80728  Biso   1.000  C
  C26      1.0000 0.31981  0.30328  0.80728  Biso   1.000  C
  C27      1.0000 0.81981  0.69672  0.69272  Biso   1.000  C
  C28      1.0000 0.68019  0.80328  0.69272  Biso   1.000  C
  C29      1.0000 0.81981  0.80328  0.19272  Biso   1.000  C
  C30      1.0000 0.68019  0.69672  0.19272  Biso   1.000  C
  C31      1.0000 0.18019  0.30328  0.30728  Biso   1.000  C
  C32      1.0000 0.31981  0.19672  0.30728  Biso   1.000  C
  H17      1.0000 0.17280  0.20960  0.88120  Biso   1.000  H
  H18      1.0000 0.32720  0.29040  0.88120  Biso   1.000  H
  H19      1.0000 0.82720  0.70960  0.61880  Biso   1.000  H
  H20      1.0000 0.67280  0.79040  0.61880  Biso   1.000  H
  H21      1.0000 0.82720  0.79040  0.11880  Biso   1.000  H
  H22      1.0000 0.67280  0.70960  0.11880  Biso   1.000  H
  H23      1.0000 0.17280  0.29040  0.38120  Biso   1.000  H
  H24      1.0000 0.32720  0.20960  0.38120  Biso   1.000  H
  C33      1.0000 0.21483  0.13945  0.78436  Biso   1.000  C
  C34      1.0000 0.28517  0.36055  0.78436  Biso   1.000  C
  C35      1.0000 0.78517  0.63945  0.71564  Biso   1.000  C
  C36      1.0000 0.71483  0.86055  0.71564  Biso   1.000  C
  C37      1.0000 0.78517  0.86055  0.21564  Biso   1.000  C
  C38      1.0000 0.71483  0.63945  0.21564  Biso   1.000  C
  C39      1.0000 0.21483  0.36055  0.28436  Biso   1.000  C
  C40      1.0000 0.28517  0.13945  0.28436  Biso   1.000  C
  H25      1.0000 0.23050  0.11450  0.84440  Biso   1.000  H
  H26      1.0000 0.26950  0.38550  0.84440  Biso   1.000  H
  H27      1.0000 0.76950  0.61450  0.65560  Biso   1.000  H
  H28      1.0000 0.73050  0.88550  0.65560  Biso   1.000  H
  H29      1.0000 0.76950  0.88550  0.15560  Biso   1.000  H
  H30      1.0000 0.73050  0.61450  0.15560  Biso   1.000  H
  H31      1.0000 0.23050  0.38550  0.34440  Biso   1.000  H
  H32      1.0000 0.26950  0.11450  0.34440  Biso   1.000  H
  C41      1.0000 0.12738  0.30229  0.73809  Biso   1.000  C
  C42      1.0000 0.37262  0.19771  0.73809  Biso   1.000  C
  C43      1.0000 0.87262  0.80229  0.76191  Biso   1.000  C
  C44      1.0000 0.62738  0.69771  0.76191  Biso   1.000  C
  C45      1.0000 0.87262  0.69771  0.26191  Biso   1.000  C
  C46      1.0000 0.62738  0.80229  0.26191  Biso   1.000  C
  C47      1.0000 0.12738  0.19771  0.23809  Biso   1.000  C
  C48      1.0000 0.37262  0.30229  0.23809  Biso   1.000  C
  C49      1.0000 0.89575  0.55245  0.52904  Biso   1.000  C
  C50      1.0000 0.60425  0.94755  0.52904  Biso   1.000  C
  C51      1.0000 0.10425  0.05245  0.97096  Biso   1.000  C
  C52      1.0000 0.39575  0.44755  0.97096  Biso   1.000  C
  C53      1.0000 0.10425  0.44755  0.47096  Biso   1.000  C
  C54      1.0000 0.39575  0.05245  0.47096  Biso   1.000  C
  C55      1.0000 0.89575  0.94755  0.02904  Biso   1.000  C
  C56      1.0000 0.60425  0.55245  0.02904  Biso   1.000  C
  H33      1.0000 0.89250  0.59810  0.52890  Biso   1.000  H
  H34      1.0000 0.60750  0.90190  0.52890  Biso   1.000  H
  H35      1.0000 0.10750  0.09810  0.97110  Biso   1.000  H
  H36      1.0000 0.39250  0.40190  0.97110  Biso   1.000  H
  H37      1.0000 0.10750  0.40190  0.47110  Biso   1.000  H
  H38      1.0000 0.39250  0.09810  0.47110  Biso   1.000  H
  H39      1.0000 0.89250  0.90190  0.02890  Biso   1.000  H
  H40      1.0000 0.60750  0.59810  0.02890  Biso   1.000  H
  C57      1.0000 0.93303  0.52274  0.61170  Biso   1.000  C
  C58      1.0000 0.56697  0.97726  0.61170  Biso   1.000  C
  C59      1.0000 0.06697  0.02274  0.88830  Biso   1.000  C
  C60      1.0000 0.43303  0.47726  0.88830  Biso   1.000  C
  C61      1.0000 0.06697  0.47726  0.38830  Biso   1.000  C
  C62      1.0000 0.43303  0.02274  0.38830  Biso   1.000  C
  C63      1.0000 0.93303  0.97726  0.11170  Biso   1.000  C
  C64      1.0000 0.56697  0.52274  0.11170  Biso   1.000  C
  H41      1.0000 0.95440  0.54800  0.66600  Biso   1.000  H
  H42      1.0000 0.54560  0.95200  0.66600  Biso   1.000  H
  H43      1.0000 0.04560  0.04800  0.83400  Biso   1.000  H
  H44      1.0000 0.45440  0.45200  0.83400  Biso   1.000  H
  H45      1.0000 0.04560  0.45200  0.33400  Biso   1.000  H
  H46      1.0000 0.45440  0.04800  0.33400  Biso   1.000  H
  H47      1.0000 0.95440  0.95200  0.16600  Biso   1.000  H
  H48      1.0000 0.54560  0.54800  0.16600  Biso   1.000  H
  C65      1.0000 0.93854  0.45491  0.61360  Biso   1.000  C
  C66      1.0000 0.56146  0.04509  0.61360  Biso   1.000  C
  C67      1.0000 0.06146  0.95491  0.88640  Biso   1.000  C
  C68      1.0000 0.43854  0.54509  0.88640  Biso   1.000  C
  C69      1.0000 0.06146  0.54509  0.38640  Biso   1.000  C
  C70      1.0000 0.43854  0.95491  0.38640  Biso   1.000  C
  C71      1.0000 0.93854  0.04509  0.11360  Biso   1.000  C
  C72      1.0000 0.56146  0.45491  0.11360  Biso   1.000  C
  C73      1.0000 0.90833  0.42014  0.52853  Biso   1.000  C
  C74      1.0000 0.59167  0.07986  0.52853  Biso   1.000  C
  C75      1.0000 0.09167  0.92014  0.97147  Biso   1.000  C
  C76      1.0000 0.40833  0.57986  0.97147  Biso   1.000  C
  C77      1.0000 0.09167  0.57986  0.47147  Biso   1.000  C
  C78      1.0000 0.40833  0.92014  0.47147  Biso   1.000  C
  C79      1.0000 0.90833  0.07986  0.02853  Biso   1.000  C
  C80      1.0000 0.59167  0.42014  0.02853  Biso   1.000  C
  H49      1.0000 0.91250  0.37460  0.52530  Biso   1.000  H
  H50      1.0000 0.58750  0.12540  0.52530  Biso   1.000  H
  H51      1.0000 0.08750  0.87460  0.97470  Biso   1.000  H
  H52      1.0000 0.41250  0.62540  0.97470  Biso   1.000  H
  H53      1.0000 0.08750  0.62540  0.47470  Biso   1.000  H
  H54      1.0000 0.41250  0.87460  0.47470  Biso   1.000  H
  H55      1.0000 0.91250  0.12540  0.02530  Biso   1.000  H
  H56      1.0000 0.58750  0.37460  0.02530  Biso   1.000  H
  C81      1.0000 0.87167  0.45334  0.44768  Biso   1.000  C
  C82      1.0000 0.62833  0.04666  0.44768  Biso   1.000  C
  C83      1.0000 0.12833  0.95334  0.05232  Biso   1.000  C
  C84      1.0000 0.37167  0.54666  0.05232  Biso   1.000  C
  C85      1.0000 0.12833  0.54666  0.55232  Biso   1.000  C
  C86      1.0000 0.37167  0.95334  0.55232  Biso   1.000  C
  C87      1.0000 0.87167  0.04666  0.94768  Biso   1.000  C
  C88      1.0000 0.62833  0.45334  0.94768  Biso   1.000  C
  H57      1.0000 0.85160  0.42920  0.39040  Biso   1.000  H
  H58      1.0000 0.64840  0.07080  0.39040  Biso   1.000  H
  H59      1.0000 0.14840  0.92920  0.10960  Biso   1.000  H
  H60      1.0000 0.35160  0.57080  0.10960  Biso   1.000  H
  H61      1.0000 0.14840  0.57080  0.60960  Biso   1.000  H
  H62      1.0000 0.35160  0.92920  0.60960  Biso   1.000  H
  H63      1.0000 0.85160  0.07080  0.89040  Biso   1.000  H
  H64      1.0000 0.64840  0.42920  0.89040  Biso   1.000  H
  C89      1.0000 0.97608  0.41939  0.70560  Biso   1.000  C
  C90      1.0000 0.52392  0.08061  0.70560  Biso   1.000  C
  C91      1.0000 0.02392  0.91939  0.79440  Biso   1.000  C
  C92      1.0000 0.47608  0.58061  0.79440  Biso   1.000  C
  C93      1.0000 0.02392  0.58061  0.29440  Biso   1.000  C
  C94      1.0000 0.47608  0.91939  0.29440  Biso   1.000  C
  C95      1.0000 0.97608  0.08061  0.20560  Biso   1.000  C
  C96      1.0000 0.52392  0.41939  0.20560  Biso   1.000  C
  C97      1.0000 0.00260  0.89751  0.40846  Biso   1.000  C
  C98      1.0000 0.49740  0.60249  0.40846  Biso   1.000  C
  C99      1.0000 0.99740  0.39751  0.09154  Biso   1.000  C
  C100     1.0000 0.50260  0.10249  0.09154  Biso   1.000  C
  C101     1.0000 0.99740  0.10249  0.59154  Biso   1.000  C
  C102     1.0000 0.50260  0.39751  0.59154  Biso   1.000  C
  C103     1.0000 0.00260  0.60249  0.90846  Biso   1.000  C
  C104     1.0000 0.49740  0.89751  0.90846  Biso   1.000  C
  H65      1.0000 0.98020  0.93720  0.39790  Biso   1.000  H
  H66      1.0000 0.51980  0.56280  0.39790  Biso   1.000  H
  H67      1.0000 0.01980  0.43720  0.10210  Biso   1.000  H
  H68      1.0000 0.48020  0.06280  0.10210  Biso   1.000  H
  H69      1.0000 0.01980  0.06280  0.60210  Biso   1.000  H
  H70      1.0000 0.48020  0.43720  0.60210  Biso   1.000  H
  H71      1.0000 0.98020  0.56280  0.89790  Biso   1.000  H
  H72      1.0000 0.51980  0.93720  0.89790  Biso   1.000  H
  C105     1.0000 0.04419  0.87473  0.32430  Biso   1.000  C
  C106     1.0000 0.45581  0.62527  0.32430  Biso   1.000  C
  C107     1.0000 0.95581  0.37473  0.17570  Biso   1.000  C
  C108     1.0000 0.54419  0.12527  0.17570  Biso   1.000  C
  C109     1.0000 0.95581  0.12527  0.67570  Biso   1.000  C
  C110     1.0000 0.54419  0.37473  0.67570  Biso   1.000  C
  C111     1.0000 0.04419  0.62527  0.82430  Biso   1.000  C
  C112     1.0000 0.45581  0.87473  0.82430  Biso   1.000  C
  H73      1.0000 0.04890  0.89830  0.25780  Biso   1.000  H
  H74      1.0000 0.45110  0.60170  0.25780  Biso   1.000  H
  H75      1.0000 0.95110  0.39830  0.24220  Biso   1.000  H
  H76      1.0000 0.54890  0.10170  0.24220  Biso   1.000  H
  H77      1.0000 0.95110  0.10170  0.74220  Biso   1.000  H
  H78      1.0000 0.54890  0.39830  0.74220  Biso   1.000  H
  H79      1.0000 0.04890  0.60170  0.75780  Biso   1.000  H
  H80      1.0000 0.45110  0.89830  0.75780  Biso   1.000  H
  C113     1.0000 0.07880  0.81648  0.33987  Biso   1.000  C
  C114     1.0000 0.42120  0.68352  0.33987  Biso   1.000  C
  C115     1.0000 0.92120  0.31648  0.16013  Biso   1.000  C
  C116     1.0000 0.57880  0.18352  0.16013  Biso   1.000  C
  C117     1.0000 0.92120  0.18352  0.66013  Biso   1.000  C
  C118     1.0000 0.57880  0.31648  0.66013  Biso   1.000  C
  C119     1.0000 0.07880  0.68352  0.83987  Biso   1.000  C
  C120     1.0000 0.42120  0.81648  0.83987  Biso   1.000  C
  C121     1.0000 0.06960  0.78288  0.43986  Biso   1.000  C
  C122     1.0000 0.43040  0.71712  0.43986  Biso   1.000  C
  C123     1.0000 0.93040  0.28288  0.06014  Biso   1.000  C
  C124     1.0000 0.56960  0.21712  0.06014  Biso   1.000  C
  C125     1.0000 0.93040  0.21712  0.56014  Biso   1.000  C
  C126     1.0000 0.56960  0.28288  0.56014  Biso   1.000  C
  C127     1.0000 0.06960  0.71712  0.93986  Biso   1.000  C
  C128     1.0000 0.43040  0.78288  0.93986  Biso   1.000  C
  H81      1.0000 0.09230  0.74370  0.45320  Biso   1.000  H
  H82      1.0000 0.40770  0.75630  0.45320  Biso   1.000  H
  H83      1.0000 0.90770  0.24370  0.04680  Biso   1.000  H
  H84      1.0000 0.59230  0.25630  0.04680  Biso   1.000  H
  H85      1.0000 0.90770  0.25630  0.54680  Biso   1.000  H
  H86      1.0000 0.59230  0.24370  0.54680  Biso   1.000  H
  H87      1.0000 0.09230  0.75630  0.95320  Biso   1.000  H
  H88      1.0000 0.40770  0.74370  0.95320  Biso   1.000  H
  C129     1.0000 0.02649  0.80811  0.51931  Biso   1.000  C
  C130     1.0000 0.47351  0.69189  0.51931  Biso   1.000  C
  C131     1.0000 0.97351  0.30811  0.98069  Biso   1.000  C
  C132     1.0000 0.52649  0.19189  0.98069  Biso   1.000  C
  C133     1.0000 0.97351  0.19189  0.48069  Biso   1.000  C
  C134     1.0000 0.52649  0.30811  0.48069  Biso   1.000  C
  C135     1.0000 0.02649  0.69189  0.01931  Biso   1.000  C
  C136     1.0000 0.47351  0.80811  0.01931  Biso   1.000  C
  H89      1.0000 0.02020  0.78500  0.58590  Biso   1.000  H
  H90      1.0000 0.47980  0.71500  0.58590  Biso   1.000  H
  H91      1.0000 0.97980  0.28500  0.91410  Biso   1.000  H
  H92      1.0000 0.52020  0.21500  0.91410  Biso   1.000  H
  H93      1.0000 0.97980  0.21500  0.41410  Biso   1.000  H
  H94      1.0000 0.52020  0.28500  0.41410  Biso   1.000  H
  H95      1.0000 0.02020  0.71500  0.08590  Biso   1.000  H
  H96      1.0000 0.47980  0.78500  0.08590  Biso   1.000  H
  C137     1.0000 0.12866  0.79341  0.25338  Biso   1.000  C
  C138     1.0000 0.37134  0.70659  0.25338  Biso   1.000  C
  C139     1.0000 0.87134  0.29341  0.24662  Biso   1.000  C
  C140     1.0000 0.62866  0.20659  0.24662  Biso   1.000  C
  C141     1.0000 0.87134  0.20659  0.74662  Biso   1.000  C
  C142     1.0000 0.62866  0.29341  0.74662  Biso   1.000  C
  C143     1.0000 0.12866  0.70659  0.75338  Biso   1.000  C
  C144     1.0000 0.37134  0.79341  0.75338  Biso   1.000  C
  C145     1.0000 0.24897  0.65761  0.98843  Biso   1.000  C
  C146     1.0000 0.25103  0.84239  0.98843  Biso   1.000  C
  C147     1.0000 0.75103  0.15761  0.51157  Biso   1.000  C
  C148     1.0000 0.74897  0.34239  0.51157  Biso   1.000  C
  C149     1.0000 0.75103  0.34239  0.01157  Biso   1.000  C
  C150     1.0000 0.74897  0.15761  0.01157  Biso   1.000  C
  C151     1.0000 0.24897  0.84239  0.48843  Biso   1.000  C
  C152     1.0000 0.25103  0.65761  0.48843  Biso   1.000  C
  H97      1.0000 0.28060  0.68620  0.95840  Biso   1.000  H
  H98      1.0000 0.21940  0.81380  0.95840  Biso   1.000  H
  H99      1.0000 0.71940  0.18620  0.54160  Biso   1.000  H
  H100     1.0000 0.78060  0.31380  0.54160  Biso   1.000  H
  H101     1.0000 0.71940  0.31380  0.04160  Biso   1.000  H
  H102     1.0000 0.78060  0.18620  0.04160  Biso   1.000  H
  H103     1.0000 0.28060  0.81380  0.45840  Biso   1.000  H
  H104     1.0000 0.21940  0.68620  0.45840  Biso   1.000  H
  C153     1.0000 0.23082  0.60269  0.92746  Biso   1.000  C
  C154     1.0000 0.26918  0.89731  0.92746  Biso   1.000  C
  C155     1.0000 0.76918  0.10269  0.57254  Biso   1.000  C
  C156     1.0000 0.73082  0.39731  0.57254  Biso   1.000  C
  C157     1.0000 0.76918  0.39731  0.07254  Biso   1.000  C
  C158     1.0000 0.73082  0.10269  0.07254  Biso   1.000  C
  C159     1.0000 0.23082  0.89731  0.42746  Biso   1.000  C
  C160     1.0000 0.26918  0.60269  0.42746  Biso   1.000  C
  H105     1.0000 0.24980  0.59480  0.85740  Biso   1.000  H
  H106     1.0000 0.25020  0.90520  0.85740  Biso   1.000  H
  H107     1.0000 0.75020  0.09480  0.64260  Biso   1.000  H
  H108     1.0000 0.74980  0.40520  0.64260  Biso   1.000  H
  H109     1.0000 0.75020  0.40520  0.14260  Biso   1.000  H
  H110     1.0000 0.74980  0.09480  0.14260  Biso   1.000  H
  H111     1.0000 0.24980  0.90520  0.35740  Biso   1.000  H
  H112     1.0000 0.25020  0.59480  0.35740  Biso   1.000  H
  C161     1.0000 0.18427  0.55951  0.97123  Biso   1.000  C
  C162     1.0000 0.31573  0.94049  0.97123  Biso   1.000  C
  C163     1.0000 0.81573  0.05951  0.52877  Biso   1.000  C
  C164     1.0000 0.68427  0.44049  0.52877  Biso   1.000  C
  C165     1.0000 0.81573  0.44049  0.02877  Biso   1.000  C
  C166     1.0000 0.68427  0.05951  0.02877  Biso   1.000  C
  C167     1.0000 0.18427  0.94049  0.47123  Biso   1.000  C
  C168     1.0000 0.31573  0.55951  0.47123  Biso   1.000  C
  C169     1.0000 0.15677  0.57350  0.07533  Biso   1.000  C
  C170     1.0000 0.34323  0.92650  0.07533  Biso   1.000  C
  C171     1.0000 0.84323  0.07350  0.42467  Biso   1.000  C
  C172     1.0000 0.65677  0.42650  0.42467  Biso   1.000  C
  C173     1.0000 0.84323  0.42650  0.92467  Biso   1.000  C
  C174     1.0000 0.65677  0.07350  0.92467  Biso   1.000  C
  C175     1.0000 0.15677  0.92650  0.57533  Biso   1.000  C
  C176     1.0000 0.34323  0.57350  0.57533  Biso   1.000  C
  H113     1.0000 0.12540  0.54530  0.10730  Biso   1.000  H
  H114     1.0000 0.37460  0.95470  0.10730  Biso   1.000  H
  H115     1.0000 0.87460  0.04530  0.39270  Biso   1.000  H
  H116     1.0000 0.62540  0.45470  0.39270  Biso   1.000  H
  H117     1.0000 0.87460  0.45470  0.89270  Biso   1.000  H
  H118     1.0000 0.62540  0.04530  0.89270  Biso   1.000  H
  H119     1.0000 0.12540  0.95470  0.60730  Biso   1.000  H
  H120     1.0000 0.37460  0.54530  0.60730  Biso   1.000  H
  C177     1.0000 0.17638  0.62977  0.13095  Biso   1.000  C
  C178     1.0000 0.32362  0.87023  0.13095  Biso   1.000  C
  C179     1.0000 0.82362  0.12977  0.36905  Biso   1.000  C
  C180     1.0000 0.67638  0.37023  0.36905  Biso   1.000  C
  C181     1.0000 0.82362  0.37023  0.86905  Biso   1.000  C
  C182     1.0000 0.67638  0.12977  0.86905  Biso   1.000  C
  C183     1.0000 0.17638  0.87023  0.63095  Biso   1.000  C
  C184     1.0000 0.32362  0.62977  0.63095  Biso   1.000  C
  H121     1.0000 0.15690  0.63940  0.20000  Biso   1.000  H
  H122     1.0000 0.34310  0.86060  0.20000  Biso   1.000  H
  H123     1.0000 0.84310  0.13940  0.30000  Biso   1.000  H
  H124     1.0000 0.65690  0.36060  0.30000  Biso   1.000  H
  H125     1.0000 0.84310  0.36060  0.80000  Biso   1.000  H
  H126     1.0000 0.65690  0.13940  0.80000  Biso   1.000  H
  H127     1.0000 0.15690  0.86060  0.70000  Biso   1.000  H
  H128     1.0000 0.34310  0.63940  0.70000  Biso   1.000  H
  C185     1.0000 0.16260  0.49958  0.90490  Biso   1.000  C
  C186     1.0000 0.33740  0.00042  0.90490  Biso   1.000  C
  C187     1.0000 0.83740  0.99958  0.59510  Biso   1.000  C
  C188     1.0000 0.66260  0.50042  0.59510  Biso   1.000  C
  C189     1.0000 0.83740  0.50042  0.09510  Biso   1.000  C
  C190     1.0000 0.66260  0.99958  0.09510  Biso   1.000  C
  C191     1.0000 0.16260  0.00042  0.40490  Biso   1.000  C
  C192     1.0000 0.33740  0.49958  0.40490  Biso   1.000  C
