data_image0
_cell_length_a       17.9182
_cell_length_b       22.1945
_cell_length_c       22.2787
_cell_angle_alpha    90
_cell_angle_beta     90
_cell_angle_gamma    90

_symmetry_space_group_name_H-M    "P 1"
_symmetry_int_tables_number       1

loop_
  _symmetry_equiv_pos_as_xyz
  'x, y, z'

loop_
  _atom_site_label
  _atom_site_occupancy
  _atom_site_fract_x
  _atom_site_fract_y
  _atom_site_fract_z
  _atom_site_thermal_displace_type
  _atom_site_B_iso_or_equiv
  _atom_site_type_symbol
  Si1      1.0000 0.25000  0.25000  0.50000  Biso   1.000  Si
  Si2      1.0000 0.75000  0.75000  0.50000  Biso   1.000  Si
  Si3      1.0000 0.75000  0.25000  0.00000  Biso   1.000  Si
  Si4      1.0000 0.25000  0.75000  0.00000  Biso   1.000  Si
  W1       1.0000 0.10228  0.31942  0.57882  Biso   1.000  W
  W2       1.0000 0.60228  0.81942  0.57882  Biso   1.000  W
  W3       1.0000 0.89772  0.68058  0.57882  Biso   1.000  W
  W4       1.0000 0.89772  0.31942  0.92118  Biso   1.000  W
  W5       1.0000 0.10228  0.68058  0.92118  Biso   1.000  W
  W6       1.0000 0.39772  0.18058  0.57882  Biso   1.000  W
  W7       1.0000 0.39772  0.81942  0.92118  Biso   1.000  W
  W8       1.0000 0.60228  0.18058  0.92118  Biso   1.000  W
  W9       1.0000 0.89772  0.68058  0.42118  Biso   1.000  W
  W10      1.0000 0.39772  0.18058  0.42118  Biso   1.000  W
  W11      1.0000 0.10228  0.31942  0.42118  Biso   1.000  W
  W12      1.0000 0.10228  0.68058  0.07882  Biso   1.000  W
  W13      1.0000 0.89772  0.31942  0.07882  Biso   1.000  W
  W14      1.0000 0.60228  0.81942  0.42118  Biso   1.000  W
  W15      1.0000 0.60228  0.18058  0.07882  Biso   1.000  W
  W16      1.0000 0.39772  0.81942  0.07882  Biso   1.000  W
  W17      1.0000 0.25000  0.25000  0.65799  Biso   1.000  W
  W18      1.0000 0.75000  0.75000  0.65799  Biso   1.000  W
  W19      1.0000 0.75000  0.25000  0.84201  Biso   1.000  W
  W20      1.0000 0.25000  0.75000  0.84201  Biso   1.000  W
  W21      1.0000 0.75000  0.75000  0.34201  Biso   1.000  W
  W22      1.0000 0.25000  0.25000  0.34201  Biso   1.000  W
  W23      1.0000 0.25000  0.75000  0.15799  Biso   1.000  W
  W24      1.0000 0.75000  0.25000  0.15799  Biso   1.000  W
  W25      1.0000 0.28141  0.38575  0.57917  Biso   1.000  W
  W26      1.0000 0.78141  0.88575  0.57917  Biso   1.000  W
  W27      1.0000 0.71859  0.61425  0.57917  Biso   1.000  W
  W28      1.0000 0.71859  0.38575  0.92083  Biso   1.000  W
  W29      1.0000 0.28141  0.61425  0.92083  Biso   1.000  W
  W30      1.0000 0.21859  0.11425  0.57917  Biso   1.000  W
  W31      1.0000 0.21859  0.88575  0.92083  Biso   1.000  W
  W32      1.0000 0.78141  0.11425  0.92083  Biso   1.000  W
  W33      1.0000 0.71859  0.61425  0.42083  Biso   1.000  W
  W34      1.0000 0.21859  0.11425  0.42083  Biso   1.000  W
  W35      1.0000 0.28141  0.38575  0.42083  Biso   1.000  W
  W36      1.0000 0.28141  0.61425  0.07917  Biso   1.000  W
  W37      1.0000 0.71859  0.38575  0.07917  Biso   1.000  W
  W38      1.0000 0.78141  0.88575  0.42083  Biso   1.000  W
  W39      1.0000 0.78141  0.11425  0.07917  Biso   1.000  W
  W40      1.0000 0.21859  0.88575  0.07917  Biso   1.000  W
  W41      1.0000 0.42883  0.31635  0.50000  Biso   1.000  W
  W42      1.0000 0.92883  0.81635  0.50000  Biso   1.000  W
  W43      1.0000 0.57117  0.68365  0.50000  Biso   1.000  W
  W44      1.0000 0.57117  0.31635  0.00000  Biso   1.000  W
  W45      1.0000 0.42883  0.68365  0.00000  Biso   1.000  W
  W46      1.0000 0.07117  0.18365  0.50000  Biso   1.000  W
  W47      1.0000 0.07117  0.81635  0.00000  Biso   1.000  W
  W48      1.0000 0.92883  0.18365  0.00000  Biso   1.000  W
  O1       1.0000 0.27040  0.41560  0.50000  Biso   1.000  O
  O2       1.0000 0.77040  0.91560  0.50000  Biso   1.000  O
  O3       1.0000 0.72960  0.58440  0.50000  Biso   1.000  O
  O4       1.0000 0.72960  0.41560  0.00000  Biso   1.000  O
  O5       1.0000 0.27040  0.58440  0.00000  Biso   1.000  O
  O6       1.0000 0.22960  0.08440  0.50000  Biso   1.000  O
  O7       1.0000 0.22960  0.91560  0.00000  Biso   1.000  O
  O8       1.0000 0.77040  0.08440  0.00000  Biso   1.000  O
  O9       1.0000 0.03130  0.35200  0.61590  Biso   1.000  O
  O10      1.0000 0.53130  0.85200  0.61590  Biso   1.000  O
  O11      1.0000 0.96870  0.64800  0.61590  Biso   1.000  O
  O12      1.0000 0.96870  0.35200  0.88410  Biso   1.000  O
  O13      1.0000 0.03130  0.64800  0.88410  Biso   1.000  O
  O14      1.0000 0.46870  0.14800  0.61590  Biso   1.000  O
  O15      1.0000 0.46870  0.85200  0.88410  Biso   1.000  O
  O16      1.0000 0.53130  0.14800  0.88410  Biso   1.000  O
  O17      1.0000 0.96870  0.64800  0.38410  Biso   1.000  O
  O18      1.0000 0.46870  0.14800  0.38410  Biso   1.000  O
  O19      1.0000 0.03130  0.35200  0.38410  Biso   1.000  O
  O20      1.0000 0.03130  0.64800  0.11590  Biso   1.000  O
  O21      1.0000 0.96870  0.35200  0.11590  Biso   1.000  O
  O22      1.0000 0.53130  0.85200  0.38410  Biso   1.000  O
  O23      1.0000 0.53130  0.14800  0.11590  Biso   1.000  O
  O24      1.0000 0.46870  0.85200  0.11590  Biso   1.000  O
  O25      1.0000 0.29480  0.44930  0.61790  Biso   1.000  O
  O26      1.0000 0.79480  0.94930  0.61790  Biso   1.000  O
  O27      1.0000 0.70520  0.55070  0.61790  Biso   1.000  O
  O28      1.0000 0.70520  0.44930  0.88210  Biso   1.000  O
  O29      1.0000 0.29480  0.55070  0.88210  Biso   1.000  O
  O30      1.0000 0.20520  0.05070  0.61790  Biso   1.000  O
  O31      1.0000 0.20520  0.94930  0.88210  Biso   1.000  O
  O32      1.0000 0.79480  0.05070  0.88210  Biso   1.000  O
  O33      1.0000 0.70520  0.55070  0.38210  Biso   1.000  O
  O34      1.0000 0.20520  0.05070  0.38210  Biso   1.000  O
  O35      1.0000 0.29480  0.44930  0.38210  Biso   1.000  O
  O36      1.0000 0.29480  0.55070  0.11790  Biso   1.000  O
  O37      1.0000 0.70520  0.44930  0.11790  Biso   1.000  O
  O38      1.0000 0.79480  0.94930  0.38210  Biso   1.000  O
  O39      1.0000 0.79480  0.05070  0.11790  Biso   1.000  O
  O40      1.0000 0.20520  0.94930  0.11790  Biso   1.000  O
  O41      1.0000 0.51340  0.34660  0.50000  Biso   1.000  O
  O42      1.0000 0.01340  0.84660  0.50000  Biso   1.000  O
  O43      1.0000 0.48660  0.65340  0.50000  Biso   1.000  O
  O44      1.0000 0.48660  0.34660  0.00000  Biso   1.000  O
  O45      1.0000 0.51340  0.65340  0.00000  Biso   1.000  O
  O46      1.0000 0.98660  0.15340  0.50000  Biso   1.000  O
  O47      1.0000 0.98660  0.84660  0.00000  Biso   1.000  O
  O48      1.0000 0.01340  0.15340  0.00000  Biso   1.000  O
  O49      1.0000 0.25000  0.25000  0.73350  Biso   1.000  O
  O50      1.0000 0.75000  0.75000  0.73350  Biso   1.000  O
  O51      1.0000 0.75000  0.25000  0.76650  Biso   1.000  O
  O52      1.0000 0.25000  0.75000  0.76650  Biso   1.000  O
  O53      1.0000 0.75000  0.75000  0.26650  Biso   1.000  O
  O54      1.0000 0.25000  0.25000  0.26650  Biso   1.000  O
  O55      1.0000 0.25000  0.75000  0.23350  Biso   1.000  O
  O56      1.0000 0.75000  0.25000  0.23350  Biso   1.000  O
  O57      1.0000 0.28640  0.32880  0.64250  Biso   1.000  O
  O58      1.0000 0.78640  0.82880  0.64250  Biso   1.000  O
  O59      1.0000 0.71360  0.67120  0.64250  Biso   1.000  O
  O60      1.0000 0.71360  0.32880  0.85750  Biso   1.000  O
  O61      1.0000 0.28640  0.67120  0.85750  Biso   1.000  O
  O62      1.0000 0.21360  0.17120  0.64250  Biso   1.000  O
  O63      1.0000 0.21360  0.82880  0.85750  Biso   1.000  O
  O64      1.0000 0.78640  0.17120  0.85750  Biso   1.000  O
  O65      1.0000 0.71360  0.67120  0.35750  Biso   1.000  O
  O66      1.0000 0.21360  0.17120  0.35750  Biso   1.000  O
  O67      1.0000 0.28640  0.32880  0.35750  Biso   1.000  O
  O68      1.0000 0.28640  0.67120  0.14250  Biso   1.000  O
  O69      1.0000 0.71360  0.32880  0.14250  Biso   1.000  O
  O70      1.0000 0.78640  0.82880  0.35750  Biso   1.000  O
  O71      1.0000 0.78640  0.17120  0.14250  Biso   1.000  O
  O72      1.0000 0.21360  0.82880  0.14250  Biso   1.000  O
  O73      1.0000 0.05900  0.24460  0.55880  Biso   1.000  O
  O74      1.0000 0.55900  0.74460  0.55880  Biso   1.000  O
  O75      1.0000 0.94100  0.75540  0.55880  Biso   1.000  O
  O76      1.0000 0.94100  0.24460  0.94120  Biso   1.000  O
  O77      1.0000 0.05900  0.75540  0.94120  Biso   1.000  O
  O78      1.0000 0.44100  0.25540  0.55880  Biso   1.000  O
  O79      1.0000 0.44100  0.74460  0.94120  Biso   1.000  O
  O80      1.0000 0.55900  0.25540  0.94120  Biso   1.000  O
  O81      1.0000 0.94100  0.75540  0.44120  Biso   1.000  O
  O82      1.0000 0.44100  0.25540  0.44120  Biso   1.000  O
  O83      1.0000 0.05900  0.24460  0.44120  Biso   1.000  O
  O84      1.0000 0.05900  0.75540  0.05880  Biso   1.000  O
  O85      1.0000 0.94100  0.24460  0.05880  Biso   1.000  O
  O86      1.0000 0.55900  0.74460  0.44120  Biso   1.000  O
  O87      1.0000 0.55900  0.25540  0.05880  Biso   1.000  O
  O88      1.0000 0.44100  0.74460  0.05880  Biso   1.000  O
  O89      1.0000 0.37920  0.36180  0.55870  Biso   1.000  O
  O90      1.0000 0.87920  0.86180  0.55870  Biso   1.000  O
  O91      1.0000 0.62080  0.63820  0.55870  Biso   1.000  O
  O92      1.0000 0.62080  0.36180  0.94130  Biso   1.000  O
  O93      1.0000 0.37920  0.63820  0.94130  Biso   1.000  O
  O94      1.0000 0.12080  0.13820  0.55870  Biso   1.000  O
  O95      1.0000 0.12080  0.86180  0.94130  Biso   1.000  O
  O96      1.0000 0.87920  0.13820  0.94130  Biso   1.000  O
  O97      1.0000 0.62080  0.63820  0.44130  Biso   1.000  O
  O98      1.0000 0.12080  0.13820  0.44130  Biso   1.000  O
  O99      1.0000 0.37920  0.36180  0.44130  Biso   1.000  O
  O100     1.0000 0.37920  0.63820  0.05870  Biso   1.000  O
  O101     1.0000 0.62080  0.36180  0.05870  Biso   1.000  O
  O102     1.0000 0.87920  0.86180  0.44130  Biso   1.000  O
  O103     1.0000 0.87920  0.13820  0.05870  Biso   1.000  O
  O104     1.0000 0.12080  0.86180  0.05870  Biso   1.000  O
  O105     1.0000 0.15370  0.27940  0.64160  Biso   1.000  O
  O106     1.0000 0.65370  0.77940  0.64160  Biso   1.000  O
  O107     1.0000 0.84630  0.72060  0.64160  Biso   1.000  O
  O108     1.0000 0.84630  0.27940  0.85840  Biso   1.000  O
  O109     1.0000 0.15370  0.72060  0.85840  Biso   1.000  O
  O110     1.0000 0.34630  0.22060  0.64160  Biso   1.000  O
  O111     1.0000 0.34630  0.77940  0.85840  Biso   1.000  O
  O112     1.0000 0.65370  0.22060  0.85840  Biso   1.000  O
  O113     1.0000 0.84630  0.72060  0.35840  Biso   1.000  O
  O114     1.0000 0.34630  0.22060  0.35840  Biso   1.000  O
  O115     1.0000 0.15370  0.27940  0.35840  Biso   1.000  O
  O116     1.0000 0.15370  0.72060  0.14160  Biso   1.000  O
  O117     1.0000 0.84630  0.27940  0.14160  Biso   1.000  O
  O118     1.0000 0.65370  0.77940  0.35840  Biso   1.000  O
  O119     1.0000 0.65370  0.22060  0.14160  Biso   1.000  O
  O120     1.0000 0.34630  0.77940  0.14160  Biso   1.000  O
  O121     1.0000 0.26610  0.21460  0.55910  Biso   1.000  O
  O122     1.0000 0.76610  0.71460  0.55910  Biso   1.000  O
  O123     1.0000 0.73390  0.78540  0.55910  Biso   1.000  O
  O124     1.0000 0.73390  0.21460  0.94090  Biso   1.000  O
  O125     1.0000 0.26610  0.78540  0.94090  Biso   1.000  O
  O126     1.0000 0.23390  0.28540  0.55910  Biso   1.000  O
  O127     1.0000 0.23390  0.71460  0.94090  Biso   1.000  O
  O128     1.0000 0.76610  0.28540  0.94090  Biso   1.000  O
  O129     1.0000 0.73390  0.78540  0.44090  Biso   1.000  O
  O130     1.0000 0.23390  0.28540  0.44090  Biso   1.000  O
  O131     1.0000 0.26610  0.21460  0.44090  Biso   1.000  O
  O132     1.0000 0.26610  0.78540  0.05910  Biso   1.000  O
  O133     1.0000 0.73390  0.21460  0.05910  Biso   1.000  O
  O134     1.0000 0.76610  0.71460  0.44090  Biso   1.000  O
  O135     1.0000 0.76610  0.28540  0.05910  Biso   1.000  O
  O136     1.0000 0.23390  0.71460  0.05910  Biso   1.000  O
  O137     1.0000 0.34100  0.23510  0.50000  Biso   1.000  O
  O138     1.0000 0.84100  0.73510  0.50000  Biso   1.000  O
  O139     1.0000 0.65900  0.76490  0.50000  Biso   1.000  O
  O140     1.0000 0.65900  0.23510  0.00000  Biso   1.000  O
  O141     1.0000 0.34100  0.76490  0.00000  Biso   1.000  O
  O142     1.0000 0.15900  0.26490  0.50000  Biso   1.000  O
  O143     1.0000 0.15900  0.73510  0.00000  Biso   1.000  O
  O144     1.0000 0.84100  0.26490  0.00000  Biso   1.000  O
  O145     1.0000 0.08150  0.34580  0.50000  Biso   1.000  O
  O146     1.0000 0.58150  0.84580  0.50000  Biso   1.000  O
  O147     1.0000 0.91850  0.65420  0.50000  Biso   1.000  O
  O148     1.0000 0.91850  0.34580  0.00000  Biso   1.000  O
  O149     1.0000 0.08150  0.65420  0.00000  Biso   1.000  O
  O150     1.0000 0.41850  0.15420  0.50000  Biso   1.000  O
  O151     1.0000 0.41850  0.84580  0.00000  Biso   1.000  O
  O152     1.0000 0.58150  0.15420  0.00000  Biso   1.000  O
  O153     1.0000 0.17620  0.37960  0.58260  Biso   1.000  O
  O154     1.0000 0.67620  0.87960  0.58260  Biso   1.000  O
  O155     1.0000 0.82380  0.62040  0.58260  Biso   1.000  O
  O156     1.0000 0.82380  0.37960  0.91740  Biso   1.000  O
  O157     1.0000 0.17620  0.62040  0.91740  Biso   1.000  O
  O158     1.0000 0.32380  0.12040  0.58260  Biso   1.000  O
  O159     1.0000 0.32380  0.87960  0.91740  Biso   1.000  O
  O160     1.0000 0.67620  0.12040  0.91740  Biso   1.000  O
  O161     1.0000 0.82380  0.62040  0.41740  Biso   1.000  O
  O162     1.0000 0.32380  0.12040  0.41740  Biso   1.000  O
  O163     1.0000 0.17620  0.37960  0.41740  Biso   1.000  O
  O164     1.0000 0.17620  0.62040  0.08260  Biso   1.000  O
  O165     1.0000 0.82380  0.37960  0.08260  Biso   1.000  O
  O166     1.0000 0.67620  0.87960  0.41740  Biso   1.000  O
  O167     1.0000 0.67620  0.12040  0.08260  Biso   1.000  O
  O168     1.0000 0.32380  0.87960  0.08260  Biso   1.000  O
  O169     1.0000 0.28910  0.31470  0.50000  Biso   1.000  O
  O170     1.0000 0.78910  0.81470  0.50000  Biso   1.000  O
  O171     1.0000 0.71090  0.68530  0.50000  Biso   1.000  O
  O172     1.0000 0.71090  0.31470  0.00000  Biso   1.000  O
  O173     1.0000 0.28910  0.68530  0.00000  Biso   1.000  O
  O174     1.0000 0.21090  0.18530  0.50000  Biso   1.000  O
  O175     1.0000 0.21090  0.81470  0.00000  Biso   1.000  O
  O176     1.0000 0.78910  0.18530  0.00000  Biso   1.000  O
  O177     1.0000 0.23710  0.09750  0.23370  Biso   1.000  O
  O178     1.0000 0.73710  0.59750  0.23370  Biso   1.000  O
  O179     1.0000 0.76290  0.90250  0.23370  Biso   1.000  O
  O180     1.0000 0.76290  0.09750  0.26630  Biso   1.000  O
  O181     1.0000 0.23710  0.90250  0.26630  Biso   1.000  O
  O182     1.0000 0.26290  0.40250  0.23370  Biso   1.000  O
  O183     1.0000 0.26290  0.59750  0.26630  Biso   1.000  O
  O184     1.0000 0.73710  0.40250  0.26630  Biso   1.000  O
  O185     1.0000 0.76290  0.90250  0.76630  Biso   1.000  O
  O186     1.0000 0.26290  0.40250  0.76630  Biso   1.000  O
  O187     1.0000 0.23710  0.09750  0.76630  Biso   1.000  O
  O188     1.0000 0.23710  0.90250  0.73370  Biso   1.000  O
  O189     1.0000 0.76290  0.09750  0.73370  Biso   1.000  O
  O190     1.0000 0.73710  0.59750  0.76630  Biso   1.000  O
  O191     1.0000 0.73710  0.40250  0.73370  Biso   1.000  O
  O192     1.0000 0.26290  0.59750  0.73370  Biso   1.000  O
  O193     1.0000 0.16160  0.50000  0.25000  Biso   1.000  O
  O194     1.0000 0.66160  0.00000  0.25000  Biso   1.000  O
  O195     1.0000 0.83840  0.50000  0.25000  Biso   1.000  O
  O196     1.0000 0.33840  0.00000  0.25000  Biso   1.000  O
  O197     1.0000 0.83840  0.50000  0.75000  Biso   1.000  O
  O198     1.0000 0.33840  0.00000  0.75000  Biso   1.000  O
  O199     1.0000 0.16160  0.50000  0.75000  Biso   1.000  O
  O200     1.0000 0.66160  0.00000  0.75000  Biso   1.000  O
  O201     1.0000 0.13790  0.00000  0.25000  Biso   1.000  O
  O202     1.0000 0.63790  0.50000  0.25000  Biso   1.000  O
  O203     1.0000 0.86210  0.00000  0.25000  Biso   1.000  O
  O204     1.0000 0.36210  0.50000  0.25000  Biso   1.000  O
  O205     1.0000 0.86210  0.00000  0.75000  Biso   1.000  O
  O206     1.0000 0.36210  0.50000  0.75000  Biso   1.000  O
  O207     1.0000 0.13790  0.00000  0.75000  Biso   1.000  O
  O208     1.0000 0.63790  0.50000  0.75000  Biso   1.000  O
  O209     1.0000 0.62080  0.17100  0.56600  Biso   1.000  O
  O210     1.0000 0.12080  0.67100  0.56600  Biso   1.000  O
  O211     1.0000 0.37920  0.82900  0.56600  Biso   1.000  O
  O212     1.0000 0.37920  0.17100  0.93400  Biso   1.000  O
  O213     1.0000 0.62080  0.82900  0.93400  Biso   1.000  O
  O214     1.0000 0.87920  0.32900  0.56600  Biso   1.000  O
  O215     1.0000 0.87920  0.67100  0.93400  Biso   1.000  O
  O216     1.0000 0.12080  0.32900  0.93400  Biso   1.000  O
  O217     1.0000 0.37920  0.82900  0.43400  Biso   1.000  O
  O218     1.0000 0.87920  0.32900  0.43400  Biso   1.000  O
  O219     1.0000 0.62080  0.17100  0.43400  Biso   1.000  O
  O220     1.0000 0.62080  0.82900  0.06600  Biso   1.000  O
  O221     1.0000 0.37920  0.17100  0.06600  Biso   1.000  O
  O222     1.0000 0.12080  0.67100  0.43400  Biso   1.000  O
  O223     1.0000 0.12080  0.32900  0.06600  Biso   1.000  O
  O224     1.0000 0.87920  0.67100  0.06600  Biso   1.000  O
  O225     1.0000 0.62330  0.29610  0.59630  Biso   1.000  O
  O226     1.0000 0.12330  0.79610  0.59630  Biso   1.000  O
  O227     1.0000 0.37670  0.70390  0.59630  Biso   1.000  O
  O228     1.0000 0.37670  0.29610  0.90370  Biso   1.000  O
  O229     1.0000 0.62330  0.70390  0.90370  Biso   1.000  O
  O230     1.0000 0.87670  0.20390  0.59630  Biso   1.000  O
  O231     1.0000 0.87670  0.79610  0.90370  Biso   1.000  O
  O232     1.0000 0.12330  0.20390  0.90370  Biso   1.000  O
  O233     1.0000 0.37670  0.70390  0.40370  Biso   1.000  O
  O234     1.0000 0.87670  0.20390  0.40370  Biso   1.000  O
  O235     1.0000 0.62330  0.29610  0.40370  Biso   1.000  O
  O236     1.0000 0.62330  0.70390  0.09630  Biso   1.000  O
  O237     1.0000 0.37670  0.29610  0.09630  Biso   1.000  O
  O238     1.0000 0.12330  0.79610  0.40370  Biso   1.000  O
  O239     1.0000 0.12330  0.20390  0.09630  Biso   1.000  O
  O240     1.0000 0.87670  0.79610  0.09630  Biso   1.000  O
  O241     1.0000 0.24620  0.12640  0.11030  Biso   1.000  O
  O242     1.0000 0.74620  0.62640  0.11030  Biso   1.000  O
  O243     1.0000 0.75380  0.87360  0.11030  Biso   1.000  O
  O244     1.0000 0.75380  0.12640  0.38970  Biso   1.000  O
  O245     1.0000 0.24620  0.87360  0.38970  Biso   1.000  O
  O246     1.0000 0.25380  0.37360  0.11030  Biso   1.000  O
  O247     1.0000 0.25380  0.62640  0.38970  Biso   1.000  O
  O248     1.0000 0.74620  0.37360  0.38970  Biso   1.000  O
  O249     1.0000 0.75380  0.87360  0.88970  Biso   1.000  O
  O250     1.0000 0.25380  0.37360  0.88970  Biso   1.000  O
  O251     1.0000 0.24620  0.12640  0.88970  Biso   1.000  O
  O252     1.0000 0.24620  0.87360  0.61030  Biso   1.000  O
  O253     1.0000 0.75380  0.12640  0.61030  Biso   1.000  O
  O254     1.0000 0.74620  0.62640  0.88970  Biso   1.000  O
  O255     1.0000 0.74620  0.37360  0.61030  Biso   1.000  O
  O256     1.0000 0.25380  0.62640  0.61030  Biso   1.000  O
  O257     1.0000 0.24270  0.05500  0.00000  Biso   1.000  O
  O258     1.0000 0.74270  0.55500  0.00000  Biso   1.000  O
  O259     1.0000 0.75730  0.94500  0.00000  Biso   1.000  O
  O260     1.0000 0.75730  0.05500  0.50000  Biso   1.000  O
  O261     1.0000 0.24270  0.94500  0.50000  Biso   1.000  O
  O262     1.0000 0.25730  0.44500  0.00000  Biso   1.000  O
  O263     1.0000 0.25730  0.55500  0.50000  Biso   1.000  O
  O264     1.0000 0.74270  0.44500  0.50000  Biso   1.000  O
  Cu1      1.0000 0.00000  0.00000  0.25000  Biso   1.000  Cu
  Cu2      1.0000 0.50000  0.50000  0.25000  Biso   1.000  Cu
  Cu3      1.0000 0.00000  0.00000  0.75000  Biso   1.000  Cu
  Cu4      1.0000 0.50000  0.50000  0.75000  Biso   1.000  Cu
  Cu5      1.0000 0.00000  0.50000  0.25000  Biso   1.000  Cu
  Cu6      1.0000 0.50000  0.00000  0.25000  Biso   1.000  Cu
  Cu7      1.0000 0.00000  0.50000  0.75000  Biso   1.000  Cu
  Cu8      1.0000 0.50000  0.00000  0.75000  Biso   1.000  Cu
  N1       1.0000 0.00000  0.00000  0.15850  Biso   1.000  N
  N2       1.0000 0.50000  0.50000  0.15850  Biso   1.000  N
  N3       1.0000 0.00000  0.00000  0.34150  Biso   1.000  N
  N4       1.0000 0.50000  0.50000  0.34150  Biso   1.000  N
  N5       1.0000 0.00000  0.00000  0.84150  Biso   1.000  N
  N6       1.0000 0.50000  0.50000  0.84150  Biso   1.000  N
  N7       1.0000 0.00000  0.00000  0.65850  Biso   1.000  N
  N8       1.0000 0.50000  0.50000  0.65850  Biso   1.000  N
  N9       1.0000 0.00000  0.09070  0.25000  Biso   1.000  N
  N10      1.0000 0.50000  0.59070  0.25000  Biso   1.000  N
  N11      1.0000 0.00000  0.90930  0.25000  Biso   1.000  N
  N12      1.0000 0.50000  0.40930  0.25000  Biso   1.000  N
  N13      1.0000 0.00000  0.90930  0.75000  Biso   1.000  N
  N14      1.0000 0.50000  0.40930  0.75000  Biso   1.000  N
  N15      1.0000 0.00000  0.09070  0.75000  Biso   1.000  N
  N16      1.0000 0.50000  0.59070  0.75000  Biso   1.000  N
  N17      1.0000 0.00000  0.40950  0.25000  Biso   1.000  N
  N18      1.0000 0.50000  0.90950  0.25000  Biso   1.000  N
  N19      1.0000 0.00000  0.59050  0.25000  Biso   1.000  N
  N20      1.0000 0.50000  0.09050  0.25000  Biso   1.000  N
  N21      1.0000 0.00000  0.59050  0.75000  Biso   1.000  N
  N22      1.0000 0.50000  0.09050  0.75000  Biso   1.000  N
  N23      1.0000 0.00000  0.40950  0.75000  Biso   1.000  N
  N24      1.0000 0.50000  0.90950  0.75000  Biso   1.000  N
  N25      1.0000 0.00000  0.50000  0.34120  Biso   1.000  N
  N26      1.0000 0.50000  0.00000  0.34120  Biso   1.000  N
  N27      1.0000 0.00000  0.50000  0.15880  Biso   1.000  N
  N28      1.0000 0.50000  0.00000  0.15880  Biso   1.000  N
  N29      1.0000 0.00000  0.50000  0.65880  Biso   1.000  N
  N30      1.0000 0.50000  0.00000  0.65880  Biso   1.000  N
  N31      1.0000 0.00000  0.50000  0.84120  Biso   1.000  N
  N32      1.0000 0.50000  0.00000  0.84120  Biso   1.000  N
  C1       1.0000 0.05280  0.02780  0.12760  Biso   1.000  C
  C2       1.0000 0.55280  0.52780  0.12760  Biso   1.000  C
  C3       1.0000 0.94720  0.97220  0.12760  Biso   1.000  C
  C4       1.0000 0.94720  0.02780  0.37240  Biso   1.000  C
  C5       1.0000 0.05280  0.97220  0.37240  Biso   1.000  C
  C6       1.0000 0.44720  0.47220  0.12760  Biso   1.000  C
  C7       1.0000 0.44720  0.52780  0.37240  Biso   1.000  C
  C8       1.0000 0.55280  0.47220  0.37240  Biso   1.000  C
  C9       1.0000 0.94720  0.97220  0.87240  Biso   1.000  C
  C10      1.0000 0.44720  0.47220  0.87240  Biso   1.000  C
  C11      1.0000 0.05280  0.02780  0.87240  Biso   1.000  C
  C12      1.0000 0.05280  0.97220  0.62760  Biso   1.000  C
  C13      1.0000 0.94720  0.02780  0.62760  Biso   1.000  C
  C14      1.0000 0.55280  0.52780  0.87240  Biso   1.000  C
  C15      1.0000 0.55280  0.47220  0.62760  Biso   1.000  C
  C16      1.0000 0.44720  0.52780  0.62760  Biso   1.000  C
  H1       1.0000 0.09040  0.04730  0.14880  Biso   1.000  H
  H2       1.0000 0.59040  0.54730  0.14880  Biso   1.000  H
  H3       1.0000 0.90960  0.95270  0.14880  Biso   1.000  H
  H4       1.0000 0.90960  0.04730  0.35120  Biso   1.000  H
  H5       1.0000 0.09040  0.95270  0.35120  Biso   1.000  H
  H6       1.0000 0.40960  0.45270  0.14880  Biso   1.000  H
  H7       1.0000 0.40960  0.54730  0.35120  Biso   1.000  H
  H8       1.0000 0.59040  0.45270  0.35120  Biso   1.000  H
  H9       1.0000 0.90960  0.95270  0.85120  Biso   1.000  H
  H10      1.0000 0.40960  0.45270  0.85120  Biso   1.000  H
  H11      1.0000 0.09040  0.04730  0.85120  Biso   1.000  H
  H12      1.0000 0.09040  0.95270  0.64880  Biso   1.000  H
  H13      1.0000 0.90960  0.04730  0.64880  Biso   1.000  H
  H14      1.0000 0.59040  0.54730  0.85120  Biso   1.000  H
  H15      1.0000 0.59040  0.45270  0.64880  Biso   1.000  H
  H16      1.0000 0.40960  0.54730  0.64880  Biso   1.000  H
  C17      1.0000 0.04540  0.12300  0.28620  Biso   1.000  C
  C18      1.0000 0.54540  0.62300  0.28620  Biso   1.000  C
  C19      1.0000 0.95460  0.87700  0.28620  Biso   1.000  C
  C20      1.0000 0.95460  0.12300  0.21380  Biso   1.000  C
  C21      1.0000 0.04540  0.87700  0.21380  Biso   1.000  C
  C22      1.0000 0.45460  0.37700  0.28620  Biso   1.000  C
  C23      1.0000 0.45460  0.62300  0.21380  Biso   1.000  C
  C24      1.0000 0.54540  0.37700  0.21380  Biso   1.000  C
  C25      1.0000 0.95460  0.87700  0.71380  Biso   1.000  C
  C26      1.0000 0.45460  0.37700  0.71380  Biso   1.000  C
  C27      1.0000 0.04540  0.12300  0.71380  Biso   1.000  C
  C28      1.0000 0.04540  0.87700  0.78620  Biso   1.000  C
  C29      1.0000 0.95460  0.12300  0.78620  Biso   1.000  C
  C30      1.0000 0.54540  0.62300  0.71380  Biso   1.000  C
  C31      1.0000 0.54540  0.37700  0.78620  Biso   1.000  C
  C32      1.0000 0.45460  0.62300  0.78620  Biso   1.000  C
  H17      1.0000 0.07720  0.10230  0.31200  Biso   1.000  H
  H18      1.0000 0.57720  0.60230  0.31200  Biso   1.000  H
  H19      1.0000 0.92280  0.89770  0.31200  Biso   1.000  H
  H20      1.0000 0.92280  0.10230  0.18800  Biso   1.000  H
  H21      1.0000 0.07720  0.89770  0.18800  Biso   1.000  H
  H22      1.0000 0.42280  0.39770  0.31200  Biso   1.000  H
  H23      1.0000 0.42280  0.60230  0.18800  Biso   1.000  H
  H24      1.0000 0.57720  0.39770  0.18800  Biso   1.000  H
  H25      1.0000 0.92280  0.89770  0.68800  Biso   1.000  H
  H26      1.0000 0.42280  0.39770  0.68800  Biso   1.000  H
  H27      1.0000 0.07720  0.10230  0.68800  Biso   1.000  H
  H28      1.0000 0.07720  0.89770  0.81200  Biso   1.000  H
  H29      1.0000 0.92280  0.10230  0.81200  Biso   1.000  H
  H30      1.0000 0.57720  0.60230  0.68800  Biso   1.000  H
  H31      1.0000 0.57720  0.39770  0.81200  Biso   1.000  H
  H32      1.0000 0.42280  0.60230  0.81200  Biso   1.000  H
  C33      1.0000 0.04720  0.18420  0.28680  Biso   1.000  C
  C34      1.0000 0.54720  0.68420  0.28680  Biso   1.000  C
  C35      1.0000 0.95280  0.81580  0.28680  Biso   1.000  C
  C36      1.0000 0.95280  0.18420  0.21320  Biso   1.000  C
  C37      1.0000 0.04720  0.81580  0.21320  Biso   1.000  C
  C38      1.0000 0.45280  0.31580  0.28680  Biso   1.000  C
  C39      1.0000 0.45280  0.68420  0.21320  Biso   1.000  C
  C40      1.0000 0.54720  0.31580  0.21320  Biso   1.000  C
  C41      1.0000 0.95280  0.81580  0.71320  Biso   1.000  C
  C42      1.0000 0.45280  0.31580  0.71320  Biso   1.000  C
  C43      1.0000 0.04720  0.18420  0.71320  Biso   1.000  C
  C44      1.0000 0.04720  0.81580  0.78680  Biso   1.000  C
  C45      1.0000 0.95280  0.18420  0.78680  Biso   1.000  C
  C46      1.0000 0.54720  0.68420  0.71320  Biso   1.000  C
  C47      1.0000 0.54720  0.31580  0.78680  Biso   1.000  C
  C48      1.0000 0.45280  0.68420  0.78680  Biso   1.000  C
  H33      1.0000 0.08030  0.20400  0.31220  Biso   1.000  H
  H34      1.0000 0.58030  0.70400  0.31220  Biso   1.000  H
  H35      1.0000 0.91970  0.79600  0.31220  Biso   1.000  H
  H36      1.0000 0.91970  0.20400  0.18780  Biso   1.000  H
  H37      1.0000 0.08030  0.79600  0.18780  Biso   1.000  H
  H38      1.0000 0.41970  0.29600  0.31220  Biso   1.000  H
  H39      1.0000 0.41970  0.70400  0.18780  Biso   1.000  H
  H40      1.0000 0.58030  0.29600  0.18780  Biso   1.000  H
  H41      1.0000 0.91970  0.79600  0.68780  Biso   1.000  H
  H42      1.0000 0.41970  0.29600  0.68780  Biso   1.000  H
  H43      1.0000 0.08030  0.20400  0.68780  Biso   1.000  H
  H44      1.0000 0.08030  0.79600  0.81220  Biso   1.000  H
  H45      1.0000 0.91970  0.20400  0.81220  Biso   1.000  H
  H46      1.0000 0.58030  0.70400  0.68780  Biso   1.000  H
  H47      1.0000 0.58030  0.29600  0.81220  Biso   1.000  H
  H48      1.0000 0.41970  0.70400  0.81220  Biso   1.000  H
  C49      1.0000 0.05520  0.02930  0.06580  Biso   1.000  C
  C50      1.0000 0.55520  0.52930  0.06580  Biso   1.000  C
  C51      1.0000 0.94480  0.97070  0.06580  Biso   1.000  C
  C52      1.0000 0.94480  0.02930  0.43420  Biso   1.000  C
  C53      1.0000 0.05520  0.97070  0.43420  Biso   1.000  C
  C54      1.0000 0.44480  0.47070  0.06580  Biso   1.000  C
  C55      1.0000 0.44480  0.52930  0.43420  Biso   1.000  C
  C56      1.0000 0.55520  0.47070  0.43420  Biso   1.000  C
  C57      1.0000 0.94480  0.97070  0.93420  Biso   1.000  C
  C58      1.0000 0.44480  0.47070  0.93420  Biso   1.000  C
  C59      1.0000 0.05520  0.02930  0.93420  Biso   1.000  C
  C60      1.0000 0.05520  0.97070  0.56580  Biso   1.000  C
  C61      1.0000 0.94480  0.02930  0.56580  Biso   1.000  C
  C62      1.0000 0.55520  0.52930  0.93420  Biso   1.000  C
  C63      1.0000 0.55520  0.47070  0.56580  Biso   1.000  C
  C64      1.0000 0.44480  0.52930  0.56580  Biso   1.000  C
  H49      1.0000 0.09340  0.04980  0.04630  Biso   1.000  H
  H50      1.0000 0.59340  0.54980  0.04630  Biso   1.000  H
  H51      1.0000 0.90660  0.95020  0.04630  Biso   1.000  H
  H52      1.0000 0.90660  0.04980  0.45370  Biso   1.000  H
  H53      1.0000 0.09340  0.95020  0.45370  Biso   1.000  H
  H54      1.0000 0.40660  0.45020  0.04630  Biso   1.000  H
  H55      1.0000 0.40660  0.54980  0.45370  Biso   1.000  H
  H56      1.0000 0.59340  0.45020  0.45370  Biso   1.000  H
  H57      1.0000 0.90660  0.95020  0.95370  Biso   1.000  H
  H58      1.0000 0.40660  0.45020  0.95370  Biso   1.000  H
  H59      1.0000 0.09340  0.04980  0.95370  Biso   1.000  H
  H60      1.0000 0.09340  0.95020  0.54630  Biso   1.000  H
  H61      1.0000 0.90660  0.04980  0.54630  Biso   1.000  H
  H62      1.0000 0.59340  0.54980  0.95370  Biso   1.000  H
  H63      1.0000 0.59340  0.45020  0.54630  Biso   1.000  H
  H64      1.0000 0.40660  0.54980  0.54630  Biso   1.000  H
  C65      1.0000 0.00000  0.00000  0.03250  Biso   1.000  C
  C66      1.0000 0.50000  0.50000  0.03250  Biso   1.000  C
  C67      1.0000 0.00000  0.00000  0.46750  Biso   1.000  C
  C68      1.0000 0.50000  0.50000  0.46750  Biso   1.000  C
  C69      1.0000 0.00000  0.00000  0.96750  Biso   1.000  C
  C70      1.0000 0.50000  0.50000  0.96750  Biso   1.000  C
  C71      1.0000 0.00000  0.00000  0.53250  Biso   1.000  C
  C72      1.0000 0.50000  0.50000  0.53250  Biso   1.000  C
  C73      1.0000 0.00000  0.21750  0.25000  Biso   1.000  C
  C74      1.0000 0.50000  0.71750  0.25000  Biso   1.000  C
  C75      1.0000 0.00000  0.78250  0.25000  Biso   1.000  C
  C76      1.0000 0.50000  0.28250  0.25000  Biso   1.000  C
  C77      1.0000 0.00000  0.78250  0.75000  Biso   1.000  C
  C78      1.0000 0.50000  0.28250  0.75000  Biso   1.000  C
  C79      1.0000 0.00000  0.21750  0.75000  Biso   1.000  C
  C80      1.0000 0.50000  0.71750  0.75000  Biso   1.000  C
  C81      1.0000 0.06250  0.49420  0.37250  Biso   1.000  C
  C82      1.0000 0.56250  0.99420  0.37250  Biso   1.000  C
  C83      1.0000 0.93750  0.50580  0.37250  Biso   1.000  C
  C84      1.0000 0.93750  0.49420  0.12750  Biso   1.000  C
  C85      1.0000 0.06250  0.50580  0.12750  Biso   1.000  C
  C86      1.0000 0.43750  0.00580  0.37250  Biso   1.000  C
  C87      1.0000 0.43750  0.99420  0.12750  Biso   1.000  C
  C88      1.0000 0.56250  0.00580  0.12750  Biso   1.000  C
  C89      1.0000 0.93750  0.50580  0.62750  Biso   1.000  C
  C90      1.0000 0.43750  0.00580  0.62750  Biso   1.000  C
  C91      1.0000 0.06250  0.49420  0.62750  Biso   1.000  C
  C92      1.0000 0.06250  0.50580  0.87250  Biso   1.000  C
  C93      1.0000 0.93750  0.49420  0.87250  Biso   1.000  C
  C94      1.0000 0.56250  0.99420  0.62750  Biso   1.000  C
  C95      1.0000 0.56250  0.00580  0.87250  Biso   1.000  C
  C96      1.0000 0.43750  0.99420  0.87250  Biso   1.000  C
  H65      1.0000 0.10670  0.48930  0.35120  Biso   1.000  H
  H66      1.0000 0.60670  0.98930  0.35120  Biso   1.000  H
  H67      1.0000 0.89330  0.51070  0.35120  Biso   1.000  H
  H68      1.0000 0.89330  0.48930  0.14880  Biso   1.000  H
  H69      1.0000 0.10670  0.51070  0.14880  Biso   1.000  H
  H70      1.0000 0.39330  0.01070  0.35120  Biso   1.000  H
  H71      1.0000 0.39330  0.98930  0.14880  Biso   1.000  H
  H72      1.0000 0.60670  0.01070  0.14880  Biso   1.000  H
  H73      1.0000 0.89330  0.51070  0.64880  Biso   1.000  H
  H74      1.0000 0.39330  0.01070  0.64880  Biso   1.000  H
  H75      1.0000 0.10670  0.48930  0.64880  Biso   1.000  H
  H76      1.0000 0.10670  0.51070  0.85120  Biso   1.000  H
  H77      1.0000 0.89330  0.48930  0.85120  Biso   1.000  H
  H78      1.0000 0.60670  0.98930  0.64880  Biso   1.000  H
  H79      1.0000 0.60670  0.01070  0.85120  Biso   1.000  H
  H80      1.0000 0.39330  0.98930  0.85120  Biso   1.000  H
  C97      1.0000 0.06690  0.49490  0.43370  Biso   1.000  C
  C98      1.0000 0.56690  0.99490  0.43370  Biso   1.000  C
  C99      1.0000 0.93310  0.50510  0.43370  Biso   1.000  C
  C100     1.0000 0.93310  0.49490  0.06630  Biso   1.000  C
  C101     1.0000 0.06690  0.50510  0.06630  Biso   1.000  C
  C102     1.0000 0.43310  0.00510  0.43370  Biso   1.000  C
  C103     1.0000 0.43310  0.99490  0.06630  Biso   1.000  C
  C104     1.0000 0.56690  0.00510  0.06630  Biso   1.000  C
  C105     1.0000 0.93310  0.50510  0.56630  Biso   1.000  C
  C106     1.0000 0.43310  0.00510  0.56630  Biso   1.000  C
  C107     1.0000 0.06690  0.49490  0.56630  Biso   1.000  C
  C108     1.0000 0.06690  0.50510  0.93370  Biso   1.000  C
  C109     1.0000 0.93310  0.49490  0.93370  Biso   1.000  C
  C110     1.0000 0.56690  0.99490  0.56630  Biso   1.000  C
  C111     1.0000 0.56690  0.00510  0.93370  Biso   1.000  C
  C112     1.0000 0.43310  0.99490  0.93370  Biso   1.000  C
  H81      1.0000 0.11280  0.49210  0.45300  Biso   1.000  H
  H82      1.0000 0.61280  0.99210  0.45300  Biso   1.000  H
  H83      1.0000 0.88720  0.50790  0.45300  Biso   1.000  H
  H84      1.0000 0.88720  0.49210  0.04700  Biso   1.000  H
  H85      1.0000 0.11280  0.50790  0.04700  Biso   1.000  H
  H86      1.0000 0.38720  0.00790  0.45300  Biso   1.000  H
  H87      1.0000 0.38720  0.99210  0.04700  Biso   1.000  H
  H88      1.0000 0.61280  0.00790  0.04700  Biso   1.000  H
  H89      1.0000 0.88720  0.50790  0.54700  Biso   1.000  H
  H90      1.0000 0.38720  0.00790  0.54700  Biso   1.000  H
  H91      1.0000 0.11280  0.49210  0.54700  Biso   1.000  H
  H92      1.0000 0.11280  0.50790  0.95300  Biso   1.000  H
  H93      1.0000 0.88720  0.49210  0.95300  Biso   1.000  H
  H94      1.0000 0.61280  0.99210  0.54700  Biso   1.000  H
  H95      1.0000 0.61280  0.00790  0.95300  Biso   1.000  H
  H96      1.0000 0.38720  0.99210  0.95300  Biso   1.000  H
  C113     1.0000 0.06110  0.37790  0.23770  Biso   1.000  C
  C114     1.0000 0.56110  0.87790  0.23770  Biso   1.000  C
  C115     1.0000 0.93890  0.62210  0.23770  Biso   1.000  C
  C116     1.0000 0.93890  0.37790  0.26230  Biso   1.000  C
  C117     1.0000 0.06110  0.62210  0.26230  Biso   1.000  C
  C118     1.0000 0.43890  0.12210  0.23770  Biso   1.000  C
  C119     1.0000 0.43890  0.87790  0.26230  Biso   1.000  C
  C120     1.0000 0.56110  0.12210  0.26230  Biso   1.000  C
  C121     1.0000 0.93890  0.62210  0.76230  Biso   1.000  C
  C122     1.0000 0.43890  0.12210  0.76230  Biso   1.000  C
  C123     1.0000 0.06110  0.37790  0.76230  Biso   1.000  C
  C124     1.0000 0.06110  0.62210  0.73770  Biso   1.000  C
  C125     1.0000 0.93890  0.37790  0.73770  Biso   1.000  C
  C126     1.0000 0.56110  0.87790  0.76230  Biso   1.000  C
  C127     1.0000 0.56110  0.12210  0.73770  Biso   1.000  C
  C128     1.0000 0.43890  0.87790  0.73770  Biso   1.000  C
  H97      1.0000 0.10460  0.39900  0.22900  Biso   1.000  H
  H98      1.0000 0.60460  0.89900  0.22900  Biso   1.000  H
  H99      1.0000 0.89540  0.60100  0.22900  Biso   1.000  H
  H100     1.0000 0.89540  0.39900  0.27100  Biso   1.000  H
  H101     1.0000 0.10460  0.60100  0.27100  Biso   1.000  H
  H102     1.0000 0.39540  0.10100  0.22900  Biso   1.000  H
  H103     1.0000 0.39540  0.89900  0.27100  Biso   1.000  H
  H104     1.0000 0.60460  0.10100  0.27100  Biso   1.000  H
  H105     1.0000 0.89540  0.60100  0.77100  Biso   1.000  H
  H106     1.0000 0.39540  0.10100  0.77100  Biso   1.000  H
  H107     1.0000 0.10460  0.39900  0.77100  Biso   1.000  H
  H108     1.0000 0.10460  0.60100  0.72900  Biso   1.000  H
  H109     1.0000 0.89540  0.39900  0.72900  Biso   1.000  H
  H110     1.0000 0.60460  0.89900  0.77100  Biso   1.000  H
  H111     1.0000 0.60460  0.10100  0.72900  Biso   1.000  H
  H112     1.0000 0.39540  0.89900  0.72900  Biso   1.000  H
  C129     1.0000 0.06400  0.31560  0.23720  Biso   1.000  C
  C130     1.0000 0.56400  0.81560  0.23720  Biso   1.000  C
  C131     1.0000 0.93600  0.68440  0.23720  Biso   1.000  C
  C132     1.0000 0.93600  0.31560  0.26280  Biso   1.000  C
  C133     1.0000 0.06400  0.68440  0.26280  Biso   1.000  C
  C134     1.0000 0.43600  0.18440  0.23720  Biso   1.000  C
  C135     1.0000 0.43600  0.81560  0.26280  Biso   1.000  C
  C136     1.0000 0.56400  0.18440  0.26280  Biso   1.000  C
  C137     1.0000 0.93600  0.68440  0.76280  Biso   1.000  C
  C138     1.0000 0.43600  0.18440  0.76280  Biso   1.000  C
  C139     1.0000 0.06400  0.31560  0.76280  Biso   1.000  C
  C140     1.0000 0.06400  0.68440  0.73720  Biso   1.000  C
  C141     1.0000 0.93600  0.31560  0.73720  Biso   1.000  C
  C142     1.0000 0.56400  0.81560  0.76280  Biso   1.000  C
  C143     1.0000 0.56400  0.18440  0.73720  Biso   1.000  C
  C144     1.0000 0.43600  0.81560  0.73720  Biso   1.000  C
  H113     1.0000 0.10840  0.29580  0.22830  Biso   1.000  H
  H114     1.0000 0.60840  0.79580  0.22830  Biso   1.000  H
  H115     1.0000 0.89160  0.70420  0.22830  Biso   1.000  H
  H116     1.0000 0.89160  0.29580  0.27170  Biso   1.000  H
  H117     1.0000 0.10840  0.70420  0.27170  Biso   1.000  H
  H118     1.0000 0.39160  0.20420  0.22830  Biso   1.000  H
  H119     1.0000 0.39160  0.79580  0.27170  Biso   1.000  H
  H120     1.0000 0.60840  0.20420  0.27170  Biso   1.000  H
  H121     1.0000 0.89160  0.70420  0.77170  Biso   1.000  H
  H122     1.0000 0.39160  0.20420  0.77170  Biso   1.000  H
  H123     1.0000 0.10840  0.29580  0.77170  Biso   1.000  H
  H124     1.0000 0.10840  0.70420  0.72830  Biso   1.000  H
  H125     1.0000 0.89160  0.29580  0.72830  Biso   1.000  H
  H126     1.0000 0.60840  0.79580  0.77170  Biso   1.000  H
  H127     1.0000 0.60840  0.20420  0.72830  Biso   1.000  H
  H128     1.0000 0.39160  0.79580  0.72830  Biso   1.000  H
  C145     1.0000 0.00000  0.50000  0.46680  Biso   1.000  C
  C146     1.0000 0.50000  0.00000  0.46680  Biso   1.000  C
  C147     1.0000 0.00000  0.50000  0.03320  Biso   1.000  C
  C148     1.0000 0.50000  0.00000  0.03320  Biso   1.000  C
  C149     1.0000 0.00000  0.50000  0.53320  Biso   1.000  C
  C150     1.0000 0.50000  0.00000  0.53320  Biso   1.000  C
  C151     1.0000 0.00000  0.50000  0.96680  Biso   1.000  C
  C152     1.0000 0.50000  0.00000  0.96680  Biso   1.000  C
  C153     1.0000 0.00000  0.28300  0.25000  Biso   1.000  C
  C154     1.0000 0.50000  0.78300  0.25000  Biso   1.000  C
  C155     1.0000 0.00000  0.71700  0.25000  Biso   1.000  C
  C156     1.0000 0.50000  0.21700  0.25000  Biso   1.000  C
  C157     1.0000 0.00000  0.71700  0.75000  Biso   1.000  C
  C158     1.0000 0.50000  0.21700  0.75000  Biso   1.000  C
  C159     1.0000 0.00000  0.28300  0.75000  Biso   1.000  C
  C160     1.0000 0.50000  0.78300  0.75000  Biso   1.000  C
