data_image0
_cell_length_a       4.1563
_cell_length_b       6.8049
_cell_length_c       15.9619
_cell_angle_alpha    95.998
_cell_angle_beta     92.787
_cell_angle_gamma    95.733

_symmetry_space_group_name_H-M    "P 1"
_symmetry_int_tables_number       1

loop_
  _symmetry_equiv_pos_as_xyz
  'x, y, z'

loop_
  _atom_site_label
  _atom_site_occupancy
  _atom_site_fract_x
  _atom_site_fract_y
  _atom_site_fract_z
  _atom_site_thermal_displace_type
  _atom_site_B_iso_or_equiv
  _atom_site_type_symbol
  I1       1.0000 0.69566  0.73828  0.93036  Biso   1.000  I
  I2       1.0000 0.30434  0.26172  0.06964  Biso   1.000  I
  Cu1      1.0000 0.24088  0.98164  0.94155  Biso   1.000  Cu
  Cu2      1.0000 0.75912  0.01836  0.05845  Biso   1.000  Cu
  N1       1.0000 0.22800  0.11910  0.83265  Biso   1.000  N
  N2       1.0000 0.77200  0.88090  0.16735  Biso   1.000  N
  C1       1.0000 0.31830  0.03110  0.76060  Biso   1.000  C
  C2       1.0000 0.68170  0.96890  0.23940  Biso   1.000  C
  C3       1.0000 0.10260  0.29230  0.83010  Biso   1.000  C
  C4       1.0000 0.89740  0.70770  0.16990  Biso   1.000  C
  C5       1.0000 0.28750  0.10790  0.68410  Biso   1.000  C
  C6       1.0000 0.71250  0.89210  0.31590  Biso   1.000  C
  H1       1.0000 0.40720  0.91127  0.76165  Biso   1.000  H
  H2       1.0000 0.59280  0.08873  0.23835  Biso   1.000  H
  H3       1.0000 0.04243  0.35783  0.88008  Biso   1.000  H
  H4       1.0000 0.95757  0.64217  0.11992  Biso   1.000  H
  C7       1.0000 0.05970  0.37670  0.75630  Biso   1.000  C
  C8       1.0000 0.94030  0.62330  0.24370  Biso   1.000  C
  Cl1      1.0000 0.42420  0.97315  0.59825  Biso   1.000  Cl
  Cl2      1.0000 0.57580  0.02685  0.40175  Biso   1.000  Cl
  C9       1.0000 0.15050  0.28570  0.68070  Biso   1.000  C
  C10      1.0000 0.84950  0.71430  0.31930  Biso   1.000  C
  H5       1.0000 0.96872  0.49631  0.75715  Biso   1.000  H
  H6       1.0000 0.03128  0.50369  0.24285  Biso   1.000  H
  C11      1.0000 0.09340  0.37970  0.60100  Biso   1.000  C
  C12      1.0000 0.90660  0.62030  0.39900  Biso   1.000  C
  O1       1.0000 0.90990  0.52230  0.61088  Biso   1.000  O
  O2       1.0000 0.09010  0.47770  0.38912  Biso   1.000  O
  O3       1.0000 0.20470  0.32680  0.53478  Biso   1.000  O
  O4       1.0000 0.79530  0.67320  0.46522  Biso   1.000  O
  H7       1.0000 0.89407  0.57391  0.56689  Biso   1.000  H
  H8       1.0000 0.10593  0.42609  0.43311  Biso   1.000  H
