data_image0
_cell_length_a       4.1277
_cell_length_b       6.7277
_cell_length_c       15.9101
_cell_angle_alpha    96.336
_cell_angle_beta     92.834
_cell_angle_gamma    96.282

_symmetry_space_group_name_H-M    "P 1"
_symmetry_int_tables_number       1

loop_
  _symmetry_equiv_pos_as_xyz
  'x, y, z'

loop_
  _atom_site_label
  _atom_site_occupancy
  _atom_site_fract_x
  _atom_site_fract_y
  _atom_site_fract_z
  _atom_site_thermal_displace_type
  _atom_site_B_iso_or_equiv
  _atom_site_type_symbol
  C1       1.0000 0.09900  0.29120  0.83090  Biso   1.000  C
  C2       1.0000 0.90100  0.70880  0.16910  Biso   1.000  C
  H1       1.0000 0.03330  0.35770  0.88200  Biso   1.000  H
  H2       1.0000 0.96670  0.64230  0.11800  Biso   1.000  H
  C3       1.0000 0.05840  0.37550  0.75650  Biso   1.000  C
  C4       1.0000 0.94160  0.62450  0.24350  Biso   1.000  C
  H3       1.0000 0.96760  0.49950  0.75760  Biso   1.000  H
  H4       1.0000 0.03240  0.50050  0.24240  Biso   1.000  H
  C5       1.0000 0.14800  0.28250  0.67940  Biso   1.000  C
  C6       1.0000 0.85200  0.71750  0.32060  Biso   1.000  C
  C7       1.0000 0.29080  0.10470  0.68360  Biso   1.000  C
  C8       1.0000 0.70920  0.89530  0.31640  Biso   1.000  C
  C9       1.0000 0.32190  0.02860  0.76060  Biso   1.000  C
  C10      1.0000 0.67810  0.97140  0.23940  Biso   1.000  C
  H5       1.0000 0.41480  0.90570  0.76180  Biso   1.000  H
  H6       1.0000 0.58520  0.09430  0.23820  Biso   1.000  H
  C11      1.0000 0.09300  0.37750  0.60070  Biso   1.000  C
  C12      1.0000 0.90700  0.62250  0.39930  Biso   1.000  C
  Cl1      1.0000 0.42850  0.96920  0.59774  Biso   1.000  Cl
  Cl2      1.0000 0.57150  0.03080  0.40226  Biso   1.000  Cl
  Cu1      1.0000 0.24090  0.98026  0.94234  Biso   1.000  Cu
  Cu2      1.0000 0.75910  0.01974  0.05766  Biso   1.000  Cu
  I1       1.0000 0.30832  0.26634  0.06985  Biso   1.000  I
  I2       1.0000 0.69168  0.73366  0.93015  Biso   1.000  I
  N1       1.0000 0.22960  0.11700  0.83280  Biso   1.000  N
  N2       1.0000 0.77040  0.88300  0.16720  Biso   1.000  N
  O1       1.0000 0.20860  0.32830  0.53460  Biso   1.000  O
  O2       1.0000 0.79140  0.67170  0.46540  Biso   1.000  O
  O3       1.0000 0.90490  0.52140  0.61140  Biso   1.000  O
  O4       1.0000 0.09510  0.47860  0.38860  Biso   1.000  O
  H7       1.0000 0.87600  0.56930  0.56530  Biso   1.000  H
  H8       1.0000 0.12400  0.43070  0.43470  Biso   1.000  H
