data_image0
_cell_length_a       32.6085
_cell_length_b       8.96402
_cell_length_c       15.3463
_cell_angle_alpha    90
_cell_angle_beta     112.037
_cell_angle_gamma    90

_symmetry_space_group_name_H-M    "P 1"
_symmetry_int_tables_number       1

loop_
  _symmetry_equiv_pos_as_xyz
  'x, y, z'

loop_
  _atom_site_label
  _atom_site_occupancy
  _atom_site_fract_x
  _atom_site_fract_y
  _atom_site_fract_z
  _atom_site_thermal_displace_type
  _atom_site_B_iso_or_equiv
  _atom_site_type_symbol
  Cu1      1.0000 0.60645  0.64947  0.41438  Biso   1.000  Cu
  Cu2      1.0000 0.39355  0.64947  0.08562  Biso   1.000  Cu
  Cu3      1.0000 0.10645  0.14947  0.41438  Biso   1.000  Cu
  Cu4      1.0000 0.89355  0.14947  0.08562  Biso   1.000  Cu
  Cu5      1.0000 0.39355  0.35053  0.58562  Biso   1.000  Cu
  Cu6      1.0000 0.60645  0.35053  0.91438  Biso   1.000  Cu
  Cu7      1.0000 0.89355  0.85053  0.58562  Biso   1.000  Cu
  Cu8      1.0000 0.10645  0.85053  0.91438  Biso   1.000  Cu
  P1       1.0000 0.66231  0.58105  0.54050  Biso   1.000  P
  P2       1.0000 0.33769  0.58105  0.95950  Biso   1.000  P
  P3       1.0000 0.16231  0.08105  0.54050  Biso   1.000  P
  P4       1.0000 0.83769  0.08105  0.95950  Biso   1.000  P
  P5       1.0000 0.33769  0.41895  0.45950  Biso   1.000  P
  P6       1.0000 0.66231  0.41895  0.04050  Biso   1.000  P
  P7       1.0000 0.83769  0.91895  0.45950  Biso   1.000  P
  P8       1.0000 0.16231  0.91895  0.04050  Biso   1.000  P
  O1       1.0000 0.67236  0.76064  0.31421  Biso   1.000  O
  O2       1.0000 0.32764  0.76064  0.18579  Biso   1.000  O
  O3       1.0000 0.17236  0.26064  0.31421  Biso   1.000  O
  O4       1.0000 0.82764  0.26064  0.18579  Biso   1.000  O
  O5       1.0000 0.32764  0.23936  0.68579  Biso   1.000  O
  O6       1.0000 0.67236  0.23936  0.81421  Biso   1.000  O
  O7       1.0000 0.82764  0.73936  0.68579  Biso   1.000  O
  O8       1.0000 0.17236  0.73936  0.81421  Biso   1.000  O
  O9       1.0000 0.64637  0.87510  0.18130  Biso   1.000  O
  O10      1.0000 0.35363  0.87510  0.31870  Biso   1.000  O
  O11      1.0000 0.14637  0.37510  0.18130  Biso   1.000  O
  O12      1.0000 0.85363  0.37510  0.31870  Biso   1.000  O
  O13      1.0000 0.35363  0.12490  0.81870  Biso   1.000  O
  O14      1.0000 0.64637  0.12490  0.68130  Biso   1.000  O
  O15      1.0000 0.85363  0.62490  0.81870  Biso   1.000  O
  O16      1.0000 0.14637  0.62490  0.68130  Biso   1.000  O
  O17      1.0000 0.55270  0.36635  0.40594  Biso   1.000  O
  O18      1.0000 0.44730  0.36635  0.09406  Biso   1.000  O
  O19      1.0000 0.05270  0.86635  0.40594  Biso   1.000  O
  O20      1.0000 0.94730  0.86635  0.09406  Biso   1.000  O
  O21      1.0000 0.44730  0.63365  0.59406  Biso   1.000  O
  O22      1.0000 0.55270  0.63365  0.90594  Biso   1.000  O
  O23      1.0000 0.94730  0.13365  0.59406  Biso   1.000  O
  O24      1.0000 0.05270  0.13365  0.90594  Biso   1.000  O
  O25      1.0000 0.48230  0.33392  0.36728  Biso   1.000  O
  O26      1.0000 0.51770  0.33392  0.13272  Biso   1.000  O
  O27      1.0000 0.98230  0.83392  0.36728  Biso   1.000  O
  O28      1.0000 0.01770  0.83392  0.13272  Biso   1.000  O
  O29      1.0000 0.51770  0.66608  0.63272  Biso   1.000  O
  O30      1.0000 0.48230  0.66608  0.86728  Biso   1.000  O
  O31      1.0000 0.01770  0.16608  0.63272  Biso   1.000  O
  O32      1.0000 0.98230  0.16608  0.86728  Biso   1.000  O
  N1       1.0000 0.60459  0.48060  0.80477  Biso   1.000  N
  N2       1.0000 0.39541  0.48060  0.69523  Biso   1.000  N
  N3       1.0000 0.10459  0.98060  0.80477  Biso   1.000  N
  N4       1.0000 0.89541  0.98060  0.69523  Biso   1.000  N
  N5       1.0000 0.39541  0.51940  0.19523  Biso   1.000  N
  N6       1.0000 0.60459  0.51940  0.30477  Biso   1.000  N
  N7       1.0000 0.89541  0.01940  0.19523  Biso   1.000  N
  N8       1.0000 0.10459  0.01940  0.30477  Biso   1.000  N
  N9       1.0000 0.69505  0.10050  0.39590  Biso   1.000  N
  N10      1.0000 0.30495  0.10050  0.10410  Biso   1.000  N
  N11      1.0000 0.19505  0.60050  0.39590  Biso   1.000  N
  N12      1.0000 0.80495  0.60050  0.10410  Biso   1.000  N
  N13      1.0000 0.30495  0.89950  0.60410  Biso   1.000  N
  N14      1.0000 0.69505  0.89950  0.89590  Biso   1.000  N
  N15      1.0000 0.80495  0.39950  0.60410  Biso   1.000  N
  N16      1.0000 0.19505  0.39950  0.89590  Biso   1.000  N
  N17      1.0000 0.75569  0.06070  0.66449  Biso   1.000  N
  N18      1.0000 0.24431  0.06070  0.83551  Biso   1.000  N
  N19      1.0000 0.25569  0.56070  0.66449  Biso   1.000  N
  N20      1.0000 0.74431  0.56070  0.83551  Biso   1.000  N
  N21      1.0000 0.24431  0.93930  0.33551  Biso   1.000  N
  N22      1.0000 0.75569  0.93930  0.16449  Biso   1.000  N
  N23      1.0000 0.74431  0.43930  0.33551  Biso   1.000  N
  N24      1.0000 0.25569  0.43930  0.16449  Biso   1.000  N
  N25      1.0000 0.57169  0.95981  0.35802  Biso   1.000  N
  N26      1.0000 0.42831  0.95981  0.14198  Biso   1.000  N
  N27      1.0000 0.07169  0.45981  0.35802  Biso   1.000  N
  N28      1.0000 0.92831  0.45981  0.14198  Biso   1.000  N
  N29      1.0000 0.42831  0.04019  0.64198  Biso   1.000  N
  N30      1.0000 0.57169  0.04019  0.85802  Biso   1.000  N
  N31      1.0000 0.92831  0.54019  0.64198  Biso   1.000  N
  N32      1.0000 0.07169  0.54019  0.85802  Biso   1.000  N
  N33      1.0000 0.60290  0.86156  0.35414  Biso   1.000  N
  N34      1.0000 0.39710  0.86156  0.14586  Biso   1.000  N
  N35      1.0000 0.10290  0.36156  0.35414  Biso   1.000  N
  N36      1.0000 0.89710  0.36156  0.14586  Biso   1.000  N
  N37      1.0000 0.39710  0.13844  0.64586  Biso   1.000  N
  N38      1.0000 0.60290  0.13844  0.85414  Biso   1.000  N
  N39      1.0000 0.89710  0.63844  0.64586  Biso   1.000  N
  N40      1.0000 0.10290  0.63844  0.85414  Biso   1.000  N
  N41      1.0000 0.59209  0.03966  0.24388  Biso   1.000  N
  N42      1.0000 0.40791  0.03966  0.25612  Biso   1.000  N
  N43      1.0000 0.09209  0.53966  0.24388  Biso   1.000  N
  N44      1.0000 0.90791  0.53966  0.25612  Biso   1.000  N
  N45      1.0000 0.40791  0.96034  0.75612  Biso   1.000  N
  N46      1.0000 0.59209  0.96034  0.74388  Biso   1.000  N
  N47      1.0000 0.90791  0.46034  0.75612  Biso   1.000  N
  N48      1.0000 0.09209  0.46034  0.74388  Biso   1.000  N
  N49      1.0000 0.64665  0.84563  0.25888  Biso   1.000  N
  N50      1.0000 0.35335  0.84563  0.24112  Biso   1.000  N
  N51      1.0000 0.14665  0.34563  0.25888  Biso   1.000  N
  N52      1.0000 0.85335  0.34563  0.24112  Biso   1.000  N
  N53      1.0000 0.35335  0.15437  0.74112  Biso   1.000  N
  N54      1.0000 0.64665  0.15437  0.75888  Biso   1.000  N
  N55      1.0000 0.85335  0.65437  0.74112  Biso   1.000  N
  N56      1.0000 0.14665  0.65437  0.75888  Biso   1.000  N
  N57      1.0000 0.52370  0.79827  0.41511  Biso   1.000  N
  N58      1.0000 0.47630  0.79827  0.08489  Biso   1.000  N
  N59      1.0000 0.02370  0.29827  0.41511  Biso   1.000  N
  N60      1.0000 0.97630  0.29827  0.08489  Biso   1.000  N
  N61      1.0000 0.47630  0.20173  0.58489  Biso   1.000  N
  N62      1.0000 0.52370  0.20173  0.91511  Biso   1.000  N
  N63      1.0000 0.97630  0.70173  0.58489  Biso   1.000  N
  N64      1.0000 0.02370  0.70173  0.91511  Biso   1.000  N
  N65      1.0000 0.54216  0.66382  0.41005  Biso   1.000  N
  N66      1.0000 0.45784  0.66382  0.08995  Biso   1.000  N
  N67      1.0000 0.04216  0.16382  0.41005  Biso   1.000  N
  N68      1.0000 0.95784  0.16382  0.08995  Biso   1.000  N
  N69      1.0000 0.45784  0.33618  0.58995  Biso   1.000  N
  N70      1.0000 0.54216  0.33618  0.91005  Biso   1.000  N
  N71      1.0000 0.95784  0.83618  0.58995  Biso   1.000  N
  N72      1.0000 0.04216  0.83618  0.91005  Biso   1.000  N
  N73      1.0000 0.47152  0.62960  0.39825  Biso   1.000  N
  N74      1.0000 0.52848  0.62960  0.10175  Biso   1.000  N
  N75      1.0000 0.97152  0.12960  0.39825  Biso   1.000  N
  N76      1.0000 0.02848  0.12960  0.10175  Biso   1.000  N
  N77      1.0000 0.52848  0.37040  0.60175  Biso   1.000  N
  N78      1.0000 0.47152  0.37040  0.89825  Biso   1.000  N
  N79      1.0000 0.02848  0.87040  0.60175  Biso   1.000  N
  N80      1.0000 0.97152  0.87040  0.89825  Biso   1.000  N
  N81      1.0000 0.51500  0.41191  0.38826  Biso   1.000  N
  N82      1.0000 0.48500  0.41191  0.11174  Biso   1.000  N
  N83      1.0000 0.01500  0.91191  0.38826  Biso   1.000  N
  N84      1.0000 0.98500  0.91191  0.11174  Biso   1.000  N
  N85      1.0000 0.48500  0.58809  0.61174  Biso   1.000  N
  N86      1.0000 0.51500  0.58809  0.88826  Biso   1.000  N
  N87      1.0000 0.98500  0.08809  0.61174  Biso   1.000  N
  N88      1.0000 0.01500  0.08809  0.88826  Biso   1.000  N
  C1       1.0000 0.64958  0.51070  0.63976  Biso   1.000  C
  C2       1.0000 0.35042  0.51070  0.86024  Biso   1.000  C
  C3       1.0000 0.14958  0.01070  0.63976  Biso   1.000  C
  C4       1.0000 0.85042  0.01070  0.86024  Biso   1.000  C
  C5       1.0000 0.35042  0.48930  0.36024  Biso   1.000  C
  C6       1.0000 0.64958  0.48930  0.13976  Biso   1.000  C
  C7       1.0000 0.85042  0.98930  0.36024  Biso   1.000  C
  C8       1.0000 0.14958  0.98930  0.13976  Biso   1.000  C
  H1       1.0000 0.63420  0.41370  0.62170  Biso   1.000  H
  H2       1.0000 0.36580  0.41370  0.87830  Biso   1.000  H
  H3       1.0000 0.13420  0.91370  0.62170  Biso   1.000  H
  H4       1.0000 0.86580  0.91370  0.87830  Biso   1.000  H
  H5       1.0000 0.36580  0.58630  0.37830  Biso   1.000  H
  H6       1.0000 0.63420  0.58630  0.12170  Biso   1.000  H
  H7       1.0000 0.86580  0.08630  0.37830  Biso   1.000  H
  H8       1.0000 0.13420  0.08630  0.12170  Biso   1.000  H
  H9       1.0000 0.67770  0.49240  0.69340  Biso   1.000  H
  H10      1.0000 0.32230  0.49240  0.80660  Biso   1.000  H
  H11      1.0000 0.17770  0.99240  0.69340  Biso   1.000  H
  H12      1.0000 0.82230  0.99240  0.80660  Biso   1.000  H
  H13      1.0000 0.32230  0.50760  0.30660  Biso   1.000  H
  H14      1.0000 0.67770  0.50760  0.19340  Biso   1.000  H
  H15      1.0000 0.82230  0.00760  0.30660  Biso   1.000  H
  H16      1.0000 0.17770  0.00760  0.19340  Biso   1.000  H
  C9       1.0000 0.62143  0.61300  0.67178  Biso   1.000  C
  C10      1.0000 0.37857  0.61300  0.82822  Biso   1.000  C
  C11      1.0000 0.12143  0.11300  0.67178  Biso   1.000  C
  C12      1.0000 0.87857  0.11300  0.82822  Biso   1.000  C
  C13      1.0000 0.37857  0.38700  0.32822  Biso   1.000  C
  C14      1.0000 0.62143  0.38700  0.17178  Biso   1.000  C
  C15      1.0000 0.87857  0.88700  0.32822  Biso   1.000  C
  C16      1.0000 0.12143  0.88700  0.17178  Biso   1.000  C
  H17      1.0000 0.63740  0.70770  0.69490  Biso   1.000  H
  H18      1.0000 0.36260  0.70770  0.80510  Biso   1.000  H
  H19      1.0000 0.13740  0.20770  0.69490  Biso   1.000  H
  H20      1.0000 0.86260  0.20770  0.80510  Biso   1.000  H
  H21      1.0000 0.36260  0.29230  0.30510  Biso   1.000  H
  H22      1.0000 0.63740  0.29230  0.19490  Biso   1.000  H
  H23      1.0000 0.86260  0.79230  0.30510  Biso   1.000  H
  H24      1.0000 0.13740  0.79230  0.19490  Biso   1.000  H
  H25      1.0000 0.59370  0.63620  0.61820  Biso   1.000  H
  H26      1.0000 0.40630  0.63620  0.88180  Biso   1.000  H
  H27      1.0000 0.09370  0.13620  0.61820  Biso   1.000  H
  H28      1.0000 0.90630  0.13620  0.88180  Biso   1.000  H
  H29      1.0000 0.40630  0.36380  0.38180  Biso   1.000  H
  H30      1.0000 0.59370  0.36380  0.11820  Biso   1.000  H
  H31      1.0000 0.90630  0.86380  0.38180  Biso   1.000  H
  H32      1.0000 0.09370  0.86380  0.11820  Biso   1.000  H
  C17      1.0000 0.61108  0.54220  0.74668  Biso   1.000  C
  C18      1.0000 0.38892  0.54220  0.75332  Biso   1.000  C
  C19      1.0000 0.11108  0.04220  0.74668  Biso   1.000  C
  C20      1.0000 0.88892  0.04220  0.75332  Biso   1.000  C
  C21      1.0000 0.38892  0.45780  0.25332  Biso   1.000  C
  C22      1.0000 0.61108  0.45780  0.24668  Biso   1.000  C
  C23      1.0000 0.88892  0.95780  0.25332  Biso   1.000  C
  C24      1.0000 0.11108  0.95780  0.24668  Biso   1.000  C
  C25      1.0000 0.69273  0.42330  0.51772  Biso   1.000  C
  C26      1.0000 0.30727  0.42330  0.98228  Biso   1.000  C
  C27      1.0000 0.19273  0.92330  0.51772  Biso   1.000  C
  C28      1.0000 0.80727  0.92330  0.98228  Biso   1.000  C
  C29      1.0000 0.30727  0.57670  0.48228  Biso   1.000  C
  C30      1.0000 0.69273  0.57670  0.01772  Biso   1.000  C
  C31      1.0000 0.80727  0.07670  0.48228  Biso   1.000  C
  C32      1.0000 0.19273  0.07670  0.01772  Biso   1.000  C
  H33      1.0000 0.70420  0.45220  0.46890  Biso   1.000  H
  H34      1.0000 0.29580  0.45220  0.03110  Biso   1.000  H
  H35      1.0000 0.20420  0.95220  0.46890  Biso   1.000  H
  H36      1.0000 0.79580  0.95220  0.03110  Biso   1.000  H
  H37      1.0000 0.29580  0.54780  0.53110  Biso   1.000  H
  H38      1.0000 0.70420  0.54780  0.96890  Biso   1.000  H
  H39      1.0000 0.79580  0.04780  0.53110  Biso   1.000  H
  H40      1.0000 0.20420  0.04780  0.96890  Biso   1.000  H
  H41      1.0000 0.71840  0.39950  0.57580  Biso   1.000  H
  H42      1.0000 0.28160  0.39950  0.92420  Biso   1.000  H
  H43      1.0000 0.21840  0.89950  0.57580  Biso   1.000  H
  H44      1.0000 0.78160  0.89950  0.92420  Biso   1.000  H
  H45      1.0000 0.28160  0.60050  0.42420  Biso   1.000  H
  H46      1.0000 0.71840  0.60050  0.07580  Biso   1.000  H
  H47      1.0000 0.78160  0.10050  0.42420  Biso   1.000  H
  H48      1.0000 0.21840  0.10050  0.07580  Biso   1.000  H
  C33      1.0000 0.66380  0.28460  0.48517  Biso   1.000  C
  C34      1.0000 0.33620  0.28460  0.01483  Biso   1.000  C
  C35      1.0000 0.16380  0.78460  0.48517  Biso   1.000  C
  C36      1.0000 0.83620  0.78460  0.01483  Biso   1.000  C
  C37      1.0000 0.33620  0.71540  0.51483  Biso   1.000  C
  C38      1.0000 0.66380  0.71540  0.98517  Biso   1.000  C
  C39      1.0000 0.83620  0.21540  0.51483  Biso   1.000  C
  C40      1.0000 0.16380  0.21540  0.98517  Biso   1.000  C
  H49      1.0000 0.66130  0.23430  0.54040  Biso   1.000  H
  H50      1.0000 0.33870  0.23430  0.95960  Biso   1.000  H
  H51      1.0000 0.16130  0.73430  0.54040  Biso   1.000  H
  H52      1.0000 0.83870  0.73430  0.95960  Biso   1.000  H
  H53      1.0000 0.33870  0.76570  0.45960  Biso   1.000  H
  H54      1.0000 0.66130  0.76570  0.04040  Biso   1.000  H
  H55      1.0000 0.83870  0.26570  0.45960  Biso   1.000  H
  H56      1.0000 0.16130  0.26570  0.04040  Biso   1.000  H
  H57      1.0000 0.63370  0.31490  0.44280  Biso   1.000  H
  H58      1.0000 0.36630  0.31490  0.05720  Biso   1.000  H
  H59      1.0000 0.13370  0.81490  0.44280  Biso   1.000  H
  H60      1.0000 0.86630  0.81490  0.05720  Biso   1.000  H
  H61      1.0000 0.36630  0.68510  0.55720  Biso   1.000  H
  H62      1.0000 0.63370  0.68510  0.94280  Biso   1.000  H
  H63      1.0000 0.86630  0.18510  0.55720  Biso   1.000  H
  H64      1.0000 0.13370  0.18510  0.94280  Biso   1.000  H
  C41      1.0000 0.68189  0.18020  0.43612  Biso   1.000  C
  C42      1.0000 0.31811  0.18020  0.06388  Biso   1.000  C
  C43      1.0000 0.18189  0.68020  0.43612  Biso   1.000  C
  C44      1.0000 0.81811  0.68020  0.06388  Biso   1.000  C
  C45      1.0000 0.31811  0.81980  0.56388  Biso   1.000  C
  C46      1.0000 0.68189  0.81980  0.93612  Biso   1.000  C
  C47      1.0000 0.81811  0.31980  0.56388  Biso   1.000  C
  C48      1.0000 0.18189  0.31980  0.93612  Biso   1.000  C
  C49      1.0000 0.70809  0.71310  0.59223  Biso   1.000  C
  C50      1.0000 0.29191  0.71310  0.90777  Biso   1.000  C
  C51      1.0000 0.20809  0.21310  0.59223  Biso   1.000  C
  C52      1.0000 0.79191  0.21310  0.90777  Biso   1.000  C
  C53      1.0000 0.29191  0.28690  0.40777  Biso   1.000  C
  C54      1.0000 0.70809  0.28690  0.09223  Biso   1.000  C
  C55      1.0000 0.79191  0.78690  0.40777  Biso   1.000  C
  C56      1.0000 0.20809  0.78690  0.09223  Biso   1.000  C
  H65      1.0000 0.72950  0.67010  0.65120  Biso   1.000  H
  H66      1.0000 0.27050  0.67010  0.84880  Biso   1.000  H
  H67      1.0000 0.22950  0.17010  0.65120  Biso   1.000  H
  H68      1.0000 0.77050  0.17010  0.84880  Biso   1.000  H
  H69      1.0000 0.27050  0.32990  0.34880  Biso   1.000  H
  H70      1.0000 0.72950  0.32990  0.15120  Biso   1.000  H
  H71      1.0000 0.77050  0.82990  0.34880  Biso   1.000  H
  H72      1.0000 0.22950  0.82990  0.15120  Biso   1.000  H
  H73      1.0000 0.72360  0.72630  0.54830  Biso   1.000  H
  H74      1.0000 0.27640  0.72630  0.95170  Biso   1.000  H
  H75      1.0000 0.22360  0.22630  0.54830  Biso   1.000  H
  H76      1.0000 0.77640  0.22630  0.95170  Biso   1.000  H
  H77      1.0000 0.27640  0.27370  0.45170  Biso   1.000  H
  H78      1.0000 0.72360  0.27370  0.04830  Biso   1.000  H
  H79      1.0000 0.77640  0.77370  0.45170  Biso   1.000  H
  H80      1.0000 0.22360  0.77370  0.04830  Biso   1.000  H
  C57      1.0000 0.69377  0.86100  0.61300  Biso   1.000  C
  C58      1.0000 0.30623  0.86100  0.88700  Biso   1.000  C
  C59      1.0000 0.19377  0.36100  0.61300  Biso   1.000  C
  C60      1.0000 0.80623  0.36100  0.88700  Biso   1.000  C
  C61      1.0000 0.30623  0.13900  0.38700  Biso   1.000  C
  C62      1.0000 0.69377  0.13900  0.11300  Biso   1.000  C
  C63      1.0000 0.80623  0.63900  0.38700  Biso   1.000  C
  C64      1.0000 0.19377  0.63900  0.11300  Biso   1.000  C
  H81      1.0000 0.66930  0.89750  0.55630  Biso   1.000  H
  H82      1.0000 0.33070  0.89750  0.94370  Biso   1.000  H
  H83      1.0000 0.16930  0.39750  0.55630  Biso   1.000  H
  H84      1.0000 0.83070  0.39750  0.94370  Biso   1.000  H
  H85      1.0000 0.33070  0.10250  0.44370  Biso   1.000  H
  H86      1.0000 0.66930  0.10250  0.05630  Biso   1.000  H
  H87      1.0000 0.83070  0.60250  0.44370  Biso   1.000  H
  H88      1.0000 0.16930  0.60250  0.05630  Biso   1.000  H
  H89      1.0000 0.68220  0.84980  0.66370  Biso   1.000  H
  H90      1.0000 0.31780  0.84980  0.83630  Biso   1.000  H
  H91      1.0000 0.18220  0.34980  0.66370  Biso   1.000  H
  H92      1.0000 0.81780  0.34980  0.83630  Biso   1.000  H
  H93      1.0000 0.31780  0.15020  0.33630  Biso   1.000  H
  H94      1.0000 0.68220  0.15020  0.16370  Biso   1.000  H
  H95      1.0000 0.81780  0.65020  0.33630  Biso   1.000  H
  H96      1.0000 0.18220  0.65020  0.16370  Biso   1.000  H
  C65      1.0000 0.72922  0.97330  0.64180  Biso   1.000  C
  C66      1.0000 0.27078  0.97330  0.85820  Biso   1.000  C
  C67      1.0000 0.22922  0.47330  0.64180  Biso   1.000  C
  C68      1.0000 0.77078  0.47330  0.85820  Biso   1.000  C
  C69      1.0000 0.27078  0.02670  0.35820  Biso   1.000  C
  C70      1.0000 0.72922  0.02670  0.14180  Biso   1.000  C
  C71      1.0000 0.77078  0.52670  0.35820  Biso   1.000  C
  C72      1.0000 0.22922  0.52670  0.14180  Biso   1.000  C
  C73      1.0000 0.61331  0.91629  0.28539  Biso   1.000  C
  C74      1.0000 0.38669  0.91629  0.21461  Biso   1.000  C
  C75      1.0000 0.11331  0.41629  0.28539  Biso   1.000  C
  C76      1.0000 0.88669  0.41629  0.21461  Biso   1.000  C
  C77      1.0000 0.38669  0.08371  0.71461  Biso   1.000  C
  C78      1.0000 0.61331  0.08371  0.78539  Biso   1.000  C
  C79      1.0000 0.88669  0.58371  0.71461  Biso   1.000  C
  C80      1.0000 0.11331  0.58371  0.78539  Biso   1.000  C
  C81      1.0000 0.56626  0.06330  0.29150  Biso   1.000  C
  C82      1.0000 0.43374  0.06330  0.20850  Biso   1.000  C
  C83      1.0000 0.06626  0.56330  0.29150  Biso   1.000  C
  C84      1.0000 0.93374  0.56330  0.20850  Biso   1.000  C
  C85      1.0000 0.43374  0.93670  0.70850  Biso   1.000  C
  C86      1.0000 0.56626  0.93670  0.79150  Biso   1.000  C
  C87      1.0000 0.93374  0.43670  0.70850  Biso   1.000  C
  C88      1.0000 0.06626  0.43670  0.79150  Biso   1.000  C
  H97      1.0000 0.54610  0.14430  0.27990  Biso   1.000  H
  H98      1.0000 0.45390  0.14430  0.22010  Biso   1.000  H
  H99      1.0000 0.04610  0.64430  0.27990  Biso   1.000  H
  H100     1.0000 0.95390  0.64430  0.22010  Biso   1.000  H
  H101     1.0000 0.45390  0.85570  0.72010  Biso   1.000  H
  H102     1.0000 0.54610  0.85570  0.77990  Biso   1.000  H
  H103     1.0000 0.95390  0.35570  0.72010  Biso   1.000  H
  H104     1.0000 0.04610  0.35570  0.77990  Biso   1.000  H
  C89      1.0000 0.50939  0.57067  0.39943  Biso   1.000  C
  C90      1.0000 0.49061  0.57067  0.10057  Biso   1.000  C
  C91      1.0000 0.00939  0.07067  0.39943  Biso   1.000  C
  C92      1.0000 0.99061  0.07067  0.10057  Biso   1.000  C
  C93      1.0000 0.49061  0.42933  0.60057  Biso   1.000  C
  C94      1.0000 0.50939  0.42933  0.89943  Biso   1.000  C
  C95      1.0000 0.99061  0.92933  0.60057  Biso   1.000  C
  C96      1.0000 0.00939  0.92933  0.89943  Biso   1.000  C
  C97      1.0000 0.48218  0.77390  0.40842  Biso   1.000  C
  C98      1.0000 0.51782  0.77390  0.09158  Biso   1.000  C
  C99      1.0000 0.98218  0.27390  0.40842  Biso   1.000  C
  C100     1.0000 0.01782  0.27390  0.09158  Biso   1.000  C
  C101     1.0000 0.51782  0.22610  0.59158  Biso   1.000  C
  C102     1.0000 0.48218  0.22610  0.90842  Biso   1.000  C
  C103     1.0000 0.01782  0.72610  0.59158  Biso   1.000  C
  C104     1.0000 0.98218  0.72610  0.90842  Biso   1.000  C
  H105     1.0000 0.46250  0.85060  0.41070  Biso   1.000  H
  H106     1.0000 0.53750  0.85060  0.08930  Biso   1.000  H
  H107     1.0000 0.96250  0.35060  0.41070  Biso   1.000  H
  H108     1.0000 0.03750  0.35060  0.08930  Biso   1.000  H
  H109     1.0000 0.53750  0.14940  0.58930  Biso   1.000  H
  H110     1.0000 0.46250  0.14940  0.91070  Biso   1.000  H
  H111     1.0000 0.03750  0.64940  0.58930  Biso   1.000  H
  H112     1.0000 0.96250  0.64940  0.91070  Biso   1.000  H
  B1       1.0000 0.55061  0.94630  0.43365  Biso   1.000  B
  B2       1.0000 0.44939  0.94630  0.06635  Biso   1.000  B
  B3       1.0000 0.05061  0.44630  0.43365  Biso   1.000  B
  B4       1.0000 0.94939  0.44630  0.06635  Biso   1.000  B
  B5       1.0000 0.44939  0.05370  0.56635  Biso   1.000  B
  B6       1.0000 0.55061  0.05370  0.93365  Biso   1.000  B
  B7       1.0000 0.94939  0.55370  0.56635  Biso   1.000  B
  B8       1.0000 0.05061  0.55370  0.93365  Biso   1.000  B
  H113     1.0000 0.57710  0.94100  0.50560  Biso   1.000  H
  H114     1.0000 0.42290  0.94100  0.99440  Biso   1.000  H
  H115     1.0000 0.07710  0.44100  0.50560  Biso   1.000  H
  H116     1.0000 0.92290  0.44100  0.99440  Biso   1.000  H
  H117     1.0000 0.42290  0.05900  0.49440  Biso   1.000  H
  H118     1.0000 0.57710  0.05900  0.00560  Biso   1.000  H
  H119     1.0000 0.92290  0.55900  0.49440  Biso   1.000  H
  H120     1.0000 0.07710  0.55900  0.00560  Biso   1.000  H
  H121     1.0000 0.52750  0.03800  0.42130  Biso   1.000  H
  H122     1.0000 0.47250  0.03800  0.07870  Biso   1.000  H
  H123     1.0000 0.02750  0.53800  0.42130  Biso   1.000  H
  H124     1.0000 0.97250  0.53800  0.07870  Biso   1.000  H
  H125     1.0000 0.47250  0.96200  0.57870  Biso   1.000  H
  H126     1.0000 0.52750  0.96200  0.92130  Biso   1.000  H
  H127     1.0000 0.97250  0.46200  0.57870  Biso   1.000  H
  H128     1.0000 0.02750  0.46200  0.92130  Biso   1.000  H
