data_image0
_cell_length_a       16.161
_cell_length_b       9.262
_cell_length_c       7.133
_cell_angle_alpha    90
_cell_angle_beta     90
_cell_angle_gamma    90

_symmetry_space_group_name_H-M    "P 1"
_symmetry_int_tables_number       1

loop_
  _symmetry_equiv_pos_as_xyz
  'x, y, z'

loop_
  _atom_site_label
  _atom_site_occupancy
  _atom_site_fract_x
  _atom_site_fract_y
  _atom_site_fract_z
  _atom_site_thermal_displace_type
  _atom_site_B_iso_or_equiv
  _atom_site_type_symbol
  S1       1.0000 0.28779  0.25000  0.47410  Biso   1.000  S
  S2       1.0000 0.21221  0.75000  0.97410  Biso   1.000  S
  S3       1.0000 0.71221  0.75000  0.52590  Biso   1.000  S
  S4       1.0000 0.78779  0.25000  0.02590  Biso   1.000  S
  N1       1.0000 0.44840  0.25000  0.73080  Biso   1.000  N
  N2       1.0000 0.05160  0.75000  0.23080  Biso   1.000  N
  N3       1.0000 0.55160  0.75000  0.26920  Biso   1.000  N
  N4       1.0000 0.94840  0.25000  0.76920  Biso   1.000  N
  H1       1.0000 0.43100  0.25000  0.84900  Biso   1.000  H
  H2       1.0000 0.06900  0.75000  0.34900  Biso   1.000  H
  H3       1.0000 0.56900  0.75000  0.15100  Biso   1.000  H
  H4       1.0000 0.93100  0.25000  0.65100  Biso   1.000  H
  C1       1.0000 0.11320  0.43510  0.59600  Biso   1.000  C
  C2       1.0000 0.38680  0.56490  0.09600  Biso   1.000  C
  C3       1.0000 0.88680  0.93510  0.40400  Biso   1.000  C
  C4       1.0000 0.61320  0.06490  0.90400  Biso   1.000  C
  C5       1.0000 0.88680  0.56490  0.40400  Biso   1.000  C
  C6       1.0000 0.61320  0.43510  0.90400  Biso   1.000  C
  C7       1.0000 0.11320  0.06490  0.59600  Biso   1.000  C
  C8       1.0000 0.38680  0.93510  0.09600  Biso   1.000  C
  N5       1.0000 0.11710  0.55640  0.62200  Biso   1.000  N
  N6       1.0000 0.38290  0.44360  0.12200  Biso   1.000  N
  N7       1.0000 0.88290  0.05640  0.37800  Biso   1.000  N
  N8       1.0000 0.61710  0.94360  0.87800  Biso   1.000  N
  N9       1.0000 0.88290  0.44360  0.37800  Biso   1.000  N
  N10      1.0000 0.61710  0.55640  0.87800  Biso   1.000  N
  N11      1.0000 0.11710  0.94360  0.62200  Biso   1.000  N
  N12      1.0000 0.38290  0.05640  0.12200  Biso   1.000  N
  C9       1.0000 0.11000  0.25000  0.02680  Biso   1.000  C
  C10      1.0000 0.39000  0.75000  0.52680  Biso   1.000  C
  C11      1.0000 0.89000  0.75000  0.97320  Biso   1.000  C
  C12      1.0000 0.61000  0.25000  0.47320  Biso   1.000  C
  N13      1.0000 0.11710  0.25000  0.18750  Biso   1.000  N
  N14      1.0000 0.38290  0.75000  0.68750  Biso   1.000  N
  N15      1.0000 0.88290  0.75000  0.81250  Biso   1.000  N
  N16      1.0000 0.61710  0.25000  0.31250  Biso   1.000  N
  C13      1.0000 0.32770  0.39610  0.61320  Biso   1.000  C
  C14      1.0000 0.17230  0.60390  0.11320  Biso   1.000  C
  C15      1.0000 0.67230  0.89610  0.38680  Biso   1.000  C
  C16      1.0000 0.82770  0.10390  0.88680  Biso   1.000  C
  C17      1.0000 0.67230  0.60390  0.38680  Biso   1.000  C
  C18      1.0000 0.82770  0.39610  0.88680  Biso   1.000  C
  C19      1.0000 0.32770  0.10390  0.61320  Biso   1.000  C
  C20      1.0000 0.17230  0.89610  0.11320  Biso   1.000  C
  H5       1.0000 0.31480  0.48720  0.55290  Biso   1.000  H
  H6       1.0000 0.18520  0.51280  0.05290  Biso   1.000  H
  H7       1.0000 0.68520  0.98720  0.44710  Biso   1.000  H
  H8       1.0000 0.81480  0.01280  0.94710  Biso   1.000  H
  H9       1.0000 0.68520  0.51280  0.44710  Biso   1.000  H
  H10      1.0000 0.81480  0.48720  0.94710  Biso   1.000  H
  H11      1.0000 0.31480  0.01280  0.55290  Biso   1.000  H
  H12      1.0000 0.18520  0.98720  0.05290  Biso   1.000  H
  H13      1.0000 0.30130  0.39540  0.73540  Biso   1.000  H
  H14      1.0000 0.19870  0.60460  0.23540  Biso   1.000  H
  H15      1.0000 0.69870  0.89540  0.26460  Biso   1.000  H
  H16      1.0000 0.80130  0.10460  0.76460  Biso   1.000  H
  H17      1.0000 0.69870  0.60460  0.26460  Biso   1.000  H
  H18      1.0000 0.80130  0.39540  0.76460  Biso   1.000  H
  H19      1.0000 0.30130  0.10460  0.73540  Biso   1.000  H
  H20      1.0000 0.19870  0.89540  0.23540  Biso   1.000  H
  C21      1.0000 0.42060  0.38300  0.63740  Biso   1.000  C
  C22      1.0000 0.07940  0.61700  0.13740  Biso   1.000  C
  C23      1.0000 0.57940  0.88300  0.36260  Biso   1.000  C
  C24      1.0000 0.92060  0.11700  0.86260  Biso   1.000  C
  C25      1.0000 0.57940  0.61700  0.36260  Biso   1.000  C
  C26      1.0000 0.92060  0.38300  0.86260  Biso   1.000  C
  C27      1.0000 0.42060  0.11700  0.63740  Biso   1.000  C
  C28      1.0000 0.07940  0.88300  0.13740  Biso   1.000  C
  H21      1.0000 0.44630  0.38800  0.51470  Biso   1.000  H
  H22      1.0000 0.05370  0.61200  0.01470  Biso   1.000  H
  H23      1.0000 0.55370  0.88800  0.48530  Biso   1.000  H
  H24      1.0000 0.94630  0.11200  0.98530  Biso   1.000  H
  H25      1.0000 0.55370  0.61200  0.48530  Biso   1.000  H
  H26      1.0000 0.94630  0.38800  0.98530  Biso   1.000  H
  H27      1.0000 0.44630  0.11200  0.51470  Biso   1.000  H
  H28      1.0000 0.05370  0.88800  0.01470  Biso   1.000  H
  H29      1.0000 0.44000  0.46510  0.70940  Biso   1.000  H
  H30      1.0000 0.06000  0.53490  0.20940  Biso   1.000  H
  H31      1.0000 0.56000  0.96510  0.29060  Biso   1.000  H
  H32      1.0000 0.94000  0.03490  0.79060  Biso   1.000  H
  H33      1.0000 0.56000  0.53490  0.29060  Biso   1.000  H
  H34      1.0000 0.94000  0.46510  0.79060  Biso   1.000  H
  H35      1.0000 0.44000  0.03490  0.70940  Biso   1.000  H
  H36      1.0000 0.06000  0.96510  0.20940  Biso   1.000  H
  Cu1      1.0000 0.13496  0.25000  0.45538  Biso   1.000  Cu
  Cu2      1.0000 0.36504  0.75000  0.95538  Biso   1.000  Cu
  Cu3      1.0000 0.86504  0.75000  0.54462  Biso   1.000  Cu
  Cu4      1.0000 0.63496  0.25000  0.04462  Biso   1.000  Cu
  Cu5      1.0000 0.36623  0.25000  0.19218  Biso   1.000  Cu
  Cu6      1.0000 0.13377  0.75000  0.69218  Biso   1.000  Cu
  Cu7      1.0000 0.63377  0.75000  0.80782  Biso   1.000  Cu
  Cu8      1.0000 0.86623  0.25000  0.30782  Biso   1.000  Cu
  Cu9      1.0000 0.57925  0.25000  0.73261  Biso   1.000  Cu
  Cu10     1.0000 0.92075  0.75000  0.23261  Biso   1.000  Cu
  Cu11     1.0000 0.42075  0.75000  0.26739  Biso   1.000  Cu
  Cu12     1.0000 0.07925  0.25000  0.76739  Biso   1.000  Cu
