data_image0
_cell_length_a       14.3318
_cell_length_b       24.5995
_cell_length_c       32.489
_cell_angle_alpha    90
_cell_angle_beta     90
_cell_angle_gamma    90

_symmetry_space_group_name_H-M    "P 1"
_symmetry_int_tables_number       1

loop_
  _symmetry_equiv_pos_as_xyz
  'x, y, z'

loop_
  _atom_site_label
  _atom_site_occupancy
  _atom_site_fract_x
  _atom_site_fract_y
  _atom_site_fract_z
  _atom_site_thermal_displace_type
  _atom_site_B_iso_or_equiv
  _atom_site_type_symbol
  Co1      1.0000 0.50000  0.50000  0.32834  Biso   1.000  Co
  Co2      1.0000 0.50000  0.50000  0.67166  Biso   1.000  Co
  Co3      1.0000 0.00000  0.00000  0.82834  Biso   1.000  Co
  Co4      1.0000 0.00000  0.00000  0.17166  Biso   1.000  Co
  Co5      1.0000 0.37820  0.50000  0.23459  Biso   1.000  Co
  Co6      1.0000 0.62180  0.50000  0.23459  Biso   1.000  Co
  Co7      1.0000 0.62180  0.50000  0.76541  Biso   1.000  Co
  Co8      1.0000 0.37820  0.50000  0.76541  Biso   1.000  Co
  Co9      1.0000 0.87820  0.00000  0.73459  Biso   1.000  Co
  Co10     1.0000 0.12180  0.00000  0.73459  Biso   1.000  Co
  Co11     1.0000 0.12180  0.00000  0.26541  Biso   1.000  Co
  Co12     1.0000 0.87820  0.00000  0.26541  Biso   1.000  Co
  P1       1.0000 0.00000  0.69163  0.38783  Biso   1.000  P
  P2       1.0000 0.00000  0.30837  0.38783  Biso   1.000  P
  P3       1.0000 0.00000  0.69163  0.61217  Biso   1.000  P
  P4       1.0000 0.00000  0.30837  0.61217  Biso   1.000  P
  P5       1.0000 0.50000  0.19163  0.88783  Biso   1.000  P
  P6       1.0000 0.50000  0.80837  0.88783  Biso   1.000  P
  P7       1.0000 0.50000  0.19163  0.11217  Biso   1.000  P
  P8       1.0000 0.50000  0.80837  0.11217  Biso   1.000  P
  Br1      1.0000 0.13170  0.70130  0.50000  Biso   1.000  Br
  Br2      1.0000 0.86830  0.29870  0.50000  Biso   1.000  Br
  Br3      1.0000 0.86830  0.70130  0.50000  Biso   1.000  Br
  Br4      1.0000 0.13170  0.29870  0.50000  Biso   1.000  Br
  Br5      1.0000 0.63170  0.20130  0.00000  Biso   1.000  Br
  Br6      1.0000 0.36830  0.79870  0.00000  Biso   1.000  Br
  Br7      1.0000 0.36830  0.20130  0.00000  Biso   1.000  Br
  Br8      1.0000 0.63170  0.79870  0.00000  Biso   1.000  Br
  Cu1      1.0000 0.00000  0.69510  0.45527  Biso   1.000  Cu
  Cu2      1.0000 0.00000  0.30490  0.45527  Biso   1.000  Cu
  Cu3      1.0000 0.00000  0.69510  0.54473  Biso   1.000  Cu
  Cu4      1.0000 0.00000  0.30490  0.54473  Biso   1.000  Cu
  Cu5      1.0000 0.50000  0.19510  0.95527  Biso   1.000  Cu
  Cu6      1.0000 0.50000  0.80490  0.95527  Biso   1.000  Cu
  Cu7      1.0000 0.50000  0.19510  0.04473  Biso   1.000  Cu
  Cu8      1.0000 0.50000  0.80490  0.04473  Biso   1.000  Cu
  O1       1.0000 0.39630  0.55890  0.33450  Biso   1.000  O
  O2       1.0000 0.60370  0.44110  0.33450  Biso   1.000  O
  O3       1.0000 0.60370  0.55890  0.66550  Biso   1.000  O
  O4       1.0000 0.39630  0.44110  0.66550  Biso   1.000  O
  O5       1.0000 0.89630  0.05890  0.83450  Biso   1.000  O
  O6       1.0000 0.10370  0.94110  0.83450  Biso   1.000  O
  O7       1.0000 0.10370  0.05890  0.16550  Biso   1.000  O
  O8       1.0000 0.89630  0.94110  0.16550  Biso   1.000  O
  O9       1.0000 0.60370  0.44110  0.66550  Biso   1.000  O
  O10      1.0000 0.39630  0.55890  0.66550  Biso   1.000  O
  O11      1.0000 0.39630  0.44110  0.33450  Biso   1.000  O
  O12      1.0000 0.60370  0.55890  0.33450  Biso   1.000  O
  O13      1.0000 0.10370  0.94110  0.16550  Biso   1.000  O
  O14      1.0000 0.89630  0.05890  0.16550  Biso   1.000  O
  O15      1.0000 0.89630  0.94110  0.83450  Biso   1.000  O
  O16      1.0000 0.10370  0.05890  0.83450  Biso   1.000  O
  O17      1.0000 0.32180  0.55950  0.27290  Biso   1.000  O
  O18      1.0000 0.67820  0.44050  0.27290  Biso   1.000  O
  O19      1.0000 0.67820  0.55950  0.72710  Biso   1.000  O
  O20      1.0000 0.32180  0.44050  0.72710  Biso   1.000  O
  O21      1.0000 0.82180  0.05950  0.77290  Biso   1.000  O
  O22      1.0000 0.17820  0.94050  0.77290  Biso   1.000  O
  O23      1.0000 0.17820  0.05950  0.22710  Biso   1.000  O
  O24      1.0000 0.82180  0.94050  0.22710  Biso   1.000  O
  O25      1.0000 0.67820  0.44050  0.72710  Biso   1.000  O
  O26      1.0000 0.32180  0.55950  0.72710  Biso   1.000  O
  O27      1.0000 0.32180  0.44050  0.27290  Biso   1.000  O
  O28      1.0000 0.67820  0.55950  0.27290  Biso   1.000  O
  O29      1.0000 0.17820  0.94050  0.22710  Biso   1.000  O
  O30      1.0000 0.82180  0.05950  0.22710  Biso   1.000  O
  O31      1.0000 0.82180  0.94050  0.77290  Biso   1.000  O
  O32      1.0000 0.17820  0.05950  0.77290  Biso   1.000  O
  O33      1.0000 0.92210  0.93852  0.30450  Biso   1.000  O
  O34      1.0000 0.07790  0.06148  0.30450  Biso   1.000  O
  O35      1.0000 0.07790  0.93852  0.69550  Biso   1.000  O
  O36      1.0000 0.92210  0.06148  0.69550  Biso   1.000  O
  O37      1.0000 0.42210  0.43852  0.80450  Biso   1.000  O
  O38      1.0000 0.57790  0.56148  0.80450  Biso   1.000  O
  O39      1.0000 0.57790  0.43852  0.19550  Biso   1.000  O
  O40      1.0000 0.42210  0.56148  0.19550  Biso   1.000  O
  O41      1.0000 0.07790  0.06148  0.69550  Biso   1.000  O
  O42      1.0000 0.92210  0.93852  0.69550  Biso   1.000  O
  O43      1.0000 0.92210  0.06148  0.30450  Biso   1.000  O
  O44      1.0000 0.07790  0.93852  0.30450  Biso   1.000  O
  O45      1.0000 0.57790  0.56148  0.19550  Biso   1.000  O
  O46      1.0000 0.42210  0.43852  0.19550  Biso   1.000  O
  O47      1.0000 0.42210  0.56148  0.80450  Biso   1.000  O
  O48      1.0000 0.57790  0.43852  0.80450  Biso   1.000  O
  O49      1.0000 0.50000  0.50000  0.26540  Biso   1.000  O
  O50      1.0000 0.50000  0.50000  0.73460  Biso   1.000  O
  O51      1.0000 0.00000  0.00000  0.76540  Biso   1.000  O
  O52      1.0000 0.00000  0.00000  0.23460  Biso   1.000  O
  C1       1.0000 0.33200  0.57110  0.30980  Biso   1.000  C
  C2       1.0000 0.66800  0.42890  0.30980  Biso   1.000  C
  C3       1.0000 0.66800  0.57110  0.69020  Biso   1.000  C
  C4       1.0000 0.33200  0.42890  0.69020  Biso   1.000  C
  C5       1.0000 0.83200  0.07110  0.80980  Biso   1.000  C
  C6       1.0000 0.16800  0.92890  0.80980  Biso   1.000  C
  C7       1.0000 0.16800  0.07110  0.19020  Biso   1.000  C
  C8       1.0000 0.83200  0.92890  0.19020  Biso   1.000  C
  C9       1.0000 0.66800  0.42890  0.69020  Biso   1.000  C
  C10      1.0000 0.33200  0.57110  0.69020  Biso   1.000  C
  C11      1.0000 0.33200  0.42890  0.30980  Biso   1.000  C
  C12      1.0000 0.66800  0.57110  0.30980  Biso   1.000  C
  C13      1.0000 0.16800  0.92890  0.19020  Biso   1.000  C
  C14      1.0000 0.83200  0.07110  0.19020  Biso   1.000  C
  C15      1.0000 0.83200  0.92890  0.80980  Biso   1.000  C
  C16      1.0000 0.16800  0.07110  0.80980  Biso   1.000  C
  C17      1.0000 0.25210  0.60320  0.32800  Biso   1.000  C
  C18      1.0000 0.74790  0.39680  0.32800  Biso   1.000  C
  C19      1.0000 0.74790  0.60320  0.67200  Biso   1.000  C
  C20      1.0000 0.25210  0.39680  0.67200  Biso   1.000  C
  C21      1.0000 0.75210  0.10320  0.82800  Biso   1.000  C
  C22      1.0000 0.24790  0.89680  0.82800  Biso   1.000  C
  C23      1.0000 0.24790  0.10320  0.17200  Biso   1.000  C
  C24      1.0000 0.75210  0.89680  0.17200  Biso   1.000  C
  C25      1.0000 0.74790  0.39680  0.67200  Biso   1.000  C
  C26      1.0000 0.25210  0.60320  0.67200  Biso   1.000  C
  C27      1.0000 0.25210  0.39680  0.32800  Biso   1.000  C
  C28      1.0000 0.74790  0.60320  0.32800  Biso   1.000  C
  C29      1.0000 0.24790  0.89680  0.17200  Biso   1.000  C
  C30      1.0000 0.75210  0.10320  0.17200  Biso   1.000  C
  C31      1.0000 0.75210  0.89680  0.82800  Biso   1.000  C
  C32      1.0000 0.24790  0.10320  0.82800  Biso   1.000  C
  C33      1.0000 0.18680  0.62630  0.30310  Biso   1.000  C
  C34      1.0000 0.81320  0.37370  0.30310  Biso   1.000  C
  C35      1.0000 0.81320  0.62630  0.69690  Biso   1.000  C
  C36      1.0000 0.18680  0.37370  0.69690  Biso   1.000  C
  C37      1.0000 0.68680  0.12630  0.80310  Biso   1.000  C
  C38      1.0000 0.31320  0.87370  0.80310  Biso   1.000  C
  C39      1.0000 0.31320  0.12630  0.19690  Biso   1.000  C
  C40      1.0000 0.68680  0.87370  0.19690  Biso   1.000  C
  C41      1.0000 0.81320  0.37370  0.69690  Biso   1.000  C
  C42      1.0000 0.18680  0.62630  0.69690  Biso   1.000  C
  C43      1.0000 0.18680  0.37370  0.30310  Biso   1.000  C
  C44      1.0000 0.81320  0.62630  0.30310  Biso   1.000  C
  C45      1.0000 0.31320  0.87370  0.19690  Biso   1.000  C
  C46      1.0000 0.68680  0.12630  0.19690  Biso   1.000  C
  C47      1.0000 0.68680  0.87370  0.80310  Biso   1.000  C
  C48      1.0000 0.31320  0.12630  0.80310  Biso   1.000  C
  H1       1.0000 0.18900  0.62390  0.27450  Biso   1.000  H
  H2       1.0000 0.81100  0.37610  0.27450  Biso   1.000  H
  H3       1.0000 0.81100  0.62390  0.72550  Biso   1.000  H
  H4       1.0000 0.18900  0.37610  0.72550  Biso   1.000  H
  H5       1.0000 0.68900  0.12390  0.77450  Biso   1.000  H
  H6       1.0000 0.31100  0.87610  0.77450  Biso   1.000  H
  H7       1.0000 0.31100  0.12390  0.22550  Biso   1.000  H
  H8       1.0000 0.68900  0.87610  0.22550  Biso   1.000  H
  H9       1.0000 0.81100  0.37610  0.72550  Biso   1.000  H
  H10      1.0000 0.18900  0.62390  0.72550  Biso   1.000  H
  H11      1.0000 0.18900  0.37610  0.27450  Biso   1.000  H
  H12      1.0000 0.81100  0.62390  0.27450  Biso   1.000  H
  H13      1.0000 0.31100  0.87610  0.22550  Biso   1.000  H
  H14      1.0000 0.68900  0.12390  0.22550  Biso   1.000  H
  H15      1.0000 0.68900  0.87610  0.77450  Biso   1.000  H
  H16      1.0000 0.31100  0.12390  0.77450  Biso   1.000  H
  C49      1.0000 0.11310  0.65530  0.32490  Biso   1.000  C
  C50      1.0000 0.88690  0.34470  0.32490  Biso   1.000  C
  C51      1.0000 0.88690  0.65530  0.67510  Biso   1.000  C
  C52      1.0000 0.11310  0.34470  0.67510  Biso   1.000  C
  C53      1.0000 0.61310  0.15530  0.82490  Biso   1.000  C
  C54      1.0000 0.38690  0.84470  0.82490  Biso   1.000  C
  C55      1.0000 0.38690  0.15530  0.17510  Biso   1.000  C
  C56      1.0000 0.61310  0.84470  0.17510  Biso   1.000  C
  C57      1.0000 0.88690  0.34470  0.67510  Biso   1.000  C
  C58      1.0000 0.11310  0.65530  0.67510  Biso   1.000  C
  C59      1.0000 0.11310  0.34470  0.32490  Biso   1.000  C
  C60      1.0000 0.88690  0.65530  0.32490  Biso   1.000  C
  C61      1.0000 0.38690  0.84470  0.17510  Biso   1.000  C
  C62      1.0000 0.61310  0.15530  0.17510  Biso   1.000  C
  C63      1.0000 0.61310  0.84470  0.82490  Biso   1.000  C
  C64      1.0000 0.38690  0.15530  0.82490  Biso   1.000  C
  H17      1.0000 0.07020  0.67350  0.30840  Biso   1.000  H
  H18      1.0000 0.92980  0.32650  0.30840  Biso   1.000  H
  H19      1.0000 0.92980  0.67350  0.69160  Biso   1.000  H
  H20      1.0000 0.07020  0.32650  0.69160  Biso   1.000  H
  H21      1.0000 0.57020  0.17350  0.80840  Biso   1.000  H
  H22      1.0000 0.42980  0.82650  0.80840  Biso   1.000  H
  H23      1.0000 0.42980  0.17350  0.19160  Biso   1.000  H
  H24      1.0000 0.57020  0.82650  0.19160  Biso   1.000  H
  H25      1.0000 0.92980  0.32650  0.69160  Biso   1.000  H
  H26      1.0000 0.07020  0.67350  0.69160  Biso   1.000  H
  H27      1.0000 0.07020  0.32650  0.30840  Biso   1.000  H
  H28      1.0000 0.92980  0.67350  0.30840  Biso   1.000  H
  H29      1.0000 0.42980  0.82650  0.19160  Biso   1.000  H
  H30      1.0000 0.57020  0.17350  0.19160  Biso   1.000  H
  H31      1.0000 0.57020  0.82650  0.80840  Biso   1.000  H
  H32      1.0000 0.42980  0.17350  0.80840  Biso   1.000  H
  C65      1.0000 0.09960  0.65920  0.36380  Biso   1.000  C
  C66      1.0000 0.90040  0.34080  0.36380  Biso   1.000  C
  C67      1.0000 0.90040  0.65920  0.63620  Biso   1.000  C
  C68      1.0000 0.09960  0.34080  0.63620  Biso   1.000  C
  C69      1.0000 0.59960  0.15920  0.86380  Biso   1.000  C
  C70      1.0000 0.40040  0.84080  0.86380  Biso   1.000  C
  C71      1.0000 0.40040  0.15920  0.13620  Biso   1.000  C
  C72      1.0000 0.59960  0.84080  0.13620  Biso   1.000  C
  C73      1.0000 0.90040  0.34080  0.63620  Biso   1.000  C
  C74      1.0000 0.09960  0.65920  0.63620  Biso   1.000  C
  C75      1.0000 0.09960  0.34080  0.36380  Biso   1.000  C
  C76      1.0000 0.90040  0.65920  0.36380  Biso   1.000  C
  C77      1.0000 0.40040  0.84080  0.13620  Biso   1.000  C
  C78      1.0000 0.59960  0.15920  0.13620  Biso   1.000  C
  C79      1.0000 0.59960  0.84080  0.86380  Biso   1.000  C
  C80      1.0000 0.40040  0.15920  0.86380  Biso   1.000  C
  C81      1.0000 0.16620  0.63520  0.38690  Biso   1.000  C
  C82      1.0000 0.83380  0.36480  0.38690  Biso   1.000  C
  C83      1.0000 0.83380  0.63520  0.61310  Biso   1.000  C
  C84      1.0000 0.16620  0.36480  0.61310  Biso   1.000  C
  C85      1.0000 0.66620  0.13520  0.88690  Biso   1.000  C
  C86      1.0000 0.33380  0.86480  0.88690  Biso   1.000  C
  C87      1.0000 0.33380  0.13520  0.11310  Biso   1.000  C
  C88      1.0000 0.66620  0.86480  0.11310  Biso   1.000  C
  C89      1.0000 0.83380  0.36480  0.61310  Biso   1.000  C
  C90      1.0000 0.16620  0.63520  0.61310  Biso   1.000  C
  C91      1.0000 0.16620  0.36480  0.38690  Biso   1.000  C
  C92      1.0000 0.83380  0.63520  0.38690  Biso   1.000  C
  C93      1.0000 0.33380  0.86480  0.11310  Biso   1.000  C
  C94      1.0000 0.66620  0.13520  0.11310  Biso   1.000  C
  C95      1.0000 0.66620  0.86480  0.88690  Biso   1.000  C
  C96      1.0000 0.33380  0.13520  0.88690  Biso   1.000  C
  H33      1.0000 0.16210  0.63680  0.41550  Biso   1.000  H
  H34      1.0000 0.83790  0.36320  0.41550  Biso   1.000  H
  H35      1.0000 0.83790  0.63680  0.58450  Biso   1.000  H
  H36      1.0000 0.16210  0.36320  0.58450  Biso   1.000  H
  H37      1.0000 0.66210  0.13680  0.91550  Biso   1.000  H
  H38      1.0000 0.33790  0.86320  0.91550  Biso   1.000  H
  H39      1.0000 0.33790  0.13680  0.08450  Biso   1.000  H
  H40      1.0000 0.66210  0.86320  0.08450  Biso   1.000  H
  H41      1.0000 0.83790  0.36320  0.58450  Biso   1.000  H
  H42      1.0000 0.16210  0.63680  0.58450  Biso   1.000  H
  H43      1.0000 0.16210  0.36320  0.41550  Biso   1.000  H
  H44      1.0000 0.83790  0.63680  0.41550  Biso   1.000  H
  H45      1.0000 0.33790  0.86320  0.08450  Biso   1.000  H
  H46      1.0000 0.66210  0.13680  0.08450  Biso   1.000  H
  H47      1.0000 0.66210  0.86320  0.91550  Biso   1.000  H
  H48      1.0000 0.33790  0.13680  0.91550  Biso   1.000  H
  C97      1.0000 0.24180  0.60770  0.36850  Biso   1.000  C
  C98      1.0000 0.75820  0.39230  0.36850  Biso   1.000  C
  C99      1.0000 0.75820  0.60770  0.63150  Biso   1.000  C
  C100     1.0000 0.24180  0.39230  0.63150  Biso   1.000  C
  C101     1.0000 0.74180  0.10770  0.86850  Biso   1.000  C
  C102     1.0000 0.25820  0.89230  0.86850  Biso   1.000  C
  C103     1.0000 0.25820  0.10770  0.13150  Biso   1.000  C
  C104     1.0000 0.74180  0.89230  0.13150  Biso   1.000  C
  C105     1.0000 0.75820  0.39230  0.63150  Biso   1.000  C
  C106     1.0000 0.24180  0.60770  0.63150  Biso   1.000  C
  C107     1.0000 0.24180  0.39230  0.36850  Biso   1.000  C
  C108     1.0000 0.75820  0.60770  0.36850  Biso   1.000  C
  C109     1.0000 0.25820  0.89230  0.13150  Biso   1.000  C
  C110     1.0000 0.74180  0.10770  0.13150  Biso   1.000  C
  C111     1.0000 0.74180  0.89230  0.86850  Biso   1.000  C
  C112     1.0000 0.25820  0.10770  0.86850  Biso   1.000  C
  H49      1.0000 0.28650  0.59210  0.38560  Biso   1.000  H
  H50      1.0000 0.71350  0.40790  0.38560  Biso   1.000  H
  H51      1.0000 0.71350  0.59210  0.61440  Biso   1.000  H
  H52      1.0000 0.28650  0.40790  0.61440  Biso   1.000  H
  H53      1.0000 0.78650  0.09210  0.88560  Biso   1.000  H
  H54      1.0000 0.21350  0.90790  0.88560  Biso   1.000  H
  H55      1.0000 0.21350  0.09210  0.11440  Biso   1.000  H
  H56      1.0000 0.78650  0.90790  0.11440  Biso   1.000  H
  H57      1.0000 0.71350  0.40790  0.61440  Biso   1.000  H
  H58      1.0000 0.28650  0.59210  0.61440  Biso   1.000  H
  H59      1.0000 0.28650  0.40790  0.38560  Biso   1.000  H
  H60      1.0000 0.71350  0.59210  0.38560  Biso   1.000  H
  H61      1.0000 0.21350  0.90790  0.11440  Biso   1.000  H
  H62      1.0000 0.78650  0.09210  0.11440  Biso   1.000  H
  H63      1.0000 0.78650  0.90790  0.88560  Biso   1.000  H
  H64      1.0000 0.21350  0.09210  0.88560  Biso   1.000  H
  C113     1.0000 0.00000  0.91760  0.31240  Biso   1.000  C
  C114     1.0000 0.00000  0.08240  0.31240  Biso   1.000  C
  C115     1.0000 0.00000  0.91760  0.68760  Biso   1.000  C
  C116     1.0000 0.00000  0.08240  0.68760  Biso   1.000  C
  C117     1.0000 0.50000  0.41760  0.81240  Biso   1.000  C
  C118     1.0000 0.50000  0.58240  0.81240  Biso   1.000  C
  C119     1.0000 0.50000  0.41760  0.18760  Biso   1.000  C
  C120     1.0000 0.50000  0.58240  0.18760  Biso   1.000  C
  C121     1.0000 0.00000  0.86370  0.33020  Biso   1.000  C
  C122     1.0000 0.00000  0.13630  0.33020  Biso   1.000  C
  C123     1.0000 0.00000  0.86370  0.66980  Biso   1.000  C
  C124     1.0000 0.00000  0.13630  0.66980  Biso   1.000  C
  C125     1.0000 0.50000  0.36370  0.83020  Biso   1.000  C
  C126     1.0000 0.50000  0.63630  0.83020  Biso   1.000  C
  C127     1.0000 0.50000  0.36370  0.16980  Biso   1.000  C
  C128     1.0000 0.50000  0.63630  0.16980  Biso   1.000  C
  C129     1.0000 0.91920  0.83670  0.33980  Biso   1.000  C
  C130     1.0000 0.08080  0.16330  0.33980  Biso   1.000  C
  C131     1.0000 0.08080  0.83670  0.66020  Biso   1.000  C
  C132     1.0000 0.91920  0.16330  0.66020  Biso   1.000  C
  C133     1.0000 0.41920  0.33670  0.83980  Biso   1.000  C
  C134     1.0000 0.58080  0.66330  0.83980  Biso   1.000  C
  C135     1.0000 0.58080  0.33670  0.16020  Biso   1.000  C
  C136     1.0000 0.41920  0.66330  0.16020  Biso   1.000  C
  C137     1.0000 0.08080  0.16330  0.66020  Biso   1.000  C
  C138     1.0000 0.91920  0.83670  0.66020  Biso   1.000  C
  C139     1.0000 0.91920  0.16330  0.33980  Biso   1.000  C
  C140     1.0000 0.08080  0.83670  0.33980  Biso   1.000  C
  C141     1.0000 0.58080  0.66330  0.16020  Biso   1.000  C
  C142     1.0000 0.41920  0.33670  0.16020  Biso   1.000  C
  C143     1.0000 0.41920  0.66330  0.83980  Biso   1.000  C
  C144     1.0000 0.58080  0.33670  0.83980  Biso   1.000  C
  H65      1.0000 0.86250  0.85420  0.33540  Biso   1.000  H
  H66      1.0000 0.13750  0.14580  0.33540  Biso   1.000  H
  H67      1.0000 0.13750  0.85420  0.66460  Biso   1.000  H
  H68      1.0000 0.86250  0.14580  0.66460  Biso   1.000  H
  H69      1.0000 0.36250  0.35420  0.83540  Biso   1.000  H
  H70      1.0000 0.63750  0.64580  0.83540  Biso   1.000  H
  H71      1.0000 0.63750  0.35420  0.16460  Biso   1.000  H
  H72      1.0000 0.36250  0.64580  0.16460  Biso   1.000  H
  H73      1.0000 0.13750  0.14580  0.66460  Biso   1.000  H
  H74      1.0000 0.86250  0.85420  0.66460  Biso   1.000  H
  H75      1.0000 0.86250  0.14580  0.33540  Biso   1.000  H
  H76      1.0000 0.13750  0.85420  0.33540  Biso   1.000  H
  H77      1.0000 0.63750  0.64580  0.16460  Biso   1.000  H
  H78      1.0000 0.36250  0.35420  0.16460  Biso   1.000  H
  H79      1.0000 0.36250  0.64580  0.83540  Biso   1.000  H
  H80      1.0000 0.63750  0.35420  0.83540  Biso   1.000  H
  C145     1.0000 0.91850  0.78640  0.35530  Biso   1.000  C
  C146     1.0000 0.08150  0.21360  0.35530  Biso   1.000  C
  C147     1.0000 0.08150  0.78640  0.64470  Biso   1.000  C
  C148     1.0000 0.91850  0.21360  0.64470  Biso   1.000  C
  C149     1.0000 0.41850  0.28640  0.85530  Biso   1.000  C
  C150     1.0000 0.58150  0.71360  0.85530  Biso   1.000  C
  C151     1.0000 0.58150  0.28640  0.14470  Biso   1.000  C
  C152     1.0000 0.41850  0.71360  0.14470  Biso   1.000  C
  C153     1.0000 0.08150  0.21360  0.64470  Biso   1.000  C
  C154     1.0000 0.91850  0.78640  0.64470  Biso   1.000  C
  C155     1.0000 0.91850  0.21360  0.35530  Biso   1.000  C
  C156     1.0000 0.08150  0.78640  0.35530  Biso   1.000  C
  C157     1.0000 0.58150  0.71360  0.14470  Biso   1.000  C
  C158     1.0000 0.41850  0.28640  0.14470  Biso   1.000  C
  C159     1.0000 0.41850  0.71360  0.85530  Biso   1.000  C
  C160     1.0000 0.58150  0.28640  0.85530  Biso   1.000  C
  H81      1.0000 0.86170  0.76930  0.36010  Biso   1.000  H
  H82      1.0000 0.13830  0.23070  0.36010  Biso   1.000  H
  H83      1.0000 0.13830  0.76930  0.63990  Biso   1.000  H
  H84      1.0000 0.86170  0.23070  0.63990  Biso   1.000  H
  H85      1.0000 0.36170  0.26930  0.86010  Biso   1.000  H
  H86      1.0000 0.63830  0.73070  0.86010  Biso   1.000  H
  H87      1.0000 0.63830  0.26930  0.13990  Biso   1.000  H
  H88      1.0000 0.36170  0.73070  0.13990  Biso   1.000  H
  H89      1.0000 0.13830  0.23070  0.63990  Biso   1.000  H
  H90      1.0000 0.86170  0.76930  0.63990  Biso   1.000  H
  H91      1.0000 0.86170  0.23070  0.36010  Biso   1.000  H
  H92      1.0000 0.13830  0.76930  0.36010  Biso   1.000  H
  H93      1.0000 0.63830  0.73070  0.13990  Biso   1.000  H
  H94      1.0000 0.36170  0.26930  0.13990  Biso   1.000  H
  H95      1.0000 0.36170  0.73070  0.86010  Biso   1.000  H
  H96      1.0000 0.63830  0.26930  0.86010  Biso   1.000  H
  C161     1.0000 0.00000  0.75940  0.36450  Biso   1.000  C
  C162     1.0000 0.00000  0.24060  0.36450  Biso   1.000  C
  C163     1.0000 0.00000  0.75940  0.63550  Biso   1.000  C
  C164     1.0000 0.00000  0.24060  0.63550  Biso   1.000  C
  C165     1.0000 0.50000  0.25940  0.86450  Biso   1.000  C
  C166     1.0000 0.50000  0.74060  0.86450  Biso   1.000  C
  C167     1.0000 0.50000  0.25940  0.13550  Biso   1.000  C
  C168     1.0000 0.50000  0.74060  0.13550  Biso   1.000  C
  C169     1.0000 0.57960  0.50000  0.41410  Biso   1.000  C
  C170     1.0000 0.42040  0.50000  0.41410  Biso   1.000  C
  C171     1.0000 0.42040  0.50000  0.58590  Biso   1.000  C
  C172     1.0000 0.57960  0.50000  0.58590  Biso   1.000  C
  C173     1.0000 0.07960  0.00000  0.91410  Biso   1.000  C
  C174     1.0000 0.92040  0.00000  0.91410  Biso   1.000  C
  C175     1.0000 0.92040  0.00000  0.08590  Biso   1.000  C
  C176     1.0000 0.07960  0.00000  0.08590  Biso   1.000  C
  H97      1.0000 0.63600  0.50000  0.39990  Biso   1.000  H
  H98      1.0000 0.36400  0.50000  0.39990  Biso   1.000  H
  H99      1.0000 0.36400  0.50000  0.60010  Biso   1.000  H
  H100     1.0000 0.63600  0.50000  0.60010  Biso   1.000  H
  H101     1.0000 0.13600  0.00000  0.89990  Biso   1.000  H
  H102     1.0000 0.86400  0.00000  0.89990  Biso   1.000  H
  H103     1.0000 0.86400  0.00000  0.10010  Biso   1.000  H
  H104     1.0000 0.13600  0.00000  0.10010  Biso   1.000  H
  C177     1.0000 0.58390  0.50000  0.45600  Biso   1.000  C
  C178     1.0000 0.41610  0.50000  0.45600  Biso   1.000  C
  C179     1.0000 0.41610  0.50000  0.54400  Biso   1.000  C
  C180     1.0000 0.58390  0.50000  0.54400  Biso   1.000  C
  C181     1.0000 0.08390  0.00000  0.95600  Biso   1.000  C
  C182     1.0000 0.91610  0.00000  0.95600  Biso   1.000  C
  C183     1.0000 0.91610  0.00000  0.04400  Biso   1.000  C
  C184     1.0000 0.08390  0.00000  0.04400  Biso   1.000  C
  H105     1.0000 0.64120  0.50000  0.46940  Biso   1.000  H
  H106     1.0000 0.35880  0.50000  0.46940  Biso   1.000  H
  H107     1.0000 0.35880  0.50000  0.53060  Biso   1.000  H
  H108     1.0000 0.64120  0.50000  0.53060  Biso   1.000  H
  H109     1.0000 0.14120  0.00000  0.96940  Biso   1.000  H
  H110     1.0000 0.85880  0.00000  0.96940  Biso   1.000  H
  H111     1.0000 0.85880  0.00000  0.03060  Biso   1.000  H
  H112     1.0000 0.14120  0.00000  0.03060  Biso   1.000  H
  C185     1.0000 0.50000  0.50000  0.47830  Biso   1.000  C
  C186     1.0000 0.50000  0.50000  0.52170  Biso   1.000  C
  C187     1.0000 0.00000  0.00000  0.97830  Biso   1.000  C
  C188     1.0000 0.00000  0.00000  0.02170  Biso   1.000  C
  C189     1.0000 0.19750  0.45240  0.20170  Biso   1.000  C
  C190     1.0000 0.80250  0.54760  0.20170  Biso   1.000  C
  C191     1.0000 0.80250  0.45240  0.79830  Biso   1.000  C
  C192     1.0000 0.19750  0.54760  0.79830  Biso   1.000  C
  C193     1.0000 0.69750  0.95240  0.70170  Biso   1.000  C
  C194     1.0000 0.30250  0.04760  0.70170  Biso   1.000  C
  C195     1.0000 0.30250  0.95240  0.29830  Biso   1.000  C
  C196     1.0000 0.69750  0.04760  0.29830  Biso   1.000  C
  C197     1.0000 0.80250  0.54760  0.79830  Biso   1.000  C
  C198     1.0000 0.19750  0.45240  0.79830  Biso   1.000  C
  C199     1.0000 0.19750  0.54760  0.20170  Biso   1.000  C
  C200     1.0000 0.80250  0.45240  0.20170  Biso   1.000  C
  C201     1.0000 0.30250  0.04760  0.29830  Biso   1.000  C
  C202     1.0000 0.69750  0.95240  0.29830  Biso   1.000  C
  C203     1.0000 0.69750  0.04760  0.70170  Biso   1.000  C
  C204     1.0000 0.30250  0.95240  0.70170  Biso   1.000  C
  H113     1.0000 0.22900  0.41960  0.20480  Biso   1.000  H
  H114     1.0000 0.77100  0.58040  0.20480  Biso   1.000  H
  H115     1.0000 0.77100  0.41960  0.79520  Biso   1.000  H
  H116     1.0000 0.22900  0.58040  0.79520  Biso   1.000  H
  H117     1.0000 0.72900  0.91960  0.70480  Biso   1.000  H
  H118     1.0000 0.27100  0.08040  0.70480  Biso   1.000  H
  H119     1.0000 0.27100  0.91960  0.29520  Biso   1.000  H
  H120     1.0000 0.72900  0.08040  0.29520  Biso   1.000  H
  H121     1.0000 0.77100  0.58040  0.79520  Biso   1.000  H
  H122     1.0000 0.22900  0.41960  0.79520  Biso   1.000  H
  H123     1.0000 0.22900  0.58040  0.20480  Biso   1.000  H
  H124     1.0000 0.77100  0.41960  0.20480  Biso   1.000  H
  H125     1.0000 0.27100  0.08040  0.29520  Biso   1.000  H
  H126     1.0000 0.72900  0.91960  0.29520  Biso   1.000  H
  H127     1.0000 0.72900  0.08040  0.70480  Biso   1.000  H
  H128     1.0000 0.27100  0.91960  0.70480  Biso   1.000  H
  C205     1.0000 0.10280  0.45220  0.19510  Biso   1.000  C
  C206     1.0000 0.89720  0.54780  0.19510  Biso   1.000  C
  C207     1.0000 0.89720  0.45220  0.80490  Biso   1.000  C
  C208     1.0000 0.10280  0.54780  0.80490  Biso   1.000  C
  C209     1.0000 0.60280  0.95220  0.69510  Biso   1.000  C
  C210     1.0000 0.39720  0.04780  0.69510  Biso   1.000  C
  C211     1.0000 0.39720  0.95220  0.30490  Biso   1.000  C
  C212     1.0000 0.60280  0.04780  0.30490  Biso   1.000  C
  C213     1.0000 0.89720  0.54780  0.80490  Biso   1.000  C
  C214     1.0000 0.10280  0.45220  0.80490  Biso   1.000  C
  C215     1.0000 0.10280  0.54780  0.19510  Biso   1.000  C
  C216     1.0000 0.89720  0.45220  0.19510  Biso   1.000  C
  C217     1.0000 0.39720  0.04780  0.30490  Biso   1.000  C
  C218     1.0000 0.60280  0.95220  0.30490  Biso   1.000  C
  C219     1.0000 0.60280  0.04780  0.69510  Biso   1.000  C
  C220     1.0000 0.39720  0.95220  0.69510  Biso   1.000  C
  H129     1.0000 0.07200  0.41940  0.19060  Biso   1.000  H
  H130     1.0000 0.92800  0.58060  0.19060  Biso   1.000  H
  H131     1.0000 0.92800  0.41940  0.80940  Biso   1.000  H
  H132     1.0000 0.07200  0.58060  0.80940  Biso   1.000  H
  H133     1.0000 0.57200  0.91940  0.69060  Biso   1.000  H
  H134     1.0000 0.42800  0.08060  0.69060  Biso   1.000  H
  H135     1.0000 0.42800  0.91940  0.30940  Biso   1.000  H
  H136     1.0000 0.57200  0.08060  0.30940  Biso   1.000  H
  H137     1.0000 0.92800  0.58060  0.80940  Biso   1.000  H
  H138     1.0000 0.07200  0.41940  0.80940  Biso   1.000  H
  H139     1.0000 0.07200  0.58060  0.19060  Biso   1.000  H
  H140     1.0000 0.92800  0.41940  0.19060  Biso   1.000  H
  H141     1.0000 0.42800  0.08060  0.30940  Biso   1.000  H
  H142     1.0000 0.57200  0.91940  0.30940  Biso   1.000  H
  H143     1.0000 0.57200  0.08060  0.69060  Biso   1.000  H
  H144     1.0000 0.42800  0.91940  0.69060  Biso   1.000  H
  C221     1.0000 0.05340  0.50000  0.19500  Biso   1.000  C
  C222     1.0000 0.94660  0.50000  0.19500  Biso   1.000  C
  C223     1.0000 0.94660  0.50000  0.80500  Biso   1.000  C
  C224     1.0000 0.05340  0.50000  0.80500  Biso   1.000  C
  C225     1.0000 0.55340  0.00000  0.69500  Biso   1.000  C
  C226     1.0000 0.44660  0.00000  0.69500  Biso   1.000  C
  C227     1.0000 0.44660  0.00000  0.30500  Biso   1.000  C
  C228     1.0000 0.55340  0.00000  0.30500  Biso   1.000  C
  N1       1.0000 0.50000  0.50000  0.39080  Biso   1.000  N
  N2       1.0000 0.50000  0.50000  0.60920  Biso   1.000  N
  N3       1.0000 0.00000  0.00000  0.89080  Biso   1.000  N
  N4       1.0000 0.00000  0.00000  0.10920  Biso   1.000  N
  N5       1.0000 0.24580  0.50000  0.20390  Biso   1.000  N
  N6       1.0000 0.75420  0.50000  0.20390  Biso   1.000  N
  N7       1.0000 0.75420  0.50000  0.79610  Biso   1.000  N
  N8       1.0000 0.24580  0.50000  0.79610  Biso   1.000  N
  N9       1.0000 0.74580  0.00000  0.70390  Biso   1.000  N
  N10      1.0000 0.25420  0.00000  0.70390  Biso   1.000  N
  N11      1.0000 0.25420  0.00000  0.29610  Biso   1.000  N
  N12      1.0000 0.74580  0.00000  0.29610  Biso   1.000  N
