data_image0
_cell_length_a       11.2128
_cell_length_b       22.422
_cell_length_c       8.1515
_cell_angle_alpha    90
_cell_angle_beta     105.634
_cell_angle_gamma    90

_symmetry_space_group_name_H-M    "P 1"
_symmetry_int_tables_number       1

loop_
  _symmetry_equiv_pos_as_xyz
  'x, y, z'

loop_
  _atom_site_label
  _atom_site_occupancy
  _atom_site_fract_x
  _atom_site_fract_y
  _atom_site_fract_z
  _atom_site_thermal_displace_type
  _atom_site_B_iso_or_equiv
  _atom_site_type_symbol
  Cu1      1.0000 0.03085  0.21096  0.63523  Biso   1.000  Cu
  Cu2      1.0000 0.96915  0.71096  0.86477  Biso   1.000  Cu
  Cu3      1.0000 0.96915  0.78904  0.36477  Biso   1.000  Cu
  Cu4      1.0000 0.03085  0.28904  0.13523  Biso   1.000  Cu
  C1       1.0000 0.16460  0.12782  0.49940  Biso   1.000  C
  C2       1.0000 0.83540  0.62782  0.00060  Biso   1.000  C
  C3       1.0000 0.83540  0.87218  0.50060  Biso   1.000  C
  C4       1.0000 0.16460  0.37218  0.99940  Biso   1.000  C
  H1       1.0000 0.10700  0.10230  0.52540  Biso   1.000  H
  H2       1.0000 0.89300  0.60230  0.97460  Biso   1.000  H
  H3       1.0000 0.89300  0.89770  0.47460  Biso   1.000  H
  H4       1.0000 0.10700  0.39770  0.02540  Biso   1.000  H
  C5       1.0000 0.25600  0.10354  0.43780  Biso   1.000  C
  C6       1.0000 0.74400  0.60354  0.06220  Biso   1.000  C
  C7       1.0000 0.74400  0.89646  0.56220  Biso   1.000  C
  C8       1.0000 0.25600  0.39646  0.93780  Biso   1.000  C
  H5       1.0000 0.26020  0.06250  0.42370  Biso   1.000  H
  H6       1.0000 0.73980  0.56250  0.07630  Biso   1.000  H
  H7       1.0000 0.73980  0.93750  0.57630  Biso   1.000  H
  H8       1.0000 0.26020  0.43750  0.92370  Biso   1.000  H
  C9       1.0000 0.34240  0.14081  0.39650  Biso   1.000  C
  C10      1.0000 0.65760  0.64081  0.10350  Biso   1.000  C
  C11      1.0000 0.65760  0.85919  0.60350  Biso   1.000  C
  C12      1.0000 0.34240  0.35919  0.89650  Biso   1.000  C
  C13      1.0000 0.33070  0.20173  0.41840  Biso   1.000  C
  C14      1.0000 0.66930  0.70173  0.08160  Biso   1.000  C
  C15      1.0000 0.66930  0.79827  0.58160  Biso   1.000  C
  C16      1.0000 0.33070  0.29827  0.91840  Biso   1.000  C
  H9       1.0000 0.38640  0.22820  0.39150  Biso   1.000  H
  H10      1.0000 0.61360  0.72820  0.10850  Biso   1.000  H
  H11      1.0000 0.61360  0.77180  0.60850  Biso   1.000  H
  H12      1.0000 0.38640  0.27180  0.89150  Biso   1.000  H
  C17      1.0000 0.23590  0.22248  0.48040  Biso   1.000  C
  C18      1.0000 0.76410  0.72248  0.01960  Biso   1.000  C
  C19      1.0000 0.76410  0.77752  0.51960  Biso   1.000  C
  C20      1.0000 0.23590  0.27752  0.98040  Biso   1.000  C
  H13      1.0000 0.22820  0.26340  0.49260  Biso   1.000  H
  H14      1.0000 0.77180  0.76340  0.00740  Biso   1.000  H
  H15      1.0000 0.77180  0.73660  0.50740  Biso   1.000  H
  H16      1.0000 0.22820  0.23660  0.99260  Biso   1.000  H
  C21      1.0000 0.44340  0.11481  0.33510  Biso   1.000  C
  C22      1.0000 0.55660  0.61481  0.16490  Biso   1.000  C
  C23      1.0000 0.55660  0.88519  0.66490  Biso   1.000  C
  C24      1.0000 0.44340  0.38519  0.83510  Biso   1.000  C
  C25      1.0000 0.61990  0.12489  0.25640  Biso   1.000  C
  C26      1.0000 0.38010  0.62489  0.24360  Biso   1.000  C
  C27      1.0000 0.38010  0.87511  0.74360  Biso   1.000  C
  C28      1.0000 0.61990  0.37511  0.75640  Biso   1.000  C
  C29      1.0000 0.53310  0.03445  0.25150  Biso   1.000  C
  C30      1.0000 0.46690  0.53445  0.24850  Biso   1.000  C
  C31      1.0000 0.46690  0.96555  0.74850  Biso   1.000  C
  C32      1.0000 0.53310  0.46555  0.75150  Biso   1.000  C
  C33      1.0000 0.53350  0.96977  0.21490  Biso   1.000  C
  C34      1.0000 0.46650  0.46977  0.28510  Biso   1.000  C
  C35      1.0000 0.46650  0.03023  0.78510  Biso   1.000  C
  C36      1.0000 0.53350  0.53023  0.71490  Biso   1.000  C
  C37      1.0000 0.44050  0.93284  0.23910  Biso   1.000  C
  C38      1.0000 0.55950  0.43284  0.26090  Biso   1.000  C
  C39      1.0000 0.55950  0.06716  0.76090  Biso   1.000  C
  C40      1.0000 0.44050  0.56716  0.73910  Biso   1.000  C
  H17      1.0000 0.37670  0.94810  0.27960  Biso   1.000  H
  H18      1.0000 0.62330  0.44810  0.22040  Biso   1.000  H
  H19      1.0000 0.62330  0.05190  0.72040  Biso   1.000  H
  H20      1.0000 0.37670  0.55190  0.77960  Biso   1.000  H
  C41      1.0000 0.44470  0.87312  0.20170  Biso   1.000  C
  C42      1.0000 0.55530  0.37312  0.29830  Biso   1.000  C
  C43      1.0000 0.55530  0.12688  0.79830  Biso   1.000  C
  C44      1.0000 0.44470  0.62688  0.70170  Biso   1.000  C
  H21      1.0000 0.38120  0.84900  0.21770  Biso   1.000  H
  H22      1.0000 0.61880  0.34900  0.28230  Biso   1.000  H
  H23      1.0000 0.61880  0.15100  0.78230  Biso   1.000  H
  H24      1.0000 0.38120  0.65100  0.71770  Biso   1.000  H
  C45      1.0000 0.62120  0.88310  0.12280  Biso   1.000  C
  C46      1.0000 0.37880  0.38310  0.37720  Biso   1.000  C
  C47      1.0000 0.37880  0.11690  0.87720  Biso   1.000  C
  C48      1.0000 0.62120  0.61690  0.62280  Biso   1.000  C
  H25      1.0000 0.68390  0.86640  0.08280  Biso   1.000  H
  H26      1.0000 0.31610  0.36640  0.41720  Biso   1.000  H
  H27      1.0000 0.31610  0.13360  0.91720  Biso   1.000  H
  H28      1.0000 0.68390  0.63360  0.58280  Biso   1.000  H
  C49      1.0000 0.62620  0.94367  0.15590  Biso   1.000  C
  C50      1.0000 0.37380  0.44367  0.34410  Biso   1.000  C
  C51      1.0000 0.37380  0.05633  0.84410  Biso   1.000  C
  C52      1.0000 0.62620  0.55633  0.65590  Biso   1.000  C
  H29      1.0000 0.69100  0.96660  0.13890  Biso   1.000  H
  H30      1.0000 0.30900  0.46660  0.36110  Biso   1.000  H
  H31      1.0000 0.30900  0.03340  0.86110  Biso   1.000  H
  H32      1.0000 0.69100  0.53340  0.63890  Biso   1.000  H
  C53      1.0000 0.71980  0.16358  0.22670  Biso   1.000  C
  C54      1.0000 0.28020  0.66358  0.27330  Biso   1.000  C
  C55      1.0000 0.28020  0.83642  0.77330  Biso   1.000  C
  C56      1.0000 0.71980  0.33642  0.72670  Biso   1.000  C
  C57      1.0000 0.82100  0.13972  0.18400  Biso   1.000  C
  C58      1.0000 0.17900  0.63972  0.31600  Biso   1.000  C
  C59      1.0000 0.17900  0.86028  0.81600  Biso   1.000  C
  C60      1.0000 0.82100  0.36028  0.68400  Biso   1.000  C
  H33      1.0000 0.82870  0.09870  0.17400  Biso   1.000  H
  H34      1.0000 0.17130  0.59870  0.32600  Biso   1.000  H
  H35      1.0000 0.17130  0.90130  0.82600  Biso   1.000  H
  H36      1.0000 0.82870  0.40130  0.67400  Biso   1.000  H
  C61      1.0000 0.91050  0.17775  0.15620  Biso   1.000  C
  C62      1.0000 0.08950  0.67775  0.34380  Biso   1.000  C
  C63      1.0000 0.08950  0.82225  0.84380  Biso   1.000  C
  C64      1.0000 0.91050  0.32225  0.65620  Biso   1.000  C
  H37      1.0000 0.97890  0.16110  0.12940  Biso   1.000  H
  H38      1.0000 0.02110  0.66110  0.37060  Biso   1.000  H
  H39      1.0000 0.02110  0.83890  0.87060  Biso   1.000  H
  H40      1.0000 0.97890  0.33890  0.62940  Biso   1.000  H
  C65      1.0000 0.80470  0.25924  0.20680  Biso   1.000  C
  C66      1.0000 0.19530  0.75924  0.29320  Biso   1.000  C
  C67      1.0000 0.19530  0.74076  0.79320  Biso   1.000  C
  C68      1.0000 0.80470  0.24076  0.70680  Biso   1.000  C
  H41      1.0000 0.79850  0.30040  0.21560  Biso   1.000  H
  H42      1.0000 0.20150  0.80040  0.28440  Biso   1.000  H
  H43      1.0000 0.20150  0.69960  0.78440  Biso   1.000  H
  H44      1.0000 0.79850  0.19960  0.71560  Biso   1.000  H
  C69      1.0000 0.71200  0.22462  0.23600  Biso   1.000  C
  C70      1.0000 0.28800  0.72462  0.26400  Biso   1.000  C
  C71      1.0000 0.28800  0.77538  0.76400  Biso   1.000  C
  C72      1.0000 0.71200  0.27538  0.73600  Biso   1.000  C
  H45      1.0000 0.64420  0.24230  0.26190  Biso   1.000  H
  H46      1.0000 0.35580  0.74230  0.23810  Biso   1.000  H
  H47      1.0000 0.35580  0.75770  0.73810  Biso   1.000  H
  H48      1.0000 0.64420  0.25770  0.76190  Biso   1.000  H
  C73      1.0000 0.99990  0.10900  0.80420  Biso   1.000  C
  C74      1.0000 0.00010  0.60900  0.69580  Biso   1.000  C
  C75      1.0000 0.00010  0.89100  0.19580  Biso   1.000  C
  C76      1.0000 0.99990  0.39100  0.30420  Biso   1.000  C
  C77      1.0000 0.99980  0.05268  0.90680  Biso   1.000  C
  C78      1.0000 0.00020  0.55268  0.59320  Biso   1.000  C
  C79      1.0000 0.00020  0.94732  0.09320  Biso   1.000  C
  C80      1.0000 0.99980  0.44732  0.40680  Biso   1.000  C
  C81      1.0000 0.09650  0.03966  0.04550  Biso   1.000  C
  C82      1.0000 0.90350  0.53966  0.45450  Biso   1.000  C
  C83      1.0000 0.90350  0.96034  0.95450  Biso   1.000  C
  C84      1.0000 0.09650  0.46034  0.54550  Biso   1.000  C
  H49      1.0000 0.16290  0.06590  0.07750  Biso   1.000  H
  H50      1.0000 0.83710  0.56590  0.42250  Biso   1.000  H
  H51      1.0000 0.83710  0.93410  0.92250  Biso   1.000  H
  H52      1.0000 0.16290  0.43410  0.57750  Biso   1.000  H
  C85      1.0000 0.90310  0.01209  0.86120  Biso   1.000  C
  C86      1.0000 0.09690  0.51209  0.63880  Biso   1.000  C
  C87      1.0000 0.09690  0.98791  0.13880  Biso   1.000  C
  C88      1.0000 0.90310  0.48791  0.36120  Biso   1.000  C
  H53      1.0000 0.83700  0.01970  0.76660  Biso   1.000  H
  H54      1.0000 0.16300  0.51970  0.73340  Biso   1.000  H
  H55      1.0000 0.16300  0.98030  0.23340  Biso   1.000  H
  H56      1.0000 0.83700  0.48030  0.26660  Biso   1.000  H
  N1       1.0000 0.15380  0.18637  0.52420  Biso   1.000  N
  N2       1.0000 0.84620  0.68637  0.97580  Biso   1.000  N
  N3       1.0000 0.84620  0.81363  0.47580  Biso   1.000  N
  N4       1.0000 0.15380  0.31363  0.02420  Biso   1.000  N
  N5       1.0000 0.43970  0.05632  0.30520  Biso   1.000  N
  N6       1.0000 0.56030  0.55632  0.19480  Biso   1.000  N
  N7       1.0000 0.56030  0.94368  0.69480  Biso   1.000  N
  N8       1.0000 0.43970  0.44368  0.80520  Biso   1.000  N
  N9       1.0000 0.62620  0.06702  0.22510  Biso   1.000  N
  N10      1.0000 0.37380  0.56702  0.27490  Biso   1.000  N
  N11      1.0000 0.37380  0.93298  0.77490  Biso   1.000  N
  N12      1.0000 0.62620  0.43298  0.72510  Biso   1.000  N
  N13      1.0000 0.53160  0.15153  0.31270  Biso   1.000  N
  N14      1.0000 0.46840  0.65153  0.18730  Biso   1.000  N
  N15      1.0000 0.46840  0.84847  0.68730  Biso   1.000  N
  N16      1.0000 0.53160  0.34847  0.81270  Biso   1.000  N
  N17      1.0000 0.53250  0.84726  0.14450  Biso   1.000  N
  N18      1.0000 0.46750  0.34726  0.35550  Biso   1.000  N
  N19      1.0000 0.46750  0.15274  0.85550  Biso   1.000  N
  N20      1.0000 0.53250  0.65274  0.64450  Biso   1.000  N
  N21      1.0000 0.90410  0.23684  0.16580  Biso   1.000  N
  N22      1.0000 0.09590  0.73684  0.33420  Biso   1.000  N
  N23      1.0000 0.09590  0.76316  0.83420  Biso   1.000  N
  N24      1.0000 0.90410  0.26316  0.66580  Biso   1.000  N
  O1       1.0000 0.07810  0.14806  0.86490  Biso   1.000  O
  O2       1.0000 0.92190  0.64806  0.63510  Biso   1.000  O
  O3       1.0000 0.92190  0.85194  0.13510  Biso   1.000  O
  O4       1.0000 0.07810  0.35194  0.36490  Biso   1.000  O
  O5       1.0000 0.92030  0.11371  0.66390  Biso   1.000  O
  O6       1.0000 0.07970  0.61371  0.83610  Biso   1.000  O
  O7       1.0000 0.07970  0.88629  0.33610  Biso   1.000  O
  O8       1.0000 0.92030  0.38629  0.16390  Biso   1.000  O
  O9       1.0000 0.88220  0.01740  0.43980  Biso   1.000  O
  O10      1.0000 0.11780  0.51740  0.06020  Biso   1.000  O
  O11      1.0000 0.11780  0.98260  0.56020  Biso   1.000  O
  O12      1.0000 0.88220  0.48260  0.93980  Biso   1.000  O
  H57      1.0000 0.81080  0.02840  0.44520  Biso   1.000  H
  H58      1.0000 0.18920  0.52840  0.05480  Biso   1.000  H
  H59      1.0000 0.18920  0.97160  0.55480  Biso   1.000  H
  H60      1.0000 0.81080  0.47160  0.94520  Biso   1.000  H
  H61      1.0000 0.93580  0.02720  0.53110  Biso   1.000  H
  H62      1.0000 0.06420  0.52720  0.96890  Biso   1.000  H
  H63      1.0000 0.06420  0.97280  0.46890  Biso   1.000  H
  H64      1.0000 0.93580  0.47280  0.03110  Biso   1.000  H
