data_image0
_cell_length_a       7.295
_cell_length_b       4.099
_cell_length_c       12.59
_cell_angle_alpha    90
_cell_angle_beta     96.26
_cell_angle_gamma    90

_symmetry_space_group_name_H-M    "P 1"
_symmetry_int_tables_number       1

loop_
  _symmetry_equiv_pos_as_xyz
  'x, y, z'

loop_
  _atom_site_label
  _atom_site_occupancy
  _atom_site_fract_x
  _atom_site_fract_y
  _atom_site_fract_z
  _atom_site_thermal_displace_type
  _atom_site_B_iso_or_equiv
  _atom_site_type_symbol
  I1       1.0000 0.20458  0.25000  0.40739  Biso   1.000  I
  I2       1.0000 0.79542  0.75000  0.59261  Biso   1.000  I
  Cu1      1.0000 0.01904  0.25000  0.57427  Biso   1.000  Cu
  Cu2      1.0000 0.98096  0.75000  0.42573  Biso   1.000  Cu
  N1       1.0000 0.20800  0.25000  0.70850  Biso   1.000  N
  N2       1.0000 0.79200  0.75000  0.29150  Biso   1.000  N
  C1       1.0000 0.27840  0.25000  0.89700  Biso   1.000  C
  C2       1.0000 0.72160  0.75000  0.10300  Biso   1.000  C
  N3       1.0000 0.45660  0.25000  0.89350  Biso   1.000  N
  N4       1.0000 0.54340  0.75000  0.10650  Biso   1.000  N
  C3       1.0000 0.15160  0.25000  0.80610  Biso   1.000  C
  C4       1.0000 0.84840  0.75000  0.19390  Biso   1.000  C
  H1       1.0000 0.02610  0.25000  0.81320  Biso   1.000  H
  H2       1.0000 0.97390  0.75000  0.18680  Biso   1.000  H
  C5       1.0000 0.38630  0.25000  0.70340  Biso   1.000  C
  C6       1.0000 0.61370  0.75000  0.29660  Biso   1.000  C
  H3       1.0000 0.43050  0.25000  0.63690  Biso   1.000  H
  H4       1.0000 0.56950  0.75000  0.36310  Biso   1.000  H
  N5       1.0000 0.15290  0.25000  0.07960  Biso   1.000  N
  N6       1.0000 0.84710  0.75000  0.92040  Biso   1.000  N
  C7       1.0000 0.21090  0.25000  0.99940  Biso   1.000  C
  C8       1.0000 0.78910  0.75000  0.00060  Biso   1.000  C
  C9       1.0000 0.51160  0.25000  0.79530  Biso   1.000  C
  C10      1.0000 0.48840  0.75000  0.20470  Biso   1.000  C
  H5       1.0000 0.63720  0.25000  0.78830  Biso   1.000  H
  H6       1.0000 0.36280  0.75000  0.21170  Biso   1.000  H
