data_image0
_cell_length_a       8.506
_cell_length_b       6.609
_cell_length_c       13.895
_cell_angle_alpha    90
_cell_angle_beta     96.78
_cell_angle_gamma    90

_symmetry_space_group_name_H-M    "P 1"
_symmetry_int_tables_number       1

loop_
  _symmetry_equiv_pos_as_xyz
  'x, y, z'

loop_
  _atom_site_label
  _atom_site_occupancy
  _atom_site_fract_x
  _atom_site_fract_y
  _atom_site_fract_z
  _atom_site_thermal_displace_type
  _atom_site_B_iso_or_equiv
  _atom_site_type_symbol
  Br1      1.0000 0.50000  0.02020  0.75000  Biso   1.000  Br
  Br2      1.0000 0.50000  0.97980  0.25000  Biso   1.000  Br
  Br3      1.0000 0.16617  0.47645  0.66203  Biso   1.000  Br
  Br4      1.0000 0.16617  0.52355  0.16203  Biso   1.000  Br
  Br5      1.0000 0.83383  0.52355  0.33797  Biso   1.000  Br
  Br6      1.0000 0.83383  0.47645  0.83797  Biso   1.000  Br
  Cu1      1.0000 0.00000  0.24720  0.75000  Biso   1.000  Cu
  Cu2      1.0000 0.00000  0.75280  0.25000  Biso   1.000  Cu
  Cu3      1.0000 0.40857  0.28222  0.63259  Biso   1.000  Cu
  Cu4      1.0000 0.40857  0.71778  0.13259  Biso   1.000  Cu
  Cu5      1.0000 0.59143  0.71778  0.36741  Biso   1.000  Cu
  Cu6      1.0000 0.59143  0.28222  0.86741  Biso   1.000  Cu
  N1       1.0000 0.30700  0.11550  0.51120  Biso   1.000  N
  N2       1.0000 0.30700  0.88450  0.01120  Biso   1.000  N
  N3       1.0000 0.69300  0.88450  0.48880  Biso   1.000  N
  N4       1.0000 0.69300  0.11550  0.98880  Biso   1.000  N
  N5       1.0000 0.11290  0.92060  0.36190  Biso   1.000  N
  N6       1.0000 0.11290  0.07940  0.86190  Biso   1.000  N
  N7       1.0000 0.88710  0.07940  0.63810  Biso   1.000  N
  N8       1.0000 0.88710  0.92060  0.13810  Biso   1.000  N
  N9       1.0000 0.56890  0.47950  0.60950  Biso   1.000  N
  N10      1.0000 0.56890  0.52050  0.10950  Biso   1.000  N
  N11      1.0000 0.43110  0.52050  0.39050  Biso   1.000  N
  N12      1.0000 0.43110  0.47950  0.89050  Biso   1.000  N
  C1       1.0000 0.27600  0.19460  0.42160  Biso   1.000  C
  C2       1.0000 0.27600  0.80540  0.92160  Biso   1.000  C
  C3       1.0000 0.72400  0.80540  0.57840  Biso   1.000  C
  C4       1.0000 0.72400  0.19460  0.07840  Biso   1.000  C
  C5       1.0000 0.17930  0.10080  0.34860  Biso   1.000  C
  C6       1.0000 0.17930  0.89920  0.84860  Biso   1.000  C
  C7       1.0000 0.82070  0.89920  0.65140  Biso   1.000  C
  C8       1.0000 0.82070  0.10080  0.15140  Biso   1.000  C
  H1       1.0000 0.15950  0.16400  0.28860  Biso   1.000  H
  H2       1.0000 0.15950  0.83600  0.78860  Biso   1.000  H
  H3       1.0000 0.84050  0.83600  0.71140  Biso   1.000  H
  H4       1.0000 0.84050  0.16400  0.21140  Biso   1.000  H
  C9       1.0000 0.14500  0.83860  0.45030  Biso   1.000  C
  C10      1.0000 0.14500  0.16140  0.95030  Biso   1.000  C
  C11      1.0000 0.85500  0.16140  0.54970  Biso   1.000  C
  C12      1.0000 0.85500  0.83860  0.04970  Biso   1.000  C
  H5       1.0000 0.10210  0.71300  0.46240  Biso   1.000  H
  H6       1.0000 0.10210  0.28700  0.96240  Biso   1.000  H
  H7       1.0000 0.89790  0.28700  0.53760  Biso   1.000  H
  H8       1.0000 0.89790  0.71300  0.03760  Biso   1.000  H
  C13      1.0000 0.24040  0.93530  0.52440  Biso   1.000  C
  C14      1.0000 0.24040  0.06470  0.02440  Biso   1.000  C
  C15      1.0000 0.75960  0.06470  0.47560  Biso   1.000  C
  C16      1.0000 0.75960  0.93530  0.97560  Biso   1.000  C
  H9       1.0000 0.25860  0.87330  0.58480  Biso   1.000  H
  H10      1.0000 0.25860  0.12670  0.08480  Biso   1.000  H
  H11      1.0000 0.74140  0.12670  0.41520  Biso   1.000  H
  H12      1.0000 0.74140  0.87330  0.91520  Biso   1.000  H
  C17      1.0000 0.64250  0.61910  0.59610  Biso   1.000  C
  C18      1.0000 0.64250  0.38090  0.09610  Biso   1.000  C
  C19      1.0000 0.35750  0.38090  0.40390  Biso   1.000  C
  C20      1.0000 0.35750  0.61910  0.90390  Biso   1.000  C
