data_image0
_cell_length_a       8.2643
_cell_length_b       6.525
_cell_length_c       13.5411
_cell_angle_alpha    90
_cell_angle_beta     95.703
_cell_angle_gamma    90

_symmetry_space_group_name_H-M    "P 1"
_symmetry_int_tables_number       1

loop_
  _symmetry_equiv_pos_as_xyz
  'x, y, z'

loop_
  _atom_site_label
  _atom_site_occupancy
  _atom_site_fract_x
  _atom_site_fract_y
  _atom_site_fract_z
  _atom_site_thermal_displace_type
  _atom_site_B_iso_or_equiv
  _atom_site_type_symbol
  Cu1      1.0000 0.00000  0.23368  0.25000  Biso   1.000  Cu
  Cu2      1.0000 0.00000  0.76632  0.75000  Biso   1.000  Cu
  Cu3      1.0000 0.59741  0.21694  0.36187  Biso   1.000  Cu
  Cu4      1.0000 0.59741  0.78306  0.86187  Biso   1.000  Cu
  Cu5      1.0000 0.40259  0.78306  0.63813  Biso   1.000  Cu
  Cu6      1.0000 0.40259  0.21694  0.13813  Biso   1.000  Cu
  Cl1      1.0000 0.50000  0.46810  0.25000  Biso   1.000  Cl
  Cl2      1.0000 0.50000  0.53190  0.75000  Biso   1.000  Cl
  Cl3      1.0000 0.83203  0.02314  0.33580  Biso   1.000  Cl
  Cl4      1.0000 0.83203  0.97686  0.83580  Biso   1.000  Cl
  Cl5      1.0000 0.16797  0.97686  0.66420  Biso   1.000  Cl
  Cl6      1.0000 0.16797  0.02314  0.16420  Biso   1.000  Cl
  N1       1.0000 0.69290  0.39250  0.48500  Biso   1.000  N
  N2       1.0000 0.69290  0.60750  0.98500  Biso   1.000  N
  N3       1.0000 0.30710  0.60750  0.51500  Biso   1.000  N
  N4       1.0000 0.30710  0.39250  0.01500  Biso   1.000  N
  N5       1.0000 0.88780  0.59310  0.63710  Biso   1.000  N
  N6       1.0000 0.88780  0.40690  0.13710  Biso   1.000  N
  N7       1.0000 0.11220  0.40690  0.36290  Biso   1.000  N
  N8       1.0000 0.11220  0.59310  0.86290  Biso   1.000  N
  N9       1.0000 0.43340  0.01560  0.38730  Biso   1.000  N
  N10      1.0000 0.43340  0.98440  0.88730  Biso   1.000  N
  N11      1.0000 0.56660  0.98440  0.61270  Biso   1.000  N
  N12      1.0000 0.56660  0.01560  0.11270  Biso   1.000  N
  C1       1.0000 0.72380  0.31270  0.57700  Biso   1.000  C
  C2       1.0000 0.72380  0.68730  0.07700  Biso   1.000  C
  C3       1.0000 0.27620  0.68730  0.42300  Biso   1.000  C
  C4       1.0000 0.27620  0.31270  0.92300  Biso   1.000  C
  C5       1.0000 0.82080  0.41040  0.65160  Biso   1.000  C
  C6       1.0000 0.82080  0.58960  0.15160  Biso   1.000  C
  C7       1.0000 0.17920  0.58960  0.34840  Biso   1.000  C
  C8       1.0000 0.17920  0.41040  0.84840  Biso   1.000  C
  H1       1.0000 0.83980  0.34770  0.71330  Biso   1.000  H
  H2       1.0000 0.83980  0.65230  0.21330  Biso   1.000  H
  H3       1.0000 0.16020  0.65230  0.28670  Biso   1.000  H
  H4       1.0000 0.16020  0.34770  0.78670  Biso   1.000  H
  C9       1.0000 0.85670  0.67300  0.54550  Biso   1.000  C
  C10      1.0000 0.85670  0.32700  0.04550  Biso   1.000  C
  C11      1.0000 0.14330  0.32700  0.45450  Biso   1.000  C
  C12      1.0000 0.14330  0.67300  0.95450  Biso   1.000  C
  H5       1.0000 0.90130  0.79960  0.53190  Biso   1.000  H
  H6       1.0000 0.90130  0.20040  0.03190  Biso   1.000  H
  H7       1.0000 0.09870  0.20040  0.46810  Biso   1.000  H
  H8       1.0000 0.09870  0.79960  0.96810  Biso   1.000  H
  C13      1.0000 0.76160  0.57450  0.47160  Biso   1.000  C
  C14      1.0000 0.76160  0.42550  0.97160  Biso   1.000  C
  C15      1.0000 0.23840  0.42550  0.52840  Biso   1.000  C
  C16      1.0000 0.23840  0.57450  0.02840  Biso   1.000  C
  H9       1.0000 0.74430  0.63670  0.40960  Biso   1.000  H
  H10      1.0000 0.74430  0.36330  0.90960  Biso   1.000  H
  H11      1.0000 0.25570  0.36330  0.59040  Biso   1.000  H
  H12      1.0000 0.25570  0.63670  0.09040  Biso   1.000  H
  C17      1.0000 0.36030  0.87330  0.40340  Biso   1.000  C
  C18      1.0000 0.36030  0.12670  0.90340  Biso   1.000  C
  C19      1.0000 0.63970  0.12670  0.59660  Biso   1.000  C
  C20      1.0000 0.63970  0.87330  0.09660  Biso   1.000  C
