data_image0
_cell_length_a       17.344
_cell_length_b       6.509
_cell_length_c       7.522
_cell_angle_alpha    90
_cell_angle_beta     90.79
_cell_angle_gamma    90

_symmetry_space_group_name_H-M    "P 1"
_symmetry_int_tables_number       1

loop_
  _symmetry_equiv_pos_as_xyz
  'x, y, z'

loop_
  _atom_site_label
  _atom_site_occupancy
  _atom_site_fract_x
  _atom_site_fract_y
  _atom_site_fract_z
  _atom_site_thermal_displace_type
  _atom_site_B_iso_or_equiv
  _atom_site_type_symbol
  Cu1      1.0000 0.45089  0.89282  0.31726  Biso   1.000  Cu
  Cu2      1.0000 0.54911  0.39282  0.18274  Biso   1.000  Cu
  Cu3      1.0000 0.54911  0.10718  0.68274  Biso   1.000  Cu
  Cu4      1.0000 0.45089  0.60718  0.81726  Biso   1.000  Cu
  S1       1.0000 0.38690  0.72397  0.07158  Biso   1.000  S
  S2       1.0000 0.61310  0.22397  0.42842  Biso   1.000  S
  S3       1.0000 0.61310  0.27603  0.92842  Biso   1.000  S
  S4       1.0000 0.38690  0.77603  0.57158  Biso   1.000  S
  N1       1.0000 0.43500  0.35540  0.20960  Biso   1.000  N
  N2       1.0000 0.56500  0.85540  0.29040  Biso   1.000  N
  N3       1.0000 0.56500  0.64460  0.79040  Biso   1.000  N
  N4       1.0000 0.43500  0.14460  0.70960  Biso   1.000  N
  N5       1.0000 0.40190  0.18400  0.27840  Biso   1.000  N
  N6       1.0000 0.59810  0.68400  0.22160  Biso   1.000  N
  N7       1.0000 0.59810  0.81600  0.72160  Biso   1.000  N
  N8       1.0000 0.40190  0.31600  0.77840  Biso   1.000  N
  C1       1.0000 0.07830  0.56110  0.18960  Biso   1.000  C
  C2       1.0000 0.92170  0.06110  0.31040  Biso   1.000  C
  C3       1.0000 0.92170  0.43890  0.81040  Biso   1.000  C
  C4       1.0000 0.07830  0.93890  0.68960  Biso   1.000  C
  H1       1.0000 0.02630  0.59570  0.18610  Biso   1.000  H
  H2       1.0000 0.97370  0.09570  0.31390  Biso   1.000  H
  H3       1.0000 0.97370  0.40430  0.81390  Biso   1.000  H
  H4       1.0000 0.02630  0.90430  0.68610  Biso   1.000  H
  N9       1.0000 0.31100  0.39280  0.22280  Biso   1.000  N
  N10      1.0000 0.68900  0.89280  0.27720  Biso   1.000  N
  N11      1.0000 0.68900  0.60720  0.77720  Biso   1.000  N
  N12      1.0000 0.31100  0.10720  0.72280  Biso   1.000  N
  N13      1.0000 0.32760  0.20160  0.28800  Biso   1.000  N
  N14      1.0000 0.67240  0.70160  0.21200  Biso   1.000  N
  N15      1.0000 0.67240  0.79840  0.71200  Biso   1.000  N
  N16      1.0000 0.32760  0.29840  0.78800  Biso   1.000  N
  C5       1.0000 0.37720  0.48630  0.17110  Biso   1.000  C
  C6       1.0000 0.62280  0.98630  0.32890  Biso   1.000  C
  C7       1.0000 0.62280  0.51370  0.82890  Biso   1.000  C
  C8       1.0000 0.37720  0.01370  0.67110  Biso   1.000  C
  C9       1.0000 0.23170  0.45760  0.20810  Biso   1.000  C
  C10      1.0000 0.76830  0.95760  0.29190  Biso   1.000  C
  C11      1.0000 0.76830  0.54240  0.79190  Biso   1.000  C
  C12      1.0000 0.23170  0.04240  0.70810  Biso   1.000  C
  C13      1.0000 0.21000  0.65000  0.26440  Biso   1.000  C
  C14      1.0000 0.79000  0.15000  0.23560  Biso   1.000  C
  C15      1.0000 0.79000  0.35000  0.73560  Biso   1.000  C
  C16      1.0000 0.21000  0.85000  0.76440  Biso   1.000  C
  H5       1.0000 0.24630  0.74280  0.30820  Biso   1.000  H
  H6       1.0000 0.75370  0.24280  0.19180  Biso   1.000  H
  H7       1.0000 0.75370  0.25720  0.69180  Biso   1.000  H
  H8       1.0000 0.24630  0.75720  0.80820  Biso   1.000  H
  C17      1.0000 0.10150  0.37070  0.13110  Biso   1.000  C
  C18      1.0000 0.89850  0.87070  0.36890  Biso   1.000  C
  C19      1.0000 0.89850  0.62930  0.86890  Biso   1.000  C
  C20      1.0000 0.10150  0.12930  0.63110  Biso   1.000  C
  H9       1.0000 0.06520  0.27880  0.08560  Biso   1.000  H
  H10      1.0000 0.93480  0.77880  0.41440  Biso   1.000  H
  H11      1.0000 0.93480  0.72120  0.91440  Biso   1.000  H
  H12      1.0000 0.06520  0.22120  0.58560  Biso   1.000  H
  C21      1.0000 0.17900  0.31510  0.13960  Biso   1.000  C
  C22      1.0000 0.82100  0.81510  0.36040  Biso   1.000  C
  C23      1.0000 0.82100  0.68490  0.86040  Biso   1.000  C
  C24      1.0000 0.17900  0.18490  0.63960  Biso   1.000  C
  H13      1.0000 0.19520  0.18670  0.10070  Biso   1.000  H
  H14      1.0000 0.80480  0.68670  0.39930  Biso   1.000  H
  H15      1.0000 0.80480  0.81330  0.89930  Biso   1.000  H
  H16      1.0000 0.19520  0.31330  0.60070  Biso   1.000  H
  C25      1.0000 0.13210  0.70210  0.25400  Biso   1.000  C
  C26      1.0000 0.86790  0.20210  0.24600  Biso   1.000  C
  C27      1.0000 0.86790  0.29790  0.74600  Biso   1.000  C
  C28      1.0000 0.13210  0.79790  0.75400  Biso   1.000  C
  H17      1.0000 0.11610  0.83160  0.29030  Biso   1.000  H
  H18      1.0000 0.88390  0.33160  0.20970  Biso   1.000  H
  H19      1.0000 0.88390  0.16840  0.70970  Biso   1.000  H
  H20      1.0000 0.11610  0.66840  0.79030  Biso   1.000  H
