data_image0
_cell_length_a       4.1982
_cell_length_b       10.893
_cell_length_c       16.36
_cell_angle_alpha    90
_cell_angle_beta     93.3
_cell_angle_gamma    90

_symmetry_space_group_name_H-M    "P 1"
_symmetry_int_tables_number       1

loop_
  _symmetry_equiv_pos_as_xyz
  'x, y, z'

loop_
  _atom_site_label
  _atom_site_occupancy
  _atom_site_fract_x
  _atom_site_fract_y
  _atom_site_fract_z
  _atom_site_thermal_displace_type
  _atom_site_B_iso_or_equiv
  _atom_site_type_symbol
  I1       1.0000 0.76044  0.90856  0.60457  Biso   1.000  I
  I2       1.0000 0.26044  0.59144  0.10457  Biso   1.000  I
  I3       1.0000 0.23956  0.09144  0.39543  Biso   1.000  I
  I4       1.0000 0.73956  0.40856  0.89543  Biso   1.000  I
  Cu1      1.0000 0.74750  0.09163  0.49530  Biso   1.000  Cu
  Cu2      1.0000 0.24750  0.40837  0.99530  Biso   1.000  Cu
  Cu3      1.0000 0.25250  0.90837  0.50470  Biso   1.000  Cu
  Cu4      1.0000 0.75250  0.59163  0.00470  Biso   1.000  Cu
  N1       1.0000 0.82890  0.24670  0.56320  Biso   1.000  N
  N2       1.0000 0.32890  0.25330  0.06320  Biso   1.000  N
  N3       1.0000 0.17110  0.75330  0.43680  Biso   1.000  N
  N4       1.0000 0.67110  0.74670  0.93680  Biso   1.000  N
  N5       1.0000 0.11430  0.34700  0.67510  Biso   1.000  N
  N6       1.0000 0.61430  0.15300  0.17510  Biso   1.000  N
  N7       1.0000 0.88570  0.65300  0.32490  Biso   1.000  N
  N8       1.0000 0.38570  0.84700  0.82490  Biso   1.000  N
  C1       1.0000 0.71840  0.35820  0.54340  Biso   1.000  C
  C2       1.0000 0.21840  0.14180  0.04340  Biso   1.000  C
  C3       1.0000 0.28160  0.64180  0.45660  Biso   1.000  C
  C4       1.0000 0.78160  0.85820  0.95660  Biso   1.000  C
  H1       1.0000 0.57720  0.36330  0.49760  Biso   1.000  H
  H2       1.0000 0.07720  0.13670  0.99760  Biso   1.000  H
  H3       1.0000 0.42280  0.63670  0.50240  Biso   1.000  H
  H4       1.0000 0.92280  0.86330  0.00240  Biso   1.000  H
  C5       1.0000 0.78860  0.46290  0.58230  Biso   1.000  C
  C6       1.0000 0.28860  0.03710  0.08230  Biso   1.000  C
  C7       1.0000 0.21140  0.53710  0.41770  Biso   1.000  C
  C8       1.0000 0.71140  0.96290  0.91770  Biso   1.000  C
  H5       1.0000 0.69850  0.53690  0.56440  Biso   1.000  H
  H6       1.0000 0.19850  0.96310  0.06440  Biso   1.000  H
  H7       1.0000 0.30150  0.46310  0.43560  Biso   1.000  H
  H8       1.0000 0.80150  0.03690  0.93560  Biso   1.000  H
  C9       1.0000 0.98930  0.45820  0.64660  Biso   1.000  C
  C10      1.0000 0.48930  0.04180  0.14660  Biso   1.000  C
  C11      1.0000 0.01070  0.54180  0.35340  Biso   1.000  C
  C12      1.0000 0.51070  0.95820  0.85340  Biso   1.000  C
  C13      1.0000 0.03000  0.24230  0.63010  Biso   1.000  C
  C14      1.0000 0.53000  0.25770  0.13010  Biso   1.000  C
  C15      1.0000 0.97000  0.75770  0.36990  Biso   1.000  C
  C16      1.0000 0.47000  0.74230  0.86990  Biso   1.000  C
  H9       1.0000 0.11530  0.16710  0.64690  Biso   1.000  H
  H10      1.0000 0.61530  0.33290  0.14690  Biso   1.000  H
  H11      1.0000 0.88470  0.83290  0.35310  Biso   1.000  H
  H12      1.0000 0.38470  0.66710  0.85310  Biso   1.000  H
  C17      1.0000 0.07330  0.57560  0.69020  Biso   1.000  C
  C18      1.0000 0.57330  0.92440  0.19020  Biso   1.000  C
  C19      1.0000 0.92670  0.42440  0.30980  Biso   1.000  C
  C20      1.0000 0.42670  0.07560  0.80980  Biso   1.000  C
  H13      1.0000 0.13300  0.63610  0.65130  Biso   1.000  H
  H14      1.0000 0.63300  0.86390  0.15130  Biso   1.000  H
  H15      1.0000 0.86700  0.36390  0.34870  Biso   1.000  H
  H16      1.0000 0.36700  0.13610  0.84870  Biso   1.000  H
  H17      1.0000 0.24900  0.56160  0.72950  Biso   1.000  H
  H18      1.0000 0.74900  0.93840  0.22950  Biso   1.000  H
  H19      1.0000 0.75100  0.43840  0.27050  Biso   1.000  H
  H20      1.0000 0.25100  0.06160  0.77050  Biso   1.000  H
  H21      1.0000 0.89230  0.60440  0.71800  Biso   1.000  H
  H22      1.0000 0.39230  0.89560  0.21800  Biso   1.000  H
  H23      1.0000 0.10770  0.39560  0.28200  Biso   1.000  H
  H24      1.0000 0.60770  0.10440  0.78200  Biso   1.000  H
