data_image0
_cell_length_a       9.168
_cell_length_b       12.891
_cell_length_c       18.296
_cell_angle_alpha    90
_cell_angle_beta     97.29
_cell_angle_gamma    90

_symmetry_space_group_name_H-M    "P 1"
_symmetry_int_tables_number       1

loop_
  _symmetry_equiv_pos_as_xyz
  'x, y, z'

loop_
  _atom_site_label
  _atom_site_occupancy
  _atom_site_fract_x
  _atom_site_fract_y
  _atom_site_fract_z
  _atom_site_thermal_displace_type
  _atom_site_B_iso_or_equiv
  _atom_site_type_symbol
  Br1      1.0000 0.90960  0.51745  0.39367  Biso   1.000  Br
  Br2      1.0000 0.90960  0.98255  0.89367  Biso   1.000  Br
  Br3      1.0000 0.09040  0.48255  0.60633  Biso   1.000  Br
  Br4      1.0000 0.09040  0.01745  0.10633  Biso   1.000  Br
  Br5      1.0000 0.60300  0.57088  0.17100  Biso   1.000  Br
  Br6      1.0000 0.60300  0.92912  0.67100  Biso   1.000  Br
  Br7      1.0000 0.39700  0.42912  0.82900  Biso   1.000  Br
  Br8      1.0000 0.39700  0.07088  0.32900  Biso   1.000  Br
  Br9      1.0000 0.29912  0.74340  0.25458  Biso   1.000  Br
  Br10     1.0000 0.29912  0.75660  0.75458  Biso   1.000  Br
  Br11     1.0000 0.70088  0.25660  0.74542  Biso   1.000  Br
  Br12     1.0000 0.70088  0.24340  0.24542  Biso   1.000  Br
  Cu1      1.0000 0.13310  0.54467  0.48580  Biso   1.000  Cu
  Cu2      1.0000 0.13310  0.95533  0.98580  Biso   1.000  Cu
  Cu3      1.0000 0.86690  0.45533  0.51420  Biso   1.000  Cu
  Cu4      1.0000 0.86690  0.04467  0.01420  Biso   1.000  Cu
  Cu5      1.0000 0.55200  0.65487  0.29374  Biso   1.000  Cu
  Cu6      1.0000 0.55200  0.84513  0.79374  Biso   1.000  Cu
  Cu7      1.0000 0.44800  0.34513  0.70626  Biso   1.000  Cu
  Cu8      1.0000 0.44800  0.15487  0.20626  Biso   1.000  Cu
  Cu9      1.0000 0.33350  0.59697  0.16923  Biso   1.000  Cu
  Cu10     1.0000 0.33350  0.90303  0.66923  Biso   1.000  Cu
  Cu11     1.0000 0.66650  0.40303  0.83077  Biso   1.000  Cu
  Cu12     1.0000 0.66650  0.09697  0.33077  Biso   1.000  Cu
  N1       1.0000 0.31280  0.49420  0.43660  Biso   1.000  N
  N2       1.0000 0.31280  0.00580  0.93660  Biso   1.000  N
  N3       1.0000 0.68720  0.50580  0.56340  Biso   1.000  N
  N4       1.0000 0.68720  0.99420  0.06340  Biso   1.000  N
  N5       1.0000 0.48650  0.54630  0.36050  Biso   1.000  N
  N6       1.0000 0.48650  0.95370  0.86050  Biso   1.000  N
  N7       1.0000 0.51350  0.45370  0.63950  Biso   1.000  N
  N8       1.0000 0.51350  0.04630  0.13950  Biso   1.000  N
  N9       1.0000 0.74220  0.95300  0.30500  Biso   1.000  N
  N10      1.0000 0.74220  0.54700  0.80500  Biso   1.000  N
  N11      1.0000 0.25780  0.04700  0.69500  Biso   1.000  N
  N12      1.0000 0.25780  0.45300  0.19500  Biso   1.000  N
  N13      1.0000 0.69330  0.77310  0.29440  Biso   1.000  N
  N14      1.0000 0.69330  0.72690  0.79440  Biso   1.000  N
  N15      1.0000 0.30670  0.22690  0.70560  Biso   1.000  N
  N16      1.0000 0.30670  0.27310  0.20560  Biso   1.000  N
  N17      1.0000 0.24200  0.85030  0.56770  Biso   1.000  N
  N18      1.0000 0.24200  0.64970  0.06770  Biso   1.000  N
  N19      1.0000 0.75800  0.14970  0.43230  Biso   1.000  N
  N20      1.0000 0.75800  0.35030  0.93230  Biso   1.000  N
  N21      1.0000 0.15640  0.70660  0.49530  Biso   1.000  N
  N22      1.0000 0.15640  0.79340  0.99530  Biso   1.000  N
  N23      1.0000 0.84360  0.29340  0.50470  Biso   1.000  N
  N24      1.0000 0.84360  0.20660  0.00470  Biso   1.000  N
  C1       1.0000 0.38670  0.56480  0.40210  Biso   1.000  C
  C2       1.0000 0.38670  0.93520  0.90210  Biso   1.000  C
  C3       1.0000 0.61330  0.43520  0.59790  Biso   1.000  C
  C4       1.0000 0.61330  0.06480  0.09790  Biso   1.000  C
  H1       1.0000 0.36360  0.63400  0.40900  Biso   1.000  H
  H2       1.0000 0.36360  0.86600  0.90900  Biso   1.000  H
  H3       1.0000 0.63640  0.36600  0.59100  Biso   1.000  H
  H4       1.0000 0.63640  0.13400  0.09100  Biso   1.000  H
  C5       1.0000 0.52340  0.44420  0.35310  Biso   1.000  C
  C6       1.0000 0.52340  0.05580  0.85310  Biso   1.000  C
  C7       1.0000 0.47660  0.55580  0.64690  Biso   1.000  C
  C8       1.0000 0.47660  0.94420  0.14690  Biso   1.000  C
  H5       1.0000 0.59840  0.42700  0.32550  Biso   1.000  H
  H6       1.0000 0.59840  0.07300  0.82550  Biso   1.000  H
  H7       1.0000 0.40160  0.57300  0.67450  Biso   1.000  H
  H8       1.0000 0.40160  0.92700  0.17450  Biso   1.000  H
  C9       1.0000 0.45320  0.36890  0.38500  Biso   1.000  C
  C10      1.0000 0.45320  0.13110  0.88500  Biso   1.000  C
  C11      1.0000 0.54680  0.63110  0.61500  Biso   1.000  C
  C12      1.0000 0.54680  0.86890  0.11500  Biso   1.000  C
  H9       1.0000 0.47780  0.29990  0.37840  Biso   1.000  H
  H10      1.0000 0.47780  0.20010  0.87840  Biso   1.000  H
  H11      1.0000 0.52220  0.70010  0.62160  Biso   1.000  H
  H12      1.0000 0.52220  0.79990  0.12160  Biso   1.000  H
  C13      1.0000 0.34600  0.39330  0.42700  Biso   1.000  C
  C14      1.0000 0.34600  0.10670  0.92700  Biso   1.000  C
  C15      1.0000 0.65400  0.60670  0.57300  Biso   1.000  C
  C16      1.0000 0.65400  0.89330  0.07300  Biso   1.000  C
  C17      1.0000 0.25830  0.31540  0.46410  Biso   1.000  C
  C18      1.0000 0.25830  0.18460  0.96410  Biso   1.000  C
  C19      1.0000 0.74170  0.68460  0.53590  Biso   1.000  C
  C20      1.0000 0.74170  0.81540  0.03590  Biso   1.000  C
  H13      1.0000 0.29610  0.31100  0.51540  Biso   1.000  H
  H14      1.0000 0.29610  0.18900  0.01540  Biso   1.000  H
  H15      1.0000 0.70390  0.68900  0.48460  Biso   1.000  H
  H16      1.0000 0.70390  0.81100  0.98460  Biso   1.000  H
  H17      1.0000 0.26540  0.24880  0.44140  Biso   1.000  H
  H18      1.0000 0.26540  0.25120  0.94140  Biso   1.000  H
  H19      1.0000 0.73460  0.75120  0.55860  Biso   1.000  H
  H20      1.0000 0.73460  0.74880  0.05860  Biso   1.000  H
  H21      1.0000 0.15710  0.33670  0.45920  Biso   1.000  H
  H22      1.0000 0.15710  0.16330  0.95920  Biso   1.000  H
  H23      1.0000 0.84290  0.66330  0.54080  Biso   1.000  H
  H24      1.0000 0.84290  0.83670  0.04080  Biso   1.000  H
  C21      1.0000 0.65660  0.87110  0.30720  Biso   1.000  C
  C22      1.0000 0.65660  0.62890  0.80720  Biso   1.000  C
  C23      1.0000 0.34340  0.12890  0.69280  Biso   1.000  C
  C24      1.0000 0.34340  0.37110  0.19280  Biso   1.000  C
  H25      1.0000 0.56200  0.88270  0.31880  Biso   1.000  H
  H26      1.0000 0.56200  0.61730  0.81880  Biso   1.000  H
  H27      1.0000 0.43800  0.11730  0.68120  Biso   1.000  H
  H28      1.0000 0.43800  0.38270  0.18120  Biso   1.000  H
  C25      1.0000 0.82500  0.76050  0.27210  Biso   1.000  C
  C26      1.0000 0.82500  0.73950  0.77210  Biso   1.000  C
  C27      1.0000 0.17500  0.23950  0.72790  Biso   1.000  C
  C28      1.0000 0.17500  0.26050  0.22790  Biso   1.000  C
  H29      1.0000 0.85360  0.69420  0.26000  Biso   1.000  H
  H30      1.0000 0.85360  0.80580  0.76000  Biso   1.000  H
  H31      1.0000 0.14640  0.30580  0.74000  Biso   1.000  H
  H32      1.0000 0.14640  0.19420  0.24000  Biso   1.000  H
  C29      1.0000 0.91920  0.84060  0.26650  Biso   1.000  C
  C30      1.0000 0.91920  0.65940  0.76650  Biso   1.000  C
  C31      1.0000 0.08080  0.15940  0.73350  Biso   1.000  C
  C32      1.0000 0.08080  0.34060  0.23350  Biso   1.000  C
  H33      1.0000 0.01070  0.82950  0.25090  Biso   1.000  H
  H34      1.0000 0.01070  0.67050  0.75090  Biso   1.000  H
  H35      1.0000 0.98930  0.17050  0.74910  Biso   1.000  H
  H36      1.0000 0.98930  0.32950  0.24910  Biso   1.000  H
  C33      1.0000 0.87530  0.93970  0.28460  Biso   1.000  C
  C34      1.0000 0.87530  0.56030  0.78460  Biso   1.000  C
  C35      1.0000 0.12470  0.06030  0.71540  Biso   1.000  C
  C36      1.0000 0.12470  0.43970  0.21540  Biso   1.000  C
  C37      1.0000 0.97650  0.02900  0.28590  Biso   1.000  C
  C38      1.0000 0.97650  0.47100  0.78590  Biso   1.000  C
  C39      1.0000 0.02350  0.97100  0.71410  Biso   1.000  C
  C40      1.0000 0.02350  0.52900  0.21410  Biso   1.000  C
  H37      1.0000 0.07280  0.00500  0.27880  Biso   1.000  H
  H38      1.0000 0.07280  0.49500  0.77880  Biso   1.000  H
  H39      1.0000 0.92720  0.99500  0.72120  Biso   1.000  H
  H40      1.0000 0.92720  0.50500  0.22120  Biso   1.000  H
  H41      1.0000 0.98100  0.06360  0.33260  Biso   1.000  H
  H42      1.0000 0.98100  0.43640  0.83260  Biso   1.000  H
  H43      1.0000 0.01900  0.93640  0.66740  Biso   1.000  H
  H44      1.0000 0.01900  0.56360  0.16740  Biso   1.000  H
  H45      1.0000 0.94130  0.07640  0.24710  Biso   1.000  H
  H46      1.0000 0.94130  0.42360  0.74710  Biso   1.000  H
  H47      1.0000 0.05870  0.92360  0.75290  Biso   1.000  H
  H48      1.0000 0.05870  0.57640  0.25290  Biso   1.000  H
  C41      1.0000 0.20030  0.75380  0.55770  Biso   1.000  C
  C42      1.0000 0.20030  0.74620  0.05770  Biso   1.000  C
  C43      1.0000 0.79970  0.24620  0.44230  Biso   1.000  C
  C44      1.0000 0.79970  0.25380  0.94230  Biso   1.000  C
  H49      1.0000 0.20200  0.71370  0.60000  Biso   1.000  H
  H50      1.0000 0.20200  0.78630  0.10000  Biso   1.000  H
  H51      1.0000 0.79800  0.28630  0.40000  Biso   1.000  H
  H52      1.0000 0.79800  0.21370  0.90000  Biso   1.000  H
  C45      1.0000 0.14470  0.76380  0.43490  Biso   1.000  C
  C46      1.0000 0.14470  0.73620  0.93490  Biso   1.000  C
  C47      1.0000 0.85530  0.23620  0.56510  Biso   1.000  C
  C48      1.0000 0.85530  0.26380  0.06510  Biso   1.000  C
  H53      1.0000 0.11000  0.73360  0.38980  Biso   1.000  H
  H54      1.0000 0.11000  0.76640  0.88980  Biso   1.000  H
  H55      1.0000 0.89000  0.26640  0.61020  Biso   1.000  H
  H56      1.0000 0.89000  0.23360  0.11020  Biso   1.000  H
  C49      1.0000 0.18230  0.86530  0.43720  Biso   1.000  C
  C50      1.0000 0.18230  0.63470  0.93720  Biso   1.000  C
  C51      1.0000 0.81770  0.13470  0.56280  Biso   1.000  C
  C52      1.0000 0.81770  0.36530  0.06280  Biso   1.000  C
  H57      1.0000 0.17470  0.90490  0.39440  Biso   1.000  H
  H58      1.0000 0.17470  0.59510  0.89440  Biso   1.000  H
  H59      1.0000 0.82530  0.09510  0.60560  Biso   1.000  H
  H60      1.0000 0.82530  0.40490  0.10560  Biso   1.000  H
  C53      1.0000 0.23200  0.90870  0.50440  Biso   1.000  C
  C54      1.0000 0.23200  0.59130  0.00440  Biso   1.000  C
  C55      1.0000 0.76800  0.09130  0.49560  Biso   1.000  C
  C56      1.0000 0.76800  0.40870  0.99560  Biso   1.000  C
  C57      1.0000 0.27110  0.02140  0.51510  Biso   1.000  C
  C58      1.0000 0.27110  0.47860  0.01510  Biso   1.000  C
  C59      1.0000 0.72890  0.97860  0.48490  Biso   1.000  C
  C60      1.0000 0.72890  0.52140  0.98490  Biso   1.000  C
  H61      1.0000 0.22210  0.04940  0.55410  Biso   1.000  H
  H62      1.0000 0.22210  0.45060  0.05410  Biso   1.000  H
  H63      1.0000 0.77790  0.95060  0.44590  Biso   1.000  H
  H64      1.0000 0.77790  0.54940  0.94590  Biso   1.000  H
  H65      1.0000 0.37550  0.02810  0.52780  Biso   1.000  H
  H66      1.0000 0.37550  0.47190  0.02780  Biso   1.000  H
  H67      1.0000 0.62450  0.97190  0.47220  Biso   1.000  H
  H68      1.0000 0.62450  0.52810  0.97220  Biso   1.000  H
  H69      1.0000 0.24070  0.05860  0.47030  Biso   1.000  H
  H70      1.0000 0.24070  0.44140  0.97030  Biso   1.000  H
  H71      1.0000 0.75930  0.94140  0.52970  Biso   1.000  H
  H72      1.0000 0.75930  0.55860  0.02970  Biso   1.000  H
