data_image0
_cell_length_a       8.292
_cell_length_b       11.122
_cell_length_c       7.778
_cell_angle_alpha    90
_cell_angle_beta     112.15
_cell_angle_gamma    90

_symmetry_space_group_name_H-M    "P 1"
_symmetry_int_tables_number       1

loop_
  _symmetry_equiv_pos_as_xyz
  'x, y, z'

loop_
  _atom_site_label
  _atom_site_occupancy
  _atom_site_fract_x
  _atom_site_fract_y
  _atom_site_fract_z
  _atom_site_thermal_displace_type
  _atom_site_B_iso_or_equiv
  _atom_site_type_symbol
  Cu1      1.0000 0.97994  0.02899  0.17127  Biso   1.000  Cu
  Cu2      1.0000 0.97994  0.47101  0.67127  Biso   1.000  Cu
  Cu3      1.0000 0.02006  0.97101  0.82873  Biso   1.000  Cu
  Cu4      1.0000 0.02006  0.52899  0.32873  Biso   1.000  Cu
  Cl1      1.0000 0.23181  0.08819  0.07884  Biso   1.000  Cl
  Cl2      1.0000 0.23181  0.41181  0.57884  Biso   1.000  Cl
  Cl3      1.0000 0.76819  0.91181  0.92116  Biso   1.000  Cl
  Cl4      1.0000 0.76819  0.58819  0.42116  Biso   1.000  Cl
  N1       1.0000 0.86300  0.18890  0.12120  Biso   1.000  N
  N2       1.0000 0.86300  0.31110  0.62120  Biso   1.000  N
  N3       1.0000 0.13700  0.81110  0.87880  Biso   1.000  N
  N4       1.0000 0.13700  0.68890  0.37880  Biso   1.000  N
  C1       1.0000 0.74700  0.41660  0.00280  Biso   1.000  C
  C2       1.0000 0.74700  0.08340  0.50280  Biso   1.000  C
  C3       1.0000 0.25300  0.58340  0.99720  Biso   1.000  C
  C4       1.0000 0.25300  0.91660  0.49720  Biso   1.000  C
  N5       1.0000 0.89920  0.40090  0.14550  Biso   1.000  N
  N6       1.0000 0.89920  0.09910  0.64550  Biso   1.000  N
  N7       1.0000 0.10080  0.59910  0.85450  Biso   1.000  N
  N8       1.0000 0.10080  0.90090  0.35450  Biso   1.000  N
  C5       1.0000 0.69400  0.54180  0.93420  Biso   1.000  C
  C6       1.0000 0.69400  0.95820  0.43420  Biso   1.000  C
  C7       1.0000 0.30600  0.45820  0.06580  Biso   1.000  C
  C8       1.0000 0.30600  0.04180  0.56580  Biso   1.000  C
  H1       1.0000 0.57130  0.54360  0.86120  Biso   1.000  H
  H2       1.0000 0.57130  0.95640  0.36120  Biso   1.000  H
  H3       1.0000 0.42870  0.45640  0.13880  Biso   1.000  H
  H4       1.0000 0.42870  0.04360  0.63880  Biso   1.000  H
  H5       1.0000 0.75710  0.56690  0.85920  Biso   1.000  H
  H6       1.0000 0.75710  0.93310  0.35920  Biso   1.000  H
  H7       1.0000 0.24290  0.43310  0.14080  Biso   1.000  H
  H8       1.0000 0.24290  0.06690  0.64080  Biso   1.000  H
  H9       1.0000 0.71960  0.59520  0.03810  Biso   1.000  H
  H10      1.0000 0.71960  0.90480  0.53810  Biso   1.000  H
  H11      1.0000 0.28040  0.40480  0.96190  Biso   1.000  H
  H12      1.0000 0.28040  0.09520  0.46190  Biso   1.000  H
  C9       1.0000 0.95020  0.28740  0.19490  Biso   1.000  C
  C10      1.0000 0.95020  0.21260  0.69490  Biso   1.000  C
  C11      1.0000 0.04980  0.71260  0.80510  Biso   1.000  C
  C12      1.0000 0.04980  0.78740  0.30510  Biso   1.000  C
  H13      1.0000 0.05800  0.27710  0.29080  Biso   1.000  H
  H14      1.0000 0.05800  0.22290  0.79080  Biso   1.000  H
  H15      1.0000 0.94200  0.72290  0.70920  Biso   1.000  H
  H16      1.0000 0.94200  0.77710  0.20920  Biso   1.000  H
  C13      1.0000 0.64640  0.31740  0.92250  Biso   1.000  C
  C14      1.0000 0.64640  0.18260  0.42250  Biso   1.000  C
  C15      1.0000 0.35360  0.68260  0.07750  Biso   1.000  C
  C16      1.0000 0.35360  0.81740  0.57750  Biso   1.000  C
  H17      1.0000 0.53870  0.32720  0.82630  Biso   1.000  H
  H18      1.0000 0.53870  0.17280  0.32630  Biso   1.000  H
  H19      1.0000 0.46130  0.67280  0.17370  Biso   1.000  H
  H20      1.0000 0.46130  0.82720  0.67370  Biso   1.000  H
  C17      1.0000 0.70610  0.20520  0.98530  Biso   1.000  C
  C18      1.0000 0.70610  0.29480  0.48530  Biso   1.000  C
  C19      1.0000 0.29390  0.79480  0.01470  Biso   1.000  C
  C20      1.0000 0.29390  0.70520  0.51470  Biso   1.000  C
  H21      1.0000 0.63700  0.13870  0.93310  Biso   1.000  H
  H22      1.0000 0.63700  0.36130  0.43310  Biso   1.000  H
  H23      1.0000 0.36300  0.86130  0.06690  Biso   1.000  H
  H24      1.0000 0.36300  0.63870  0.56690  Biso   1.000  H
