data_image0
_cell_length_a       12.79
_cell_length_b       17.0969
_cell_length_c       7.981
_cell_angle_alpha    90
_cell_angle_beta     102.964
_cell_angle_gamma    90

_symmetry_space_group_name_H-M    "P 1"
_symmetry_int_tables_number       1

loop_
  _symmetry_equiv_pos_as_xyz
  'x, y, z'

loop_
  _atom_site_label
  _atom_site_occupancy
  _atom_site_fract_x
  _atom_site_fract_y
  _atom_site_fract_z
  _atom_site_thermal_displace_type
  _atom_site_B_iso_or_equiv
  _atom_site_type_symbol
  N1       1.0000 0.54660  0.58000  0.84730  Biso   1.000  N
  N2       1.0000 0.45340  0.08000  0.65270  Biso   1.000  N
  N3       1.0000 0.45340  0.42000  0.15270  Biso   1.000  N
  N4       1.0000 0.54660  0.92000  0.34730  Biso   1.000  N
  C1       1.0000 0.45030  0.61800  0.79280  Biso   1.000  C
  C2       1.0000 0.54970  0.11800  0.70720  Biso   1.000  C
  C3       1.0000 0.54970  0.38200  0.20720  Biso   1.000  C
  C4       1.0000 0.45030  0.88200  0.29280  Biso   1.000  C
  C5       1.0000 0.37400  0.56100  0.68360  Biso   1.000  C
  C6       1.0000 0.62600  0.06100  0.81640  Biso   1.000  C
  C7       1.0000 0.62600  0.43900  0.31640  Biso   1.000  C
  C8       1.0000 0.37400  0.93900  0.18360  Biso   1.000  C
  C9       1.0000 0.43490  0.49070  0.67190  Biso   1.000  C
  C10      1.0000 0.56510  0.99070  0.82810  Biso   1.000  C
  C11      1.0000 0.56510  0.50930  0.32810  Biso   1.000  C
  C12      1.0000 0.43490  0.00930  0.17190  Biso   1.000  C
  C13      1.0000 0.53950  0.50310  0.77560  Biso   1.000  C
  C14      1.0000 0.46050  0.00310  0.72440  Biso   1.000  C
  C15      1.0000 0.46050  0.49690  0.22440  Biso   1.000  C
  C16      1.0000 0.53950  0.99690  0.27560  Biso   1.000  C
  C17      1.0000 0.61690  0.44590  0.80150  Biso   1.000  C
  C18      1.0000 0.38310  0.94590  0.69850  Biso   1.000  C
  C19      1.0000 0.38310  0.55410  0.19850  Biso   1.000  C
  C20      1.0000 0.61690  0.05410  0.30150  Biso   1.000  C
  H1       1.0000 0.68260  0.45280  0.87830  Biso   1.000  H
  H2       1.0000 0.31740  0.95280  0.62170  Biso   1.000  H
  H3       1.0000 0.31740  0.54720  0.12170  Biso   1.000  H
  H4       1.0000 0.68260  0.04720  0.37830  Biso   1.000  H
  C21      1.0000 0.59220  0.37610  0.70640  Biso   1.000  C
  C22      1.0000 0.40780  0.87610  0.79360  Biso   1.000  C
  C23      1.0000 0.40780  0.62390  0.29360  Biso   1.000  C
  C24      1.0000 0.59220  0.12390  0.20640  Biso   1.000  C
  H5       1.0000 0.64360  0.33680  0.71940  Biso   1.000  H
  H6       1.0000 0.35640  0.83680  0.78060  Biso   1.000  H
  H7       1.0000 0.35640  0.66320  0.28060  Biso   1.000  H
  H8       1.0000 0.64360  0.16320  0.21940  Biso   1.000  H
  C25      1.0000 0.49340  0.36430  0.59390  Biso   1.000  C
  C26      1.0000 0.50660  0.86430  0.90610  Biso   1.000  C
  C27      1.0000 0.50660  0.63570  0.40610  Biso   1.000  C
  C28      1.0000 0.49340  0.13570  0.09390  Biso   1.000  C
  H9       1.0000 0.48080  0.31870  0.52870  Biso   1.000  H
  H10      1.0000 0.51920  0.81870  0.97130  Biso   1.000  H
  H11      1.0000 0.51920  0.68130  0.47130  Biso   1.000  H
  H12      1.0000 0.48080  0.18130  0.02870  Biso   1.000  H
  C29      1.0000 0.41360  0.42060  0.57910  Biso   1.000  C
  C30      1.0000 0.58640  0.92060  0.92090  Biso   1.000  C
  C31      1.0000 0.58640  0.57940  0.42090  Biso   1.000  C
  C32      1.0000 0.41360  0.07940  0.07910  Biso   1.000  C
  H13      1.0000 0.34630  0.41190  0.50810  Biso   1.000  H
  H14      1.0000 0.65370  0.91190  0.99190  Biso   1.000  H
  H15      1.0000 0.65370  0.58810  0.49190  Biso   1.000  H
  H16      1.0000 0.34630  0.08810  0.00810  Biso   1.000  H
  C33      1.0000 0.64240  0.61760  0.94070  Biso   1.000  C
  C34      1.0000 0.35760  0.11760  0.55930  Biso   1.000  C
  C35      1.0000 0.35760  0.38240  0.05930  Biso   1.000  C
  C36      1.0000 0.64240  0.88240  0.44070  Biso   1.000  C
  O1       1.0000 0.42830  0.68550  0.82240  Biso   1.000  O
  O2       1.0000 0.57170  0.18550  0.67760  Biso   1.000  O
  O3       1.0000 0.57170  0.31450  0.17760  Biso   1.000  O
  O4       1.0000 0.42830  0.81450  0.32240  Biso   1.000  O
  C37      1.0000 0.74100  0.60640  0.90000  Biso   1.000  C
  C38      1.0000 0.25900  0.10640  0.60000  Biso   1.000  C
  C39      1.0000 0.25900  0.39360  0.10000  Biso   1.000  C
  C40      1.0000 0.74100  0.89360  0.40000  Biso   1.000  C
  H17      1.0000 0.74720  0.57210  0.81240  Biso   1.000  H
  H18      1.0000 0.25280  0.07210  0.68760  Biso   1.000  H
  H19      1.0000 0.25280  0.42790  0.18760  Biso   1.000  H
  H20      1.0000 0.74720  0.92790  0.31240  Biso   1.000  H
  C41      1.0000 0.83010  0.64620  0.98920  Biso   1.000  C
  C42      1.0000 0.16990  0.14620  0.51080  Biso   1.000  C
  C43      1.0000 0.16990  0.35380  0.01080  Biso   1.000  C
  C44      1.0000 0.83010  0.85380  0.48920  Biso   1.000  C
  H21      1.0000 0.89620  0.63800  0.96170  Biso   1.000  H
  H22      1.0000 0.10380  0.13800  0.53830  Biso   1.000  H
  H23      1.0000 0.10380  0.36200  0.03830  Biso   1.000  H
  H24      1.0000 0.89620  0.86200  0.46170  Biso   1.000  H
  C45      1.0000 0.82250  0.69830  0.11930  Biso   1.000  C
  C46      1.0000 0.17750  0.19830  0.38070  Biso   1.000  C
  C47      1.0000 0.17750  0.30170  0.88070  Biso   1.000  C
  C48      1.0000 0.82250  0.80170  0.61930  Biso   1.000  C
  H25      1.0000 0.88240  0.72620  0.17660  Biso   1.000  H
  H26      1.0000 0.11760  0.22620  0.32340  Biso   1.000  H
  H27      1.0000 0.11760  0.27380  0.82340  Biso   1.000  H
  H28      1.0000 0.88240  0.77380  0.67660  Biso   1.000  H
  C49      1.0000 0.72300  0.70820  0.16290  Biso   1.000  C
  C50      1.0000 0.27700  0.20820  0.33710  Biso   1.000  C
  C51      1.0000 0.27700  0.29180  0.83710  Biso   1.000  C
  C52      1.0000 0.72300  0.79180  0.66290  Biso   1.000  C
  H29      1.0000 0.71730  0.74180  0.25200  Biso   1.000  H
  H30      1.0000 0.28270  0.24180  0.24800  Biso   1.000  H
  H31      1.0000 0.28270  0.25820  0.74800  Biso   1.000  H
  H32      1.0000 0.71730  0.75820  0.75200  Biso   1.000  H
  C53      1.0000 0.63340  0.66840  0.07490  Biso   1.000  C
  C54      1.0000 0.36660  0.16840  0.42510  Biso   1.000  C
  C55      1.0000 0.36660  0.33160  0.92510  Biso   1.000  C
  C56      1.0000 0.63340  0.83160  0.57490  Biso   1.000  C
  H33      1.0000 0.56760  0.67530  0.10420  Biso   1.000  H
  H34      1.0000 0.43240  0.17530  0.39580  Biso   1.000  H
  H35      1.0000 0.43240  0.32470  0.89580  Biso   1.000  H
  H36      1.0000 0.56760  0.82470  0.60420  Biso   1.000  H
  N5       1.0000 0.27810  0.58530  0.62480  Biso   1.000  N
  N6       1.0000 0.72190  0.08530  0.87520  Biso   1.000  N
  N7       1.0000 0.72190  0.41470  0.37520  Biso   1.000  N
  N8       1.0000 0.27810  0.91470  0.12480  Biso   1.000  N
  C57      1.0000 0.19850  0.53570  0.52020  Biso   1.000  C
  C58      1.0000 0.80150  0.03570  0.97980  Biso   1.000  C
  C59      1.0000 0.80150  0.46430  0.47980  Biso   1.000  C
  C60      1.0000 0.19850  0.96430  0.02020  Biso   1.000  C
  C61      1.0000 0.17140  0.46470  0.58260  Biso   1.000  C
  C62      1.0000 0.82860  0.96470  0.91740  Biso   1.000  C
  C63      1.0000 0.82860  0.53530  0.41740  Biso   1.000  C
  C64      1.0000 0.17140  0.03530  0.08260  Biso   1.000  C
  H37      1.0000 0.20600  0.44750  0.69150  Biso   1.000  H
  H38      1.0000 0.79400  0.94750  0.80850  Biso   1.000  H
  H39      1.0000 0.79400  0.55250  0.30850  Biso   1.000  H
  H40      1.0000 0.20600  0.05250  0.19150  Biso   1.000  H
  C65      1.0000 0.09110  0.41900  0.47930  Biso   1.000  C
  C66      1.0000 0.90890  0.91900  0.02070  Biso   1.000  C
  C67      1.0000 0.90890  0.58100  0.52070  Biso   1.000  C
  C68      1.0000 0.09110  0.08100  0.97930  Biso   1.000  C
  H41      1.0000 0.07170  0.37140  0.51980  Biso   1.000  H
  H42      1.0000 0.92830  0.87140  0.98020  Biso   1.000  H
  H43      1.0000 0.92830  0.62860  0.48020  Biso   1.000  H
  H44      1.0000 0.07170  0.12860  0.01980  Biso   1.000  H
  C69      1.0000 0.04080  0.44490  0.31690  Biso   1.000  C
  C70      1.0000 0.95920  0.94490  0.18310  Biso   1.000  C
  C71      1.0000 0.95920  0.55510  0.68310  Biso   1.000  C
  C72      1.0000 0.04080  0.05510  0.81690  Biso   1.000  C
  H45      1.0000 0.98780  0.41440  0.24820  Biso   1.000  H
  H46      1.0000 0.01220  0.91440  0.25180  Biso   1.000  H
  H47      1.0000 0.01220  0.58560  0.75180  Biso   1.000  H
  H48      1.0000 0.98780  0.08560  0.74820  Biso   1.000  H
  C73      1.0000 0.06920  0.51640  0.25580  Biso   1.000  C
  C74      1.0000 0.93080  0.01640  0.24420  Biso   1.000  C
  C75      1.0000 0.93080  0.48360  0.74420  Biso   1.000  C
  C76      1.0000 0.06920  0.98360  0.75580  Biso   1.000  C
  H49      1.0000 0.03570  0.53300  0.14590  Biso   1.000  H
  H50      1.0000 0.96430  0.03300  0.35410  Biso   1.000  H
  H51      1.0000 0.96430  0.46700  0.85410  Biso   1.000  H
  H52      1.0000 0.03570  0.96700  0.64590  Biso   1.000  H
  C77      1.0000 0.14740  0.56320  0.35800  Biso   1.000  C
  C78      1.0000 0.85260  0.06320  0.14200  Biso   1.000  C
  C79      1.0000 0.85260  0.43680  0.64200  Biso   1.000  C
  C80      1.0000 0.14740  0.93680  0.85800  Biso   1.000  C
  H53      1.0000 0.16500  0.61160  0.31900  Biso   1.000  H
  H54      1.0000 0.83500  0.11160  0.18100  Biso   1.000  H
  H55      1.0000 0.83500  0.38840  0.68100  Biso   1.000  H
  H56      1.0000 0.16500  0.88840  0.81900  Biso   1.000  H
  Cu1      1.0000 0.23187  0.69125  0.68788  Biso   1.000  Cu
  Cu2      1.0000 0.76813  0.19125  0.81212  Biso   1.000  Cu
  Cu3      1.0000 0.76813  0.30875  0.31212  Biso   1.000  Cu
  Cu4      1.0000 0.23187  0.80875  0.18788  Biso   1.000  Cu
  I1       1.0000 0.15770  0.79333  0.45984  Biso   1.000  I
  I2       1.0000 0.84230  0.29333  0.04016  Biso   1.000  I
  I3       1.0000 0.84230  0.20667  0.54016  Biso   1.000  I
  I4       1.0000 0.15770  0.70667  0.95984  Biso   1.000  I
