data_image0
_cell_length_a       7.6585
_cell_length_b       12.102
_cell_length_c       7.7296
_cell_angle_alpha    90
_cell_angle_beta     102.598
_cell_angle_gamma    90

_symmetry_space_group_name_H-M    "P 1"
_symmetry_int_tables_number       1

loop_
  _symmetry_equiv_pos_as_xyz
  'x, y, z'

loop_
  _atom_site_label
  _atom_site_occupancy
  _atom_site_fract_x
  _atom_site_fract_y
  _atom_site_fract_z
  _atom_site_thermal_displace_type
  _atom_site_B_iso_or_equiv
  _atom_site_type_symbol
  C1       1.0000 0.74160  0.80221  0.08820  Biso   1.000  C
  C2       1.0000 0.75840  0.30221  0.41180  Biso   1.000  C
  C3       1.0000 0.25840  0.19779  0.91180  Biso   1.000  C
  C4       1.0000 0.24160  0.69779  0.58820  Biso   1.000  C
  H1       1.0000 0.84570  0.83890  0.05610  Biso   1.000  H
  H2       1.0000 0.65430  0.33890  0.44390  Biso   1.000  H
  H3       1.0000 0.15430  0.16110  0.94390  Biso   1.000  H
  H4       1.0000 0.34570  0.66110  0.55610  Biso   1.000  H
  H5       1.0000 0.66110  0.77600  0.97770  Biso   1.000  H
  H6       1.0000 0.83890  0.27600  0.52230  Biso   1.000  H
  H7       1.0000 0.33890  0.22400  0.02230  Biso   1.000  H
  H8       1.0000 0.16110  0.72400  0.47770  Biso   1.000  H
  C5       1.0000 0.57110  0.80273  0.35670  Biso   1.000  C
  C6       1.0000 0.92890  0.30273  0.14330  Biso   1.000  C
  C7       1.0000 0.42890  0.19727  0.64330  Biso   1.000  C
  C8       1.0000 0.07110  0.69727  0.85670  Biso   1.000  C
  H9       1.0000 0.53840  0.84270  0.45680  Biso   1.000  H
  H10      1.0000 0.96160  0.34270  0.04320  Biso   1.000  H
  H11      1.0000 0.46160  0.15730  0.54320  Biso   1.000  H
  H12      1.0000 0.03840  0.65730  0.95680  Biso   1.000  H
  H13      1.0000 0.46880  0.75570  0.29980  Biso   1.000  H
  H14      1.0000 0.03120  0.25570  0.20020  Biso   1.000  H
  H15      1.0000 0.53120  0.24430  0.70020  Biso   1.000  H
  H16      1.0000 0.96880  0.74430  0.79980  Biso   1.000  H
  C9       1.0000 0.73470  0.73271  0.42230  Biso   1.000  C
  C10      1.0000 0.76530  0.23271  0.07770  Biso   1.000  C
  C11      1.0000 0.26530  0.26729  0.57770  Biso   1.000  C
  C12      1.0000 0.23470  0.76729  0.92230  Biso   1.000  C
  H17      1.0000 0.70390  0.66860  0.48960  Biso   1.000  H
  H18      1.0000 0.79610  0.16860  0.01040  Biso   1.000  H
  H19      1.0000 0.29610  0.33140  0.51040  Biso   1.000  H
  H20      1.0000 0.20390  0.83140  0.98960  Biso   1.000  H
  H21      1.0000 0.82790  0.77660  0.50220  Biso   1.000  H
  H22      1.0000 0.67210  0.27660  0.99780  Biso   1.000  H
  H23      1.0000 0.17210  0.22340  0.49780  Biso   1.000  H
  H24      1.0000 0.32790  0.72340  0.00220  Biso   1.000  H
  Cu1      1.0000 0.66393  0.52168  0.13087  Biso   1.000  Cu
  Cu2      1.0000 0.83607  0.02168  0.36913  Biso   1.000  Cu
  Cu3      1.0000 0.33607  0.47832  0.86913  Biso   1.000  Cu
  Cu4      1.0000 0.16393  0.97832  0.63087  Biso   1.000  Cu
  I1       1.0000 0.35110  0.49475  0.21029  Biso   1.000  I
  I2       1.0000 0.14890  0.99475  0.28971  Biso   1.000  I
  I3       1.0000 0.64890  0.50525  0.78971  Biso   1.000  I
  I4       1.0000 0.85110  0.00525  0.71029  Biso   1.000  I
  S1       1.0000 0.62423  0.89952  0.19843  Biso   1.000  S
  S2       1.0000 0.87577  0.39952  0.30157  Biso   1.000  S
  S3       1.0000 0.37577  0.10048  0.80157  Biso   1.000  S
  S4       1.0000 0.12423  0.60048  0.69843  Biso   1.000  S
  S5       1.0000 0.81738  0.68534  0.23285  Biso   1.000  S
  S6       1.0000 0.68262  0.18534  0.26715  Biso   1.000  S
  S7       1.0000 0.18262  0.31466  0.76715  Biso   1.000  S
  S8       1.0000 0.31738  0.81466  0.73285  Biso   1.000  S
