data_image0
_cell_length_a       7.5191
_cell_length_b       12.1042
_cell_length_c       7.716
_cell_angle_alpha    90
_cell_angle_beta     102.861
_cell_angle_gamma    90

_symmetry_space_group_name_H-M    "P 1"
_symmetry_int_tables_number       1

loop_
  _symmetry_equiv_pos_as_xyz
  'x, y, z'

loop_
  _atom_site_label
  _atom_site_occupancy
  _atom_site_fract_x
  _atom_site_fract_y
  _atom_site_fract_z
  _atom_site_thermal_displace_type
  _atom_site_B_iso_or_equiv
  _atom_site_type_symbol
  C1       1.0000 0.25310  0.80216  0.91280  Biso   1.000  C
  C2       1.0000 0.24690  0.30216  0.58720  Biso   1.000  C
  C3       1.0000 0.74690  0.19784  0.08720  Biso   1.000  C
  C4       1.0000 0.75310  0.69784  0.41280  Biso   1.000  C
  H1       1.0000 0.14590  0.83920  0.94170  Biso   1.000  H
  H2       1.0000 0.35410  0.33920  0.55830  Biso   1.000  H
  H3       1.0000 0.85410  0.16080  0.05830  Biso   1.000  H
  H4       1.0000 0.64590  0.66080  0.44170  Biso   1.000  H
  H5       1.0000 0.33300  0.77620  0.02520  Biso   1.000  H
  H6       1.0000 0.16700  0.27620  0.47480  Biso   1.000  H
  H7       1.0000 0.66700  0.22380  0.97480  Biso   1.000  H
  H8       1.0000 0.83300  0.72380  0.52520  Biso   1.000  H
  C5       1.0000 0.42990  0.80187  0.64340  Biso   1.000  C
  C6       1.0000 0.07010  0.30187  0.85660  Biso   1.000  C
  C7       1.0000 0.57010  0.19813  0.35660  Biso   1.000  C
  C8       1.0000 0.92990  0.69813  0.14340  Biso   1.000  C
  H9       1.0000 0.46400  0.84190  0.54370  Biso   1.000  H
  H10      1.0000 0.03600  0.34190  0.95630  Biso   1.000  H
  H11      1.0000 0.53600  0.15810  0.45630  Biso   1.000  H
  H12      1.0000 0.96400  0.65810  0.04370  Biso   1.000  H
  H13      1.0000 0.53330  0.75410  0.70040  Biso   1.000  H
  H14      1.0000 0.96670  0.25410  0.79960  Biso   1.000  H
  H15      1.0000 0.46670  0.24590  0.29960  Biso   1.000  H
  H16      1.0000 0.03330  0.74590  0.20040  Biso   1.000  H
  C9       1.0000 0.26100  0.73280  0.57580  Biso   1.000  C
  C10      1.0000 0.23900  0.23280  0.92420  Biso   1.000  C
  C11      1.0000 0.73900  0.26720  0.42420  Biso   1.000  C
  C12      1.0000 0.76100  0.76720  0.07580  Biso   1.000  C
  H17      1.0000 0.29070  0.66910  0.50680  Biso   1.000  H
  H18      1.0000 0.20930  0.16910  0.99320  Biso   1.000  H
  H19      1.0000 0.70930  0.33090  0.49320  Biso   1.000  H
  H20      1.0000 0.79070  0.83090  0.00680  Biso   1.000  H
  H21      1.0000 0.16610  0.77770  0.49710  Biso   1.000  H
  H22      1.0000 0.33390  0.27770  0.00290  Biso   1.000  H
  H23      1.0000 0.83390  0.22230  0.50290  Biso   1.000  H
  H24      1.0000 0.66610  0.72230  0.99710  Biso   1.000  H
  Cu1      1.0000 0.33550  0.52179  0.86893  Biso   1.000  Cu
  Cu2      1.0000 0.16450  0.02179  0.63107  Biso   1.000  Cu
  Cu3      1.0000 0.66450  0.47821  0.13107  Biso   1.000  Cu
  Cu4      1.0000 0.83550  0.97821  0.36893  Biso   1.000  Cu
  I1       1.0000 0.65340  0.49598  0.78971  Biso   1.000  I
  I2       1.0000 0.84660  0.99598  0.71029  Biso   1.000  I
  I3       1.0000 0.34660  0.50402  0.21029  Biso   1.000  I
  I4       1.0000 0.15340  0.00402  0.28971  Biso   1.000  I
  S1       1.0000 0.17776  0.68424  0.76657  Biso   1.000  S
  S2       1.0000 0.32224  0.18424  0.73343  Biso   1.000  S
  S3       1.0000 0.82224  0.31576  0.23343  Biso   1.000  S
  S4       1.0000 0.67776  0.81576  0.26657  Biso   1.000  S
  S5       1.0000 0.37661  0.89913  0.80372  Biso   1.000  S
  S6       1.0000 0.12339  0.39913  0.69628  Biso   1.000  S
  S7       1.0000 0.62339  0.10087  0.19628  Biso   1.000  S
  S8       1.0000 0.87661  0.60087  0.30372  Biso   1.000  S
