data_image0
_cell_length_a       5.2755
_cell_length_b       15.4282
_cell_length_c       8.2805
_cell_angle_alpha    90
_cell_angle_beta     92.496
_cell_angle_gamma    90

_symmetry_space_group_name_H-M    "P 1"
_symmetry_int_tables_number       1

loop_
  _symmetry_equiv_pos_as_xyz
  'x, y, z'

loop_
  _atom_site_label
  _atom_site_occupancy
  _atom_site_fract_x
  _atom_site_fract_y
  _atom_site_fract_z
  _atom_site_thermal_displace_type
  _atom_site_B_iso_or_equiv
  _atom_site_type_symbol
  Cu1      1.0000 0.40669  0.50000  0.20379  Biso   1.000  Cu
  Cu2      1.0000 0.59331  0.50000  0.79621  Biso   1.000  Cu
  Cu3      1.0000 0.50000  0.16177  0.50000  Biso   1.000  Cu
  Cu4      1.0000 0.50000  0.83823  0.50000  Biso   1.000  Cu
  C1       1.0000 0.35640  0.31203  0.08280  Biso   1.000  C
  C2       1.0000 0.64360  0.31203  0.91720  Biso   1.000  C
  C3       1.0000 0.64360  0.68797  0.91720  Biso   1.000  C
  C4       1.0000 0.35640  0.68797  0.08280  Biso   1.000  C
  C5       1.0000 0.15590  0.28151  0.18550  Biso   1.000  C
  C6       1.0000 0.84410  0.28151  0.81450  Biso   1.000  C
  C7       1.0000 0.84410  0.71849  0.81450  Biso   1.000  C
  C8       1.0000 0.15590  0.71849  0.18550  Biso   1.000  C
  C9       1.0000 0.98700  0.33604  0.26000  Biso   1.000  C
  C10      1.0000 0.01300  0.33604  0.74000  Biso   1.000  C
  C11      1.0000 0.01300  0.66396  0.74000  Biso   1.000  C
  C12      1.0000 0.98700  0.66396  0.26000  Biso   1.000  C
  H1       1.0000 0.00160  0.39580  0.24920  Biso   1.000  H
  H2       1.0000 0.99840  0.39580  0.75080  Biso   1.000  H
  H3       1.0000 0.99840  0.60420  0.75080  Biso   1.000  H
  H4       1.0000 0.00160  0.60420  0.24920  Biso   1.000  H
  C13      1.0000 0.79820  0.30154  0.34950  Biso   1.000  C
  C14      1.0000 0.20180  0.30154  0.65050  Biso   1.000  C
  C15      1.0000 0.20180  0.69846  0.65050  Biso   1.000  C
  C16      1.0000 0.79820  0.69846  0.34950  Biso   1.000  C
  H5       1.0000 0.68890  0.33930  0.39950  Biso   1.000  H
  H6       1.0000 0.31110  0.33930  0.60050  Biso   1.000  H
  H7       1.0000 0.31110  0.66070  0.60050  Biso   1.000  H
  H8       1.0000 0.68890  0.66070  0.39950  Biso   1.000  H
  C17      1.0000 0.92670  0.16338  0.29610  Biso   1.000  C
  C18      1.0000 0.07330  0.16338  0.70390  Biso   1.000  C
  C19      1.0000 0.07330  0.83662  0.70390  Biso   1.000  C
  C20      1.0000 0.92670  0.83662  0.29610  Biso   1.000  C
  H9       1.0000 0.90660  0.10380  0.30750  Biso   1.000  H
  H10      1.0000 0.09340  0.10380  0.69250  Biso   1.000  H
  H11      1.0000 0.09340  0.89620  0.69250  Biso   1.000  H
  H12      1.0000 0.90660  0.89620  0.30750  Biso   1.000  H
  C21      1.0000 0.12200  0.19260  0.20600  Biso   1.000  C
  C22      1.0000 0.87800  0.19260  0.79400  Biso   1.000  C
  C23      1.0000 0.87800  0.80740  0.79400  Biso   1.000  C
  C24      1.0000 0.12200  0.80740  0.20600  Biso   1.000  C
  H13      1.0000 0.23060  0.15340  0.15900  Biso   1.000  H
  H14      1.0000 0.76940  0.15340  0.84100  Biso   1.000  H
  H15      1.0000 0.76940  0.84660  0.84100  Biso   1.000  H
  H16      1.0000 0.23060  0.84660  0.15900  Biso   1.000  H
  N1       1.0000 0.47280  0.50000  0.43100  Biso   1.000  N
  N2       1.0000 0.52720  0.50000  0.56900  Biso   1.000  N
  N3       1.0000 0.40720  0.39633  0.05580  Biso   1.000  N
  N4       1.0000 0.59280  0.39633  0.94420  Biso   1.000  N
  N5       1.0000 0.59280  0.60367  0.94420  Biso   1.000  N
  N6       1.0000 0.40720  0.60367  0.05580  Biso   1.000  N
  N7       1.0000 0.50000  0.25767  0.00000  Biso   1.000  N
  N8       1.0000 0.50000  0.74233  0.00000  Biso   1.000  N
  N9       1.0000 0.76360  0.21569  0.36840  Biso   1.000  N
  N10      1.0000 0.23640  0.21569  0.63160  Biso   1.000  N
  N11      1.0000 0.23640  0.78431  0.63160  Biso   1.000  N
  N12      1.0000 0.76360  0.78431  0.36840  Biso   1.000  N
  N13      1.0000 0.50000  0.03760  0.50000  Biso   1.000  N
  N14      1.0000 0.50000  0.96240  0.50000  Biso   1.000  N
