data_image0
_cell_length_a       10.113
_cell_length_b       19.628
_cell_length_c       34.4168
_cell_angle_alpha    90
_cell_angle_beta     92.38
_cell_angle_gamma    90

_symmetry_space_group_name_H-M    "P 1"
_symmetry_int_tables_number       1

loop_
  _symmetry_equiv_pos_as_xyz
  'x, y, z'

loop_
  _atom_site_label
  _atom_site_occupancy
  _atom_site_fract_x
  _atom_site_fract_y
  _atom_site_fract_z
  _atom_site_thermal_displace_type
  _atom_site_B_iso_or_equiv
  _atom_site_type_symbol
  Ce1      1.0000 0.24660  0.16828  0.01702  Biso   1.000  Ce
  Ce2      1.0000 0.75340  0.66828  0.48298  Biso   1.000  Ce
  Ce3      1.0000 0.75340  0.83172  0.98298  Biso   1.000  Ce
  Ce4      1.0000 0.24660  0.33172  0.51702  Biso   1.000  Ce
  Ce5      1.0000 0.70334  0.14382  0.02685  Biso   1.000  Ce
  Ce6      1.0000 0.29666  0.64382  0.47315  Biso   1.000  Ce
  Ce7      1.0000 0.29666  0.85618  0.97315  Biso   1.000  Ce
  Ce8      1.0000 0.70334  0.35618  0.52685  Biso   1.000  Ce
  Ce9      1.0000 0.77353  0.48733  0.99324  Biso   1.000  Ce
  Ce10     1.0000 0.22647  0.98733  0.50676  Biso   1.000  Ce
  Ce11     1.0000 0.22647  0.51267  0.00676  Biso   1.000  Ce
  Ce12     1.0000 0.77353  0.01267  0.49324  Biso   1.000  Ce
  Cu1      1.0000 0.38100  0.02086  0.25677  Biso   1.000  Cu
  Cu2      1.0000 0.61900  0.52086  0.24323  Biso   1.000  Cu
  Cu3      1.0000 0.61900  0.97914  0.74323  Biso   1.000  Cu
  Cu4      1.0000 0.38100  0.47914  0.75677  Biso   1.000  Cu
  Cu5      1.0000 0.16350  0.15685  0.26457  Biso   1.000  Cu
  Cu6      1.0000 0.83650  0.65685  0.23543  Biso   1.000  Cu
  Cu7      1.0000 0.83650  0.84315  0.73543  Biso   1.000  Cu
  Cu8      1.0000 0.16350  0.34315  0.76457  Biso   1.000  Cu
  Cu9      1.0000 0.10180  0.17320  0.26460  Biso   1.000  Cu
  Cu10     1.0000 0.89820  0.67320  0.23540  Biso   1.000  Cu
  Cu11     1.0000 0.89820  0.82680  0.73540  Biso   1.000  Cu
  Cu12     1.0000 0.10180  0.32680  0.76460  Biso   1.000  Cu
  Cu13     1.0000 0.11416  0.06960  0.77428  Biso   1.000  Cu
  Cu14     1.0000 0.88584  0.56960  0.72572  Biso   1.000  Cu
  Cu15     1.0000 0.88584  0.93040  0.22572  Biso   1.000  Cu
  Cu16     1.0000 0.11416  0.43040  0.27428  Biso   1.000  Cu
  Cu17     1.0000 0.38961  0.41089  0.23322  Biso   1.000  Cu
  Cu18     1.0000 0.61039  0.91089  0.26678  Biso   1.000  Cu
  Cu19     1.0000 0.61039  0.58911  0.76678  Biso   1.000  Cu
  Cu20     1.0000 0.38961  0.08911  0.73322  Biso   1.000  Cu
  Cu21     1.0000 0.36430  0.28712  0.26963  Biso   1.000  Cu
  Cu22     1.0000 0.63570  0.78712  0.23037  Biso   1.000  Cu
  Cu23     1.0000 0.63570  0.71288  0.73037  Biso   1.000  Cu
  Cu24     1.0000 0.36430  0.21288  0.76963  Biso   1.000  Cu
  Cu25     1.0000 0.78129  0.15898  0.78121  Biso   1.000  Cu
  Cu26     1.0000 0.21871  0.65898  0.71879  Biso   1.000  Cu
  Cu27     1.0000 0.21871  0.84102  0.21879  Biso   1.000  Cu
  Cu28     1.0000 0.78129  0.34102  0.28121  Biso   1.000  Cu
  Cu29     1.0000 0.87320  0.20765  0.71332  Biso   1.000  Cu
  Cu30     1.0000 0.12680  0.70765  0.78668  Biso   1.000  Cu
  Cu31     1.0000 0.12680  0.79235  0.28668  Biso   1.000  Cu
  Cu32     1.0000 0.87320  0.29235  0.21332  Biso   1.000  Cu
  Br1      1.0000 0.42219  0.17263  0.26460  Biso   1.000  Br
  Br2      1.0000 0.57781  0.67263  0.23540  Biso   1.000  Br
  Br3      1.0000 0.57781  0.82737  0.73540  Biso   1.000  Br
  Br4      1.0000 0.42219  0.32737  0.76460  Biso   1.000  Br
  Br5      1.0000 0.14337  0.19239  0.75779  Biso   1.000  Br
  Br6      1.0000 0.85663  0.69239  0.74221  Biso   1.000  Br
  Br7      1.0000 0.85663  0.80761  0.24221  Biso   1.000  Br
  Br8      1.0000 0.14337  0.30761  0.25779  Biso   1.000  Br
  Br9      1.0000 0.52634  0.36921  0.28595  Biso   1.000  Br
  Br10     1.0000 0.47366  0.86921  0.21405  Biso   1.000  Br
  Br11     1.0000 0.47366  0.63079  0.71405  Biso   1.000  Br
  Br12     1.0000 0.52634  0.13079  0.78595  Biso   1.000  Br
  Br13     1.0000 0.23792  0.99849  0.73034  Biso   1.000  Br
  Br14     1.0000 0.76208  0.49849  0.76966  Biso   1.000  Br
  Br15     1.0000 0.76208  0.00151  0.26966  Biso   1.000  Br
  Br16     1.0000 0.23792  0.50151  0.23034  Biso   1.000  Br
  Br17     1.0000 0.87088  0.05533  0.75271  Biso   1.000  Br
  Br18     1.0000 0.12912  0.55533  0.74729  Biso   1.000  Br
  Br19     1.0000 0.12912  0.94467  0.24729  Biso   1.000  Br
  Br20     1.0000 0.87088  0.44467  0.25271  Biso   1.000  Br
  Br21     1.0000 0.78148  0.27603  0.75629  Biso   1.000  Br
  Br22     1.0000 0.21852  0.77603  0.74371  Biso   1.000  Br
  Br23     1.0000 0.21852  0.72397  0.24371  Biso   1.000  Br
  Br24     1.0000 0.78148  0.22397  0.25629  Biso   1.000  Br
  C1       1.0000 0.46710  0.07540  0.08200  Biso   1.000  C
  C2       1.0000 0.53290  0.57540  0.41800  Biso   1.000  C
  C3       1.0000 0.53290  0.92460  0.91800  Biso   1.000  C
  C4       1.0000 0.46710  0.42460  0.58200  Biso   1.000  C
  C5       1.0000 0.44510  0.06210  0.12380  Biso   1.000  C
  C6       1.0000 0.55490  0.56210  0.37620  Biso   1.000  C
  C7       1.0000 0.55490  0.93790  0.87620  Biso   1.000  C
  C8       1.0000 0.44510  0.43790  0.62380  Biso   1.000  C
  C9       1.0000 0.32260  0.04420  0.13670  Biso   1.000  C
  C10      1.0000 0.67740  0.54420  0.36330  Biso   1.000  C
  C11      1.0000 0.67740  0.95580  0.86330  Biso   1.000  C
  C12      1.0000 0.32260  0.45580  0.63670  Biso   1.000  C
  H1       1.0000 0.25090  0.04020  0.11900  Biso   1.000  H
  H2       1.0000 0.74910  0.54020  0.38100  Biso   1.000  H
  H3       1.0000 0.74910  0.95980  0.88100  Biso   1.000  H
  H4       1.0000 0.25090  0.45980  0.61900  Biso   1.000  H
  C13      1.0000 0.30610  0.03210  0.17550  Biso   1.000  C
  C14      1.0000 0.69390  0.53210  0.32450  Biso   1.000  C
  C15      1.0000 0.69390  0.96790  0.82450  Biso   1.000  C
  C16      1.0000 0.30610  0.46790  0.67550  Biso   1.000  C
  H5       1.0000 0.22320  0.01870  0.18340  Biso   1.000  H
  H6       1.0000 0.77680  0.51870  0.31660  Biso   1.000  H
  H7       1.0000 0.77680  0.98130  0.81660  Biso   1.000  H
  H8       1.0000 0.22320  0.48130  0.68340  Biso   1.000  H
  C17      1.0000 0.52220  0.05890  0.19010  Biso   1.000  C
  C18      1.0000 0.47780  0.55890  0.30990  Biso   1.000  C
  C19      1.0000 0.47780  0.94110  0.80990  Biso   1.000  C
  C20      1.0000 0.52220  0.44110  0.69010  Biso   1.000  C
  H9       1.0000 0.59010  0.06660  0.20860  Biso   1.000  H
  H10      1.0000 0.40990  0.56660  0.29140  Biso   1.000  H
  H11      1.0000 0.40990  0.93340  0.79140  Biso   1.000  H
  H12      1.0000 0.59010  0.43340  0.70860  Biso   1.000  H
  C21      1.0000 0.54760  0.06820  0.15170  Biso   1.000  C
  C22      1.0000 0.45240  0.56820  0.34830  Biso   1.000  C
  C23      1.0000 0.45240  0.93180  0.84830  Biso   1.000  C
  C24      1.0000 0.54760  0.43180  0.65170  Biso   1.000  C
  H13      1.0000 0.63270  0.07870  0.14430  Biso   1.000  H
  H14      1.0000 0.36730  0.57870  0.35570  Biso   1.000  H
  H15      1.0000 0.36730  0.92130  0.85570  Biso   1.000  H
  H16      1.0000 0.63270  0.42130  0.64430  Biso   1.000  H
  C25      1.0000 0.99430  0.17180  0.08710  Biso   1.000  C
  C26      1.0000 0.00570  0.67180  0.41290  Biso   1.000  C
  C27      1.0000 0.00570  0.82820  0.91290  Biso   1.000  C
  C28      1.0000 0.99430  0.32820  0.58710  Biso   1.000  C
  C29      1.0000 0.03270  0.16790  0.13040  Biso   1.000  C
  C30      1.0000 0.96730  0.66790  0.36960  Biso   1.000  C
  C31      1.0000 0.96730  0.83210  0.86960  Biso   1.000  C
  C32      1.0000 0.03270  0.33210  0.63040  Biso   1.000  C
  C33      1.0000 0.95140  0.13820  0.15630  Biso   1.000  C
  C34      1.0000 0.04860  0.63820  0.34370  Biso   1.000  C
  C35      1.0000 0.04860  0.86180  0.84370  Biso   1.000  C
  C36      1.0000 0.95140  0.36180  0.65630  Biso   1.000  C
  H17      1.0000 0.86870  0.12190  0.14800  Biso   1.000  H
  H18      1.0000 0.13130  0.62190  0.35200  Biso   1.000  H
  H19      1.0000 0.13130  0.87810  0.85200  Biso   1.000  H
  H20      1.0000 0.86870  0.37810  0.64800  Biso   1.000  H
  C37      1.0000 0.99350  0.13260  0.19510  Biso   1.000  C
  C38      1.0000 0.00650  0.63260  0.30490  Biso   1.000  C
  C39      1.0000 0.00650  0.86740  0.80490  Biso   1.000  C
  C40      1.0000 0.99350  0.36740  0.69510  Biso   1.000  C
  H21      1.0000 0.93910  0.11040  0.21220  Biso   1.000  H
  H22      1.0000 0.06090  0.61040  0.28780  Biso   1.000  H
  H23      1.0000 0.06090  0.88960  0.78780  Biso   1.000  H
  H24      1.0000 0.93910  0.38960  0.71220  Biso   1.000  H
  C41      1.0000 0.18410  0.18780  0.18380  Biso   1.000  C
  C42      1.0000 0.81590  0.68780  0.31620  Biso   1.000  C
  C43      1.0000 0.81590  0.81220  0.81620  Biso   1.000  C
  C44      1.0000 0.18410  0.31220  0.68380  Biso   1.000  C
  H25      1.0000 0.26320  0.20680  0.19330  Biso   1.000  H
  H26      1.0000 0.73680  0.70680  0.30670  Biso   1.000  H
  H27      1.0000 0.73680  0.79320  0.80670  Biso   1.000  H
  H28      1.0000 0.26320  0.29320  0.69330  Biso   1.000  H
  C45      1.0000 0.15400  0.19320  0.14420  Biso   1.000  C
  C46      1.0000 0.84600  0.69320  0.35580  Biso   1.000  C
  C47      1.0000 0.84600  0.80680  0.85580  Biso   1.000  C
  C48      1.0000 0.15400  0.30680  0.64420  Biso   1.000  C
  H29      1.0000 0.21290  0.21310  0.12750  Biso   1.000  H
  H30      1.0000 0.78710  0.71310  0.37250  Biso   1.000  H
  H31      1.0000 0.78710  0.78690  0.87250  Biso   1.000  H
  H32      1.0000 0.21290  0.28690  0.62750  Biso   1.000  H
  C49      1.0000 0.23630  0.02900  0.95360  Biso   1.000  C
  C50      1.0000 0.76370  0.52900  0.54640  Biso   1.000  C
  C51      1.0000 0.76370  0.97100  0.04640  Biso   1.000  C
  C52      1.0000 0.23630  0.47100  0.45360  Biso   1.000  C
  C53      1.0000 0.20630  0.04220  0.91110  Biso   1.000  C
  C54      1.0000 0.79370  0.54220  0.58890  Biso   1.000  C
  C55      1.0000 0.79370  0.95780  0.08890  Biso   1.000  C
  C56      1.0000 0.20630  0.45780  0.41110  Biso   1.000  C
  C57      1.0000 0.09360  0.01560  0.89330  Biso   1.000  C
  C58      1.0000 0.90640  0.51560  0.60670  Biso   1.000  C
  C59      1.0000 0.90640  0.98440  0.10670  Biso   1.000  C
  C60      1.0000 0.09360  0.48440  0.39330  Biso   1.000  C
  H33      1.0000 0.03520  0.99000  0.90750  Biso   1.000  H
  H34      1.0000 0.96480  0.49000  0.59250  Biso   1.000  H
  H35      1.0000 0.96480  0.01000  0.09250  Biso   1.000  H
  H36      1.0000 0.03520  0.51000  0.40750  Biso   1.000  H
  C61      1.0000 0.06710  0.02700  0.85370  Biso   1.000  C
  C62      1.0000 0.93290  0.52700  0.64630  Biso   1.000  C
  C63      1.0000 0.93290  0.97300  0.14630  Biso   1.000  C
  C64      1.0000 0.06710  0.47300  0.35370  Biso   1.000  C
  H37      1.0000 0.98950  0.00940  0.84220  Biso   1.000  H
  H38      1.0000 0.01050  0.50940  0.65780  Biso   1.000  H
  H39      1.0000 0.01050  0.99060  0.15780  Biso   1.000  H
  H40      1.0000 0.98950  0.49060  0.34220  Biso   1.000  H
  C65      1.0000 0.25620  0.08910  0.84930  Biso   1.000  C
  C66      1.0000 0.74380  0.58910  0.65070  Biso   1.000  C
  C67      1.0000 0.74380  0.91090  0.15070  Biso   1.000  C
  C68      1.0000 0.25620  0.41090  0.34930  Biso   1.000  C
  H41      1.0000 0.31220  0.11530  0.83460  Biso   1.000  H
  H42      1.0000 0.68780  0.61530  0.66540  Biso   1.000  H
  H43      1.0000 0.68780  0.88470  0.16540  Biso   1.000  H
  H44      1.0000 0.31220  0.38470  0.33460  Biso   1.000  H
  C69      1.0000 0.28780  0.07990  0.88840  Biso   1.000  C
  C70      1.0000 0.71220  0.57990  0.61160  Biso   1.000  C
  C71      1.0000 0.71220  0.92010  0.11160  Biso   1.000  C
  C72      1.0000 0.28780  0.42010  0.38840  Biso   1.000  C
  H45      1.0000 0.36450  0.09930  0.89940  Biso   1.000  H
  H46      1.0000 0.63550  0.59930  0.60060  Biso   1.000  H
  H47      1.0000 0.63550  0.90070  0.10060  Biso   1.000  H
  H48      1.0000 0.36450  0.40070  0.39940  Biso   1.000  H
  C73      1.0000 0.48340  0.24470  0.08110  Biso   1.000  C
  C74      1.0000 0.51660  0.74470  0.41890  Biso   1.000  C
  C75      1.0000 0.51660  0.75530  0.91890  Biso   1.000  C
  C76      1.0000 0.48340  0.25530  0.58110  Biso   1.000  C
  C77      1.0000 0.46930  0.28720  0.11690  Biso   1.000  C
  C78      1.0000 0.53070  0.78720  0.38310  Biso   1.000  C
  C79      1.0000 0.53070  0.71280  0.88310  Biso   1.000  C
  C80      1.0000 0.46930  0.21280  0.61690  Biso   1.000  C
  C81      1.0000 0.53270  0.26790  0.15170  Biso   1.000  C
  C82      1.0000 0.46730  0.76790  0.34830  Biso   1.000  C
  C83      1.0000 0.46730  0.73210  0.84830  Biso   1.000  C
  C84      1.0000 0.53270  0.23210  0.65170  Biso   1.000  C
  H49      1.0000 0.58750  0.22980  0.15270  Biso   1.000  H
  H50      1.0000 0.41250  0.72980  0.34730  Biso   1.000  H
  H51      1.0000 0.41250  0.77020  0.84730  Biso   1.000  H
  H52      1.0000 0.58750  0.27020  0.65270  Biso   1.000  H
  C85      1.0000 0.51320  0.30590  0.18460  Biso   1.000  C
  C86      1.0000 0.48680  0.80590  0.31540  Biso   1.000  C
  C87      1.0000 0.48680  0.69410  0.81540  Biso   1.000  C
  C88      1.0000 0.51320  0.19410  0.68460  Biso   1.000  C
  H53      1.0000 0.55700  0.29300  0.20770  Biso   1.000  H
  H54      1.0000 0.44300  0.79300  0.29230  Biso   1.000  H
  H55      1.0000 0.44300  0.70700  0.79230  Biso   1.000  H
  H56      1.0000 0.55700  0.20700  0.70770  Biso   1.000  H
  C89      1.0000 0.37710  0.37990  0.15070  Biso   1.000  C
  C90      1.0000 0.62290  0.87990  0.34930  Biso   1.000  C
  C91      1.0000 0.62290  0.62010  0.84930  Biso   1.000  C
  C92      1.0000 0.37710  0.12010  0.65070  Biso   1.000  C
  H57      1.0000 0.32690  0.41970  0.15000  Biso   1.000  H
  H58      1.0000 0.67310  0.91970  0.35000  Biso   1.000  H
  H59      1.0000 0.67310  0.58030  0.85000  Biso   1.000  H
  H60      1.0000 0.32690  0.08030  0.65000  Biso   1.000  H
  C93      1.0000 0.38940  0.34340  0.11660  Biso   1.000  C
  C94      1.0000 0.61060  0.84340  0.38340  Biso   1.000  C
  C95      1.0000 0.61060  0.65660  0.88340  Biso   1.000  C
  C96      1.0000 0.38940  0.15660  0.61660  Biso   1.000  C
  H61      1.0000 0.34410  0.35690  0.09380  Biso   1.000  H
  H62      1.0000 0.65590  0.85690  0.40620  Biso   1.000  H
  H63      1.0000 0.65590  0.64310  0.90620  Biso   1.000  H
  H64      1.0000 0.34410  0.14310  0.59380  Biso   1.000  H
  C97      1.0000 0.95680  0.14940  0.95890  Biso   1.000  C
  C98      1.0000 0.04320  0.64940  0.54110  Biso   1.000  C
  C99      1.0000 0.04320  0.85060  0.04110  Biso   1.000  C
  C100     1.0000 0.95680  0.35060  0.45890  Biso   1.000  C
  C101     1.0000 0.91260  0.15580  0.91720  Biso   1.000  C
  C102     1.0000 0.08740  0.65580  0.58280  Biso   1.000  C
  C103     1.0000 0.08740  0.84420  0.08280  Biso   1.000  C
  C104     1.0000 0.91260  0.34420  0.41720  Biso   1.000  C
  C105     1.0000 0.79340  0.12690  0.90390  Biso   1.000  C
  C106     1.0000 0.20660  0.62690  0.59610  Biso   1.000  C
  C107     1.0000 0.20660  0.87310  0.09610  Biso   1.000  C
  C108     1.0000 0.79340  0.37310  0.40390  Biso   1.000  C
  H65      1.0000 0.73760  0.10610  0.92110  Biso   1.000  H
  H66      1.0000 0.26240  0.60610  0.57890  Biso   1.000  H
  H67      1.0000 0.26240  0.89390  0.07890  Biso   1.000  H
  H68      1.0000 0.73760  0.39390  0.42110  Biso   1.000  H
  C109     1.0000 0.76030  0.12980  0.86520  Biso   1.000  C
  C110     1.0000 0.23970  0.62980  0.63480  Biso   1.000  C
  C111     1.0000 0.23970  0.87020  0.13480  Biso   1.000  C
  C112     1.0000 0.76030  0.37020  0.36520  Biso   1.000  C
  H69      1.0000 0.68220  0.10900  0.85640  Biso   1.000  H
  H70      1.0000 0.31780  0.60900  0.64360  Biso   1.000  H
  H71      1.0000 0.31780  0.89100  0.14360  Biso   1.000  H
  H72      1.0000 0.68220  0.39100  0.35640  Biso   1.000  H
  C113     1.0000 0.94890  0.19110  0.85190  Biso   1.000  C
  C114     1.0000 0.05110  0.69110  0.64810  Biso   1.000  C
  C115     1.0000 0.05110  0.80890  0.14810  Biso   1.000  C
  C116     1.0000 0.94890  0.30890  0.35190  Biso   1.000  C
  H73      1.0000 0.00080  0.21340  0.83420  Biso   1.000  H
  H74      1.0000 0.99920  0.71340  0.66580  Biso   1.000  H
  H75      1.0000 0.99920  0.78660  0.16580  Biso   1.000  H
  H76      1.0000 0.00080  0.28660  0.33420  Biso   1.000  H
  C117     1.0000 0.99120  0.18950  0.89070  Biso   1.000  C
  C118     1.0000 0.00880  0.68950  0.60930  Biso   1.000  C
  C119     1.0000 0.00880  0.81050  0.10930  Biso   1.000  C
  C120     1.0000 0.99120  0.31050  0.39070  Biso   1.000  C
  H77      1.0000 0.07010  0.21030  0.89900  Biso   1.000  H
  H78      1.0000 0.92990  0.71030  0.60100  Biso   1.000  H
  H79      1.0000 0.92990  0.78970  0.10100  Biso   1.000  H
  H80      1.0000 0.07010  0.28970  0.39900  Biso   1.000  H
  C121     1.0000 0.52810  0.49850  0.06410  Biso   1.000  C
  C122     1.0000 0.47190  0.99850  0.43590  Biso   1.000  C
  C123     1.0000 0.47190  0.50150  0.93590  Biso   1.000  C
  C124     1.0000 0.52810  0.00150  0.56410  Biso   1.000  C
  C125     1.0000 0.55860  0.50680  0.10720  Biso   1.000  C
  C126     1.0000 0.44140  0.00680  0.39280  Biso   1.000  C
  C127     1.0000 0.44140  0.49320  0.89280  Biso   1.000  C
  C128     1.0000 0.55860  0.99320  0.60720  Biso   1.000  C
  C129     1.0000 0.66110  0.47260  0.12540  Biso   1.000  C
  C130     1.0000 0.33890  0.97260  0.37460  Biso   1.000  C
  C131     1.0000 0.33890  0.52740  0.87460  Biso   1.000  C
  C132     1.0000 0.66110  0.02740  0.62540  Biso   1.000  C
  H81      1.0000 0.71830  0.44620  0.11120  Biso   1.000  H
  H82      1.0000 0.28170  0.94620  0.38880  Biso   1.000  H
  H83      1.0000 0.28170  0.55380  0.88880  Biso   1.000  H
  H84      1.0000 0.71830  0.05380  0.61120  Biso   1.000  H
  C133     1.0000 0.67830  0.47810  0.16620  Biso   1.000  C
  C134     1.0000 0.32170  0.97810  0.33380  Biso   1.000  C
  C135     1.0000 0.32170  0.52190  0.83380  Biso   1.000  C
  C136     1.0000 0.67830  0.02190  0.66620  Biso   1.000  C
  H85      1.0000 0.74740  0.45420  0.17860  Biso   1.000  H
  H86      1.0000 0.25260  0.95420  0.32140  Biso   1.000  H
  H87      1.0000 0.25260  0.54580  0.82140  Biso   1.000  H
  H88      1.0000 0.74740  0.04580  0.67860  Biso   1.000  H
  C137     1.0000 0.50210  0.54900  0.16900  Biso   1.000  C
  C138     1.0000 0.49790  0.04900  0.33100  Biso   1.000  C
  C139     1.0000 0.49790  0.45100  0.83100  Biso   1.000  C
  C140     1.0000 0.50210  0.95100  0.66900  Biso   1.000  C
  H89      1.0000 0.44790  0.57610  0.18380  Biso   1.000  H
  H90      1.0000 0.55210  0.07610  0.31620  Biso   1.000  H
  H91      1.0000 0.55210  0.42390  0.81620  Biso   1.000  H
  H92      1.0000 0.44790  0.92390  0.68380  Biso   1.000  H
  C141     1.0000 0.47630  0.54540  0.12910  Biso   1.000  C
  C142     1.0000 0.52370  0.04540  0.37090  Biso   1.000  C
  C143     1.0000 0.52370  0.45460  0.87090  Biso   1.000  C
  C144     1.0000 0.47630  0.95460  0.62910  Biso   1.000  C
  H93      1.0000 0.40490  0.56870  0.11750  Biso   1.000  H
  H94      1.0000 0.59510  0.06870  0.38250  Biso   1.000  H
  H95      1.0000 0.59510  0.43130  0.88250  Biso   1.000  H
  H96      1.0000 0.40490  0.93130  0.61750  Biso   1.000  H
  C145     1.0000 0.03920  0.42210  0.93600  Biso   1.000  C
  C146     1.0000 0.96080  0.92210  0.56400  Biso   1.000  C
  C147     1.0000 0.96080  0.57790  0.06400  Biso   1.000  C
  C148     1.0000 0.03920  0.07790  0.43600  Biso   1.000  C
  C149     1.0000 0.06690  0.39700  0.89510  Biso   1.000  C
  C150     1.0000 0.93310  0.89700  0.60490  Biso   1.000  C
  C151     1.0000 0.93310  0.60300  0.10490  Biso   1.000  C
  C152     1.0000 0.06690  0.10300  0.39510  Biso   1.000  C
  C153     1.0000 0.97560  0.41060  0.86450  Biso   1.000  C
  C154     1.0000 0.02440  0.91060  0.63550  Biso   1.000  C
  C155     1.0000 0.02440  0.58940  0.13550  Biso   1.000  C
  C156     1.0000 0.97560  0.08940  0.36450  Biso   1.000  C
  H97      1.0000 0.89550  0.43190  0.86900  Biso   1.000  H
  H98      1.0000 0.10450  0.93190  0.63100  Biso   1.000  H
  H99      1.0000 0.10450  0.56810  0.13100  Biso   1.000  H
  H100     1.0000 0.89550  0.06810  0.36900  Biso   1.000  H
  C157     1.0000 0.00770  0.39140  0.82750  Biso   1.000  C
  C158     1.0000 0.99230  0.89140  0.67250  Biso   1.000  C
  C159     1.0000 0.99230  0.60860  0.17250  Biso   1.000  C
  C160     1.0000 0.00770  0.10860  0.32750  Biso   1.000  C
  H101     1.0000 0.94580  0.39990  0.80730  Biso   1.000  H
  H102     1.0000 0.05420  0.89990  0.69270  Biso   1.000  H
  H103     1.0000 0.05420  0.60010  0.19270  Biso   1.000  H
  H104     1.0000 0.94580  0.10010  0.30730  Biso   1.000  H
  C161     1.0000 0.20630  0.34830  0.84850  Biso   1.000  C
  C162     1.0000 0.79370  0.84830  0.65150  Biso   1.000  C
  C163     1.0000 0.79370  0.65170  0.15150  Biso   1.000  C
  C164     1.0000 0.20630  0.15170  0.34850  Biso   1.000  C
  H105     1.0000 0.28530  0.32650  0.84320  Biso   1.000  H
  H106     1.0000 0.71470  0.82650  0.65680  Biso   1.000  H
  H107     1.0000 0.71470  0.67350  0.15680  Biso   1.000  H
  H108     1.0000 0.28530  0.17350  0.34320  Biso   1.000  H
  C165     1.0000 0.18330  0.36480  0.88640  Biso   1.000  C
  C166     1.0000 0.81670  0.86480  0.61360  Biso   1.000  C
  C167     1.0000 0.81670  0.63520  0.11360  Biso   1.000  C
  C168     1.0000 0.18330  0.13520  0.38640  Biso   1.000  C
  H109     1.0000 0.24590  0.35440  0.90600  Biso   1.000  H
  H110     1.0000 0.75410  0.85440  0.59400  Biso   1.000  H
  H111     1.0000 0.75410  0.64560  0.09400  Biso   1.000  H
  H112     1.0000 0.24590  0.14560  0.40600  Biso   1.000  H
  C169     1.0000 0.03630  0.41720  0.05710  Biso   1.000  C
  C170     1.0000 0.96370  0.91720  0.44290  Biso   1.000  C
  C171     1.0000 0.96370  0.58280  0.94290  Biso   1.000  C
  C172     1.0000 0.03630  0.08280  0.55710  Biso   1.000  C
  C173     1.0000 0.99160  0.38600  0.09450  Biso   1.000  C
  C174     1.0000 0.00840  0.88600  0.40550  Biso   1.000  C
  C175     1.0000 0.00840  0.61400  0.90550  Biso   1.000  C
  C176     1.0000 0.99160  0.11400  0.59450  Biso   1.000  C
  C177     1.0000 0.89300  0.33740  0.09440  Biso   1.000  C
  C178     1.0000 0.10700  0.83740  0.40560  Biso   1.000  C
  C179     1.0000 0.10700  0.66260  0.90560  Biso   1.000  C
  C180     1.0000 0.89300  0.16260  0.59440  Biso   1.000  C
  H113     1.0000 0.84950  0.32300  0.07150  Biso   1.000  H
  H114     1.0000 0.15050  0.82300  0.42850  Biso   1.000  H
  H115     1.0000 0.15050  0.67700  0.92850  Biso   1.000  H
  H116     1.0000 0.84950  0.17700  0.57150  Biso   1.000  H
  C181     1.0000 0.86250  0.31140  0.13040  Biso   1.000  C
  C182     1.0000 0.13750  0.81140  0.36960  Biso   1.000  C
  C183     1.0000 0.13750  0.68860  0.86960  Biso   1.000  C
  C184     1.0000 0.86250  0.18860  0.63040  Biso   1.000  C
  H117     1.0000 0.79820  0.27760  0.13100  Biso   1.000  H
  H118     1.0000 0.20180  0.77760  0.36900  Biso   1.000  H
  H119     1.0000 0.20180  0.72240  0.86900  Biso   1.000  H
  H120     1.0000 0.79820  0.22240  0.63100  Biso   1.000  H
  C185     1.0000 0.00970  0.37980  0.16300  Biso   1.000  C
  C186     1.0000 0.99030  0.87980  0.33700  Biso   1.000  C
  C187     1.0000 0.99030  0.62020  0.83700  Biso   1.000  C
  C188     1.0000 0.00970  0.12020  0.66300  Biso   1.000  C
  H121     1.0000 0.04840  0.39550  0.18630  Biso   1.000  H
  H122     1.0000 0.95160  0.89550  0.31370  Biso   1.000  H
  H123     1.0000 0.95160  0.60450  0.81370  Biso   1.000  H
  H124     1.0000 0.04840  0.10450  0.68630  Biso   1.000  H
  C189     1.0000 0.04950  0.40780  0.12890  Biso   1.000  C
  C190     1.0000 0.95050  0.90780  0.37110  Biso   1.000  C
  C191     1.0000 0.95050  0.59220  0.87110  Biso   1.000  C
  C192     1.0000 0.04950  0.09220  0.62890  Biso   1.000  C
  H125     1.0000 0.11490  0.44110  0.12910  Biso   1.000  H
  H126     1.0000 0.88510  0.94110  0.37090  Biso   1.000  H
  H127     1.0000 0.88510  0.55890  0.87090  Biso   1.000  H
  H128     1.0000 0.11490  0.05890  0.62910  Biso   1.000  H
  C193     1.0000 0.71300  0.30420  0.98320  Biso   1.000  C
  C194     1.0000 0.28700  0.80420  0.51680  Biso   1.000  C
  C195     1.0000 0.28700  0.69580  0.01680  Biso   1.000  C
  C196     1.0000 0.71300  0.19580  0.48320  Biso   1.000  C
  C197     1.0000 0.45490  0.22430  0.96430  Biso   1.000  C
  C198     1.0000 0.54510  0.72430  0.53570  Biso   1.000  C
  C199     1.0000 0.54510  0.77570  0.03570  Biso   1.000  C
  C200     1.0000 0.45490  0.27570  0.46430  Biso   1.000  C
  C201     1.0000 0.65830  0.28720  0.94250  Biso   1.000  C
  C202     1.0000 0.34170  0.78720  0.55750  Biso   1.000  C
  C203     1.0000 0.34170  0.71280  0.05750  Biso   1.000  C
  C204     1.0000 0.65830  0.21280  0.44250  Biso   1.000  C
  C205     1.0000 0.73090  0.31090  0.91150  Biso   1.000  C
  C206     1.0000 0.26910  0.81090  0.58850  Biso   1.000  C
  C207     1.0000 0.26910  0.68910  0.08850  Biso   1.000  C
  C208     1.0000 0.73090  0.18910  0.41150  Biso   1.000  C
  H129     1.0000 0.80910  0.33480  0.91670  Biso   1.000  H
  H130     1.0000 0.19090  0.83480  0.58330  Biso   1.000  H
  H131     1.0000 0.19090  0.66520  0.08330  Biso   1.000  H
  H132     1.0000 0.80910  0.16520  0.41670  Biso   1.000  H
  C209     1.0000 0.68920  0.29970  0.87380  Biso   1.000  C
  C210     1.0000 0.31080  0.79970  0.62620  Biso   1.000  C
  C211     1.0000 0.31080  0.70030  0.12620  Biso   1.000  C
  C212     1.0000 0.68920  0.20030  0.37380  Biso   1.000  C
  H133     1.0000 0.74170  0.31330  0.85360  Biso   1.000  H
  H134     1.0000 0.25830  0.81330  0.64640  Biso   1.000  H
  H135     1.0000 0.25830  0.68670  0.14640  Biso   1.000  H
  H136     1.0000 0.74170  0.18670  0.35360  Biso   1.000  H
  C213     1.0000 0.56980  0.26820  0.86550  Biso   1.000  C
  C214     1.0000 0.43020  0.76820  0.63450  Biso   1.000  C
  C215     1.0000 0.43020  0.73180  0.13450  Biso   1.000  C
  C216     1.0000 0.56980  0.23180  0.36550  Biso   1.000  C
  H137     1.0000 0.53900  0.26230  0.83990  Biso   1.000  H
  H138     1.0000 0.46100  0.76230  0.66010  Biso   1.000  H
  H139     1.0000 0.46100  0.73770  0.16010  Biso   1.000  H
  H140     1.0000 0.53900  0.23770  0.33990  Biso   1.000  H
  C217     1.0000 0.49700  0.24560  0.89570  Biso   1.000  C
  C218     1.0000 0.50300  0.74560  0.60430  Biso   1.000  C
  C219     1.0000 0.50300  0.75440  0.10430  Biso   1.000  C
  C220     1.0000 0.49700  0.25440  0.39570  Biso   1.000  C
  H141     1.0000 0.41600  0.22470  0.89000  Biso   1.000  H
  H142     1.0000 0.58400  0.72470  0.61000  Biso   1.000  H
  H143     1.0000 0.58400  0.77530  0.11000  Biso   1.000  H
  H144     1.0000 0.41600  0.27530  0.39000  Biso   1.000  H
  C221     1.0000 0.53940  0.25270  0.93420  Biso   1.000  C
  C222     1.0000 0.46060  0.75270  0.56580  Biso   1.000  C
  C223     1.0000 0.46060  0.74730  0.06580  Biso   1.000  C
  C224     1.0000 0.53940  0.24730  0.43420  Biso   1.000  C
  N1       1.0000 0.40380  0.03890  0.20220  Biso   1.000  N
  N2       1.0000 0.59620  0.53890  0.29780  Biso   1.000  N
  N3       1.0000 0.59620  0.96110  0.79780  Biso   1.000  N
  N4       1.0000 0.40380  0.46110  0.70220  Biso   1.000  N
  N5       1.0000 0.10820  0.15770  0.20880  Biso   1.000  N
  N6       1.0000 0.89180  0.65770  0.29120  Biso   1.000  N
  N7       1.0000 0.89180  0.84230  0.79120  Biso   1.000  N
  N8       1.0000 0.10820  0.34230  0.70880  Biso   1.000  N
  N9       1.0000 0.14790  0.06180  0.83190  Biso   1.000  N
  N10      1.0000 0.85210  0.56180  0.66810  Biso   1.000  N
  N11      1.0000 0.85210  0.93820  0.16810  Biso   1.000  N
  N12      1.0000 0.14790  0.43820  0.33190  Biso   1.000  N
  N13      1.0000 0.43480  0.36020  0.18490  Biso   1.000  N
  N14      1.0000 0.56520  0.86020  0.31510  Biso   1.000  N
  N15      1.0000 0.56520  0.63980  0.81510  Biso   1.000  N
  N16      1.0000 0.43480  0.13980  0.68490  Biso   1.000  N
  N17      1.0000 0.83470  0.16140  0.83880  Biso   1.000  N
  N18      1.0000 0.16530  0.66140  0.66120  Biso   1.000  N
  N19      1.0000 0.16530  0.83860  0.16120  Biso   1.000  N
  N20      1.0000 0.83470  0.33860  0.33880  Biso   1.000  N
  N21      1.0000 0.60180  0.51510  0.18720  Biso   1.000  N
  N22      1.0000 0.39820  0.01510  0.31280  Biso   1.000  N
  N23      1.0000 0.39820  0.48490  0.81280  Biso   1.000  N
  N24      1.0000 0.60180  0.98490  0.68720  Biso   1.000  N
  N25      1.0000 0.12060  0.36180  0.81850  Biso   1.000  N
  N26      1.0000 0.87940  0.86180  0.68150  Biso   1.000  N
  N27      1.0000 0.87940  0.63820  0.18150  Biso   1.000  N
  N28      1.0000 0.12060  0.13820  0.31850  Biso   1.000  N
  N29      1.0000 0.91930  0.33160  0.16430  Biso   1.000  N
  N30      1.0000 0.08070  0.83160  0.33570  Biso   1.000  N
  N31      1.0000 0.08070  0.66840  0.83570  Biso   1.000  N
  N32      1.0000 0.91930  0.16840  0.66430  Biso   1.000  N
  O1       1.0000 0.58200  0.07040  0.07068  Biso   1.000  O
  O2       1.0000 0.41800  0.57040  0.42932  Biso   1.000  O
  O3       1.0000 0.41800  0.92960  0.92932  Biso   1.000  O
  O4       1.0000 0.58200  0.42960  0.57068  Biso   1.000  O
  O5       1.0000 0.10380  0.05780  0.03130  Biso   1.000  O
  O6       1.0000 0.89620  0.55780  0.46870  Biso   1.000  O
  O7       1.0000 0.89620  0.94220  0.96870  Biso   1.000  O
  O8       1.0000 0.10380  0.44220  0.53130  Biso   1.000  O
  O9       1.0000 0.36900  0.08960  0.06033  Biso   1.000  O
  O10      1.0000 0.63100  0.58960  0.43967  Biso   1.000  O
  O11      1.0000 0.63100  0.91040  0.93967  Biso   1.000  O
  O12      1.0000 0.36900  0.41040  0.56033  Biso   1.000  O
  O13      1.0000 0.13950  0.28990  0.00970  Biso   1.000  O
  O14      1.0000 0.86050  0.78990  0.49030  Biso   1.000  O
  O15      1.0000 0.86050  0.71010  0.99030  Biso   1.000  O
  O16      1.0000 0.13950  0.21010  0.50970  Biso   1.000  O
  O17      1.0000 0.08220  0.18910  0.06498  Biso   1.000  O
  O18      1.0000 0.91780  0.68910  0.43502  Biso   1.000  O
  O19      1.0000 0.91780  0.81090  0.93502  Biso   1.000  O
  O20      1.0000 0.08220  0.31090  0.56498  Biso   1.000  O
  O21      1.0000 0.59540  0.05750  0.97722  Biso   1.000  O
  O22      1.0000 0.40460  0.55750  0.52278  Biso   1.000  O
  O23      1.0000 0.40460  0.94250  0.02278  Biso   1.000  O
  O24      1.0000 0.59540  0.44250  0.47722  Biso   1.000  O
  O25      1.0000 0.87790  0.15780  0.07710  Biso   1.000  O
  O26      1.0000 0.12210  0.65780  0.42290  Biso   1.000  O
  O27      1.0000 0.12210  0.84220  0.92290  Biso   1.000  O
  O28      1.0000 0.87790  0.34220  0.57710  Biso   1.000  O
  O29      1.0000 0.62080  0.60020  0.99590  Biso   1.000  O
  O30      1.0000 0.37920  0.10020  0.50410  Biso   1.000  O
  O31      1.0000 0.37920  0.39980  0.00410  Biso   1.000  O
  O32      1.0000 0.62080  0.89980  0.49590  Biso   1.000  O
  O33      1.0000 0.31110  0.07090  0.97145  Biso   1.000  O
  O34      1.0000 0.68890  0.57090  0.52855  Biso   1.000  O
  O35      1.0000 0.68890  0.92910  0.02855  Biso   1.000  O
  O36      1.0000 0.31110  0.42910  0.47145  Biso   1.000  O
  O37      1.0000 0.18790  0.97710  0.96826  Biso   1.000  O
  O38      1.0000 0.81210  0.47710  0.53174  Biso   1.000  O
  O39      1.0000 0.81210  0.02290  0.03174  Biso   1.000  O
  O40      1.0000 0.18790  0.52290  0.46826  Biso   1.000  O
  O41      1.0000 0.38060  0.24380  0.05830  Biso   1.000  O
  O42      1.0000 0.61940  0.74380  0.44170  Biso   1.000  O
  O43      1.0000 0.61940  0.75620  0.94170  Biso   1.000  O
  O44      1.0000 0.38060  0.25620  0.55830  Biso   1.000  O
  O45      1.0000 0.58880  0.21520  0.07590  Biso   1.000  O
  O46      1.0000 0.41120  0.71520  0.42410  Biso   1.000  O
  O47      1.0000 0.41120  0.78480  0.92410  Biso   1.000  O
  O48      1.0000 0.58880  0.28480  0.57590  Biso   1.000  O
  O49      1.0000 0.87600  0.12790  0.98244  Biso   1.000  O
  O50      1.0000 0.12400  0.62790  0.51756  Biso   1.000  O
  O51      1.0000 0.12400  0.87210  0.01756  Biso   1.000  O
  O52      1.0000 0.87600  0.37210  0.48244  Biso   1.000  O
  O53      1.0000 0.07420  0.16550  0.96730  Biso   1.000  O
  O54      1.0000 0.92580  0.66550  0.53270  Biso   1.000  O
  O55      1.0000 0.92580  0.83450  0.03270  Biso   1.000  O
  O56      1.0000 0.07420  0.33450  0.46730  Biso   1.000  O
  O57      1.0000 0.61570  0.47170  0.04440  Biso   1.000  O
  O58      1.0000 0.38430  0.97170  0.45560  Biso   1.000  O
  O59      1.0000 0.38430  0.52830  0.95560  Biso   1.000  O
  O60      1.0000 0.61570  0.02830  0.54440  Biso   1.000  O
  O61      1.0000 0.41860  0.52080  0.05146  Biso   1.000  O
  O62      1.0000 0.58140  0.02080  0.44854  Biso   1.000  O
  O63      1.0000 0.58140  0.47920  0.94854  Biso   1.000  O
  O64      1.0000 0.41860  0.97920  0.55146  Biso   1.000  O
  O65      1.0000 0.92300  0.43580  0.94294  Biso   1.000  O
  O66      1.0000 0.07700  0.93580  0.55706  Biso   1.000  O
  O67      1.0000 0.07700  0.56420  0.05706  Biso   1.000  O
  O68      1.0000 0.92300  0.06420  0.44294  Biso   1.000  O
  O69      1.0000 0.13790  0.42540  0.95981  Biso   1.000  O
  O70      1.0000 0.86210  0.92540  0.54019  Biso   1.000  O
  O71      1.0000 0.86210  0.57460  0.04019  Biso   1.000  O
  O72      1.0000 0.13790  0.07460  0.45981  Biso   1.000  O
  O73      1.0000 0.94940  0.43390  0.03200  Biso   1.000  O
  O74      1.0000 0.05060  0.93390  0.46800  Biso   1.000  O
  O75      1.0000 0.05060  0.56610  0.96800  Biso   1.000  O
  O76      1.0000 0.94940  0.06610  0.53200  Biso   1.000  O
  O77      1.0000 0.15790  0.42570  0.05450  Biso   1.000  O
  O78      1.0000 0.84210  0.92570  0.44550  Biso   1.000  O
  O79      1.0000 0.84210  0.57430  0.94550  Biso   1.000  O
  O80      1.0000 0.15790  0.07430  0.55450  Biso   1.000  O
  O81      1.0000 0.33310  0.23660  0.96160  Biso   1.000  O
  O82      1.0000 0.66690  0.73660  0.53840  Biso   1.000  O
  O83      1.0000 0.66690  0.76340  0.03840  Biso   1.000  O
  O84      1.0000 0.33310  0.26340  0.46160  Biso   1.000  O
  O85      1.0000 0.50280  0.18620  0.99109  Biso   1.000  O
  O86      1.0000 0.49720  0.68620  0.50891  Biso   1.000  O
  O87      1.0000 0.49720  0.81380  0.00891  Biso   1.000  O
  O88      1.0000 0.50280  0.31380  0.49109  Biso   1.000  O
  O89      1.0000 0.74990  0.25730  0.00570  Biso   1.000  O
  O90      1.0000 0.25010  0.75730  0.49430  Biso   1.000  O
  O91      1.0000 0.25010  0.74270  0.99430  Biso   1.000  O
  O92      1.0000 0.74990  0.24270  0.50570  Biso   1.000  O
  O93      1.0000 0.71800  0.36530  0.99230  Biso   1.000  O
  O94      1.0000 0.28200  0.86530  0.50770  Biso   1.000  O
  O95      1.0000 0.28200  0.63470  0.00770  Biso   1.000  O
  O96      1.0000 0.71800  0.13470  0.49230  Biso   1.000  O
