data_image0
_cell_length_a       17.3097
_cell_length_b       32.694
_cell_length_c       9.8565
_cell_angle_alpha    90
_cell_angle_beta     114.494
_cell_angle_gamma    90

_symmetry_space_group_name_H-M    "P 1"
_symmetry_int_tables_number       1

loop_
  _symmetry_equiv_pos_as_xyz
  'x, y, z'

loop_
  _atom_site_label
  _atom_site_occupancy
  _atom_site_fract_x
  _atom_site_fract_y
  _atom_site_fract_z
  _atom_site_thermal_displace_type
  _atom_site_B_iso_or_equiv
  _atom_site_type_symbol
  Ce1      1.0000 0.29918  0.00870  0.09909  Biso   1.000  Ce
  Ce2      1.0000 0.79918  0.50870  0.09909  Biso   1.000  Ce
  Ce3      1.0000 0.70082  0.00870  0.40091  Biso   1.000  Ce
  Ce4      1.0000 0.20082  0.50870  0.40091  Biso   1.000  Ce
  Ce5      1.0000 0.70082  0.99130  0.90091  Biso   1.000  Ce
  Ce6      1.0000 0.20082  0.49130  0.90091  Biso   1.000  Ce
  Ce7      1.0000 0.29918  0.99130  0.59909  Biso   1.000  Ce
  Ce8      1.0000 0.79918  0.49130  0.59909  Biso   1.000  Ce
  Cu1      1.0000 0.48006  0.31009  0.37074  Biso   1.000  Cu
  Cu2      1.0000 0.98006  0.81009  0.37074  Biso   1.000  Cu
  Cu3      1.0000 0.51994  0.31009  0.12926  Biso   1.000  Cu
  Cu4      1.0000 0.01994  0.81009  0.12926  Biso   1.000  Cu
  Cu5      1.0000 0.51994  0.68991  0.62926  Biso   1.000  Cu
  Cu6      1.0000 0.01994  0.18991  0.62926  Biso   1.000  Cu
  Cu7      1.0000 0.48006  0.68991  0.87074  Biso   1.000  Cu
  Cu8      1.0000 0.98006  0.18991  0.87074  Biso   1.000  Cu
  Cu9      1.0000 0.50000  0.24463  0.25000  Biso   1.000  Cu
  Cu10     1.0000 0.00000  0.74463  0.25000  Biso   1.000  Cu
  Cu11     1.0000 0.50000  0.75537  0.75000  Biso   1.000  Cu
  Cu12     1.0000 0.00000  0.25537  0.75000  Biso   1.000  Cu
  Cu13     1.0000 0.38076  0.24898  0.68264  Biso   1.000  Cu
  Cu14     1.0000 0.88076  0.74898  0.68264  Biso   1.000  Cu
  Cu15     1.0000 0.61924  0.24898  0.81736  Biso   1.000  Cu
  Cu16     1.0000 0.11924  0.74898  0.81736  Biso   1.000  Cu
  Cu17     1.0000 0.61924  0.75102  0.31736  Biso   1.000  Cu
  Cu18     1.0000 0.11924  0.25102  0.31736  Biso   1.000  Cu
  Cu19     1.0000 0.38076  0.75102  0.18264  Biso   1.000  Cu
  Cu20     1.0000 0.88076  0.25102  0.18264  Biso   1.000  Cu
  Br1      1.0000 0.47826  0.25554  0.54364  Biso   1.000  Br
  Br2      1.0000 0.97826  0.75554  0.54364  Biso   1.000  Br
  Br3      1.0000 0.52174  0.25554  0.95636  Biso   1.000  Br
  Br4      1.0000 0.02174  0.75554  0.95636  Biso   1.000  Br
  Br5      1.0000 0.52174  0.74446  0.45636  Biso   1.000  Br
  Br6      1.0000 0.02174  0.24446  0.45636  Biso   1.000  Br
  Br7      1.0000 0.47826  0.74446  0.04364  Biso   1.000  Br
  Br8      1.0000 0.97826  0.24446  0.04364  Biso   1.000  Br
  Br9      1.0000 0.36821  0.29021  0.12799  Biso   1.000  Br
  Br10     1.0000 0.86821  0.79021  0.12799  Biso   1.000  Br
  Br11     1.0000 0.63179  0.29021  0.37201  Biso   1.000  Br
  Br12     1.0000 0.13179  0.79021  0.37201  Biso   1.000  Br
  Br13     1.0000 0.63179  0.70979  0.87201  Biso   1.000  Br
  Br14     1.0000 0.13179  0.20979  0.87201  Biso   1.000  Br
  Br15     1.0000 0.36821  0.70979  0.62799  Biso   1.000  Br
  Br16     1.0000 0.86821  0.20979  0.62799  Biso   1.000  Br
  C1       1.0000 0.97630  0.88290  0.95130  Biso   1.000  C
  C2       1.0000 0.47630  0.38290  0.95130  Biso   1.000  C
  C3       1.0000 0.02370  0.88290  0.54870  Biso   1.000  C
  C4       1.0000 0.52370  0.38290  0.54870  Biso   1.000  C
  C5       1.0000 0.02370  0.11710  0.04870  Biso   1.000  C
  C6       1.0000 0.52370  0.61710  0.04870  Biso   1.000  C
  C7       1.0000 0.97630  0.11710  0.45130  Biso   1.000  C
  C8       1.0000 0.47630  0.61710  0.45130  Biso   1.000  C
  H1       1.0000 0.93820  0.86460  0.88460  Biso   1.000  H
  H2       1.0000 0.43820  0.36460  0.88460  Biso   1.000  H
  H3       1.0000 0.06180  0.86460  0.61540  Biso   1.000  H
  H4       1.0000 0.56180  0.36460  0.61540  Biso   1.000  H
  H5       1.0000 0.06180  0.13540  0.11540  Biso   1.000  H
  H6       1.0000 0.56180  0.63540  0.11540  Biso   1.000  H
  H7       1.0000 0.93820  0.13540  0.38460  Biso   1.000  H
  H8       1.0000 0.43820  0.63540  0.38460  Biso   1.000  H
  C9       1.0000 0.97910  0.92210  0.90410  Biso   1.000  C
  C10      1.0000 0.47910  0.42210  0.90410  Biso   1.000  C
  C11      1.0000 0.02090  0.92210  0.59590  Biso   1.000  C
  C12      1.0000 0.52090  0.42210  0.59590  Biso   1.000  C
  C13      1.0000 0.02090  0.07790  0.09590  Biso   1.000  C
  C14      1.0000 0.52090  0.57790  0.09590  Biso   1.000  C
  C15      1.0000 0.97910  0.07790  0.40410  Biso   1.000  C
  C16      1.0000 0.47910  0.57790  0.40410  Biso   1.000  C
  H9       1.0000 0.94080  0.93060  0.81010  Biso   1.000  H
  H10      1.0000 0.44080  0.43060  0.81010  Biso   1.000  H
  H11      1.0000 0.05920  0.93060  0.68990  Biso   1.000  H
  H12      1.0000 0.55920  0.43060  0.68990  Biso   1.000  H
  H13      1.0000 0.05920  0.06940  0.18990  Biso   1.000  H
  H14      1.0000 0.55920  0.56940  0.18990  Biso   1.000  H
  H15      1.0000 0.94080  0.06940  0.31010  Biso   1.000  H
  H16      1.0000 0.44080  0.56940  0.31010  Biso   1.000  H
  C17      1.0000 0.03960  0.94890  0.99780  Biso   1.000  C
  C18      1.0000 0.53960  0.44890  0.99780  Biso   1.000  C
  C19      1.0000 0.96040  0.94890  0.50220  Biso   1.000  C
  C20      1.0000 0.46040  0.44890  0.50220  Biso   1.000  C
  C21      1.0000 0.96040  0.05110  0.00220  Biso   1.000  C
  C22      1.0000 0.46040  0.55110  0.00220  Biso   1.000  C
  C23      1.0000 0.03960  0.05110  0.49780  Biso   1.000  C
  C24      1.0000 0.53960  0.55110  0.49780  Biso   1.000  C
  H17      1.0000 0.04670  0.97470  0.96480  Biso   1.000  H
  H18      1.0000 0.54670  0.47470  0.96480  Biso   1.000  H
  H19      1.0000 0.95330  0.97470  0.53520  Biso   1.000  H
  H20      1.0000 0.45330  0.47470  0.53520  Biso   1.000  H
  H21      1.0000 0.95330  0.02530  0.03520  Biso   1.000  H
  H22      1.0000 0.45330  0.52530  0.03520  Biso   1.000  H
  H23      1.0000 0.04670  0.02530  0.46480  Biso   1.000  H
  H24      1.0000 0.54670  0.52530  0.46480  Biso   1.000  H
  C25      1.0000 0.08970  0.93610  0.14320  Biso   1.000  C
  C26      1.0000 0.58970  0.43610  0.14320  Biso   1.000  C
  C27      1.0000 0.91030  0.93610  0.35680  Biso   1.000  C
  C28      1.0000 0.41030  0.43610  0.35680  Biso   1.000  C
  C29      1.0000 0.91030  0.06390  0.85680  Biso   1.000  C
  C30      1.0000 0.41030  0.56390  0.85680  Biso   1.000  C
  C31      1.0000 0.08970  0.06390  0.64320  Biso   1.000  C
  C32      1.0000 0.58970  0.56390  0.64320  Biso   1.000  C
  C33      1.0000 0.08120  0.89650  0.18390  Biso   1.000  C
  C34      1.0000 0.58120  0.39650  0.18390  Biso   1.000  C
  C35      1.0000 0.91880  0.89650  0.31610  Biso   1.000  C
  C36      1.0000 0.41880  0.39650  0.31610  Biso   1.000  C
  C37      1.0000 0.91880  0.10350  0.81610  Biso   1.000  C
  C38      1.0000 0.41880  0.60350  0.81610  Biso   1.000  C
  C39      1.0000 0.08120  0.10350  0.68390  Biso   1.000  C
  C40      1.0000 0.58120  0.60350  0.68390  Biso   1.000  C
  H25      1.0000 0.11490  0.88800  0.28050  Biso   1.000  H
  H26      1.0000 0.61490  0.38800  0.28050  Biso   1.000  H
  H27      1.0000 0.88510  0.88800  0.21950  Biso   1.000  H
  H28      1.0000 0.38510  0.38800  0.21950  Biso   1.000  H
  H29      1.0000 0.88510  0.11200  0.71950  Biso   1.000  H
  H30      1.0000 0.38510  0.61200  0.71950  Biso   1.000  H
  H31      1.0000 0.11490  0.11200  0.78050  Biso   1.000  H
  H32      1.0000 0.61490  0.61200  0.78050  Biso   1.000  H
  C41      1.0000 0.15780  0.96420  0.24620  Biso   1.000  C
  C42      1.0000 0.65780  0.46420  0.24620  Biso   1.000  C
  C43      1.0000 0.84220  0.96420  0.25380  Biso   1.000  C
  C44      1.0000 0.34220  0.46420  0.25380  Biso   1.000  C
  C45      1.0000 0.84220  0.03580  0.75380  Biso   1.000  C
  C46      1.0000 0.34220  0.53580  0.75380  Biso   1.000  C
  C47      1.0000 0.15780  0.03580  0.74620  Biso   1.000  C
  C48      1.0000 0.65780  0.53580  0.74620  Biso   1.000  C
  C49      1.0000 0.50000  0.05410  0.25000  Biso   1.000  C
  C50      1.0000 0.00000  0.55410  0.25000  Biso   1.000  C
  C51      1.0000 0.50000  0.94590  0.75000  Biso   1.000  C
  C52      1.0000 0.00000  0.44590  0.75000  Biso   1.000  C
  C53      1.0000 0.50000  0.10000  0.25000  Biso   1.000  C
  C54      1.0000 0.00000  0.60000  0.25000  Biso   1.000  C
  C55      1.0000 0.50000  0.90000  0.75000  Biso   1.000  C
  C56      1.0000 0.00000  0.40000  0.75000  Biso   1.000  C
  C57      1.0000 0.45300  0.12170  0.30790  Biso   1.000  C
  C58      1.0000 0.95300  0.62170  0.30790  Biso   1.000  C
  C59      1.0000 0.54700  0.12170  0.19210  Biso   1.000  C
  C60      1.0000 0.04700  0.62170  0.19210  Biso   1.000  C
  C61      1.0000 0.54700  0.87830  0.69210  Biso   1.000  C
  C62      1.0000 0.04700  0.37830  0.69210  Biso   1.000  C
  C63      1.0000 0.45300  0.87830  0.80790  Biso   1.000  C
  C64      1.0000 0.95300  0.37830  0.80790  Biso   1.000  C
  H33      1.0000 0.41980  0.10810  0.34740  Biso   1.000  H
  H34      1.0000 0.91980  0.60810  0.34740  Biso   1.000  H
  H35      1.0000 0.58020  0.10810  0.15260  Biso   1.000  H
  H36      1.0000 0.08020  0.60810  0.15260  Biso   1.000  H
  H37      1.0000 0.58020  0.89190  0.65260  Biso   1.000  H
  H38      1.0000 0.08020  0.39190  0.65260  Biso   1.000  H
  H39      1.0000 0.41980  0.89190  0.84740  Biso   1.000  H
  H40      1.0000 0.91980  0.39190  0.84740  Biso   1.000  H
  C65      1.0000 0.45540  0.16400  0.30740  Biso   1.000  C
  C66      1.0000 0.95540  0.66400  0.30740  Biso   1.000  C
  C67      1.0000 0.54460  0.16400  0.19260  Biso   1.000  C
  C68      1.0000 0.04460  0.66400  0.19260  Biso   1.000  C
  C69      1.0000 0.54460  0.83600  0.69260  Biso   1.000  C
  C70      1.0000 0.04460  0.33600  0.69260  Biso   1.000  C
  C71      1.0000 0.45540  0.83600  0.80740  Biso   1.000  C
  C72      1.0000 0.95540  0.33600  0.80740  Biso   1.000  C
  H41      1.0000 0.42420  0.17840  0.34910  Biso   1.000  H
  H42      1.0000 0.92420  0.67840  0.34910  Biso   1.000  H
  H43      1.0000 0.57580  0.17840  0.15090  Biso   1.000  H
  H44      1.0000 0.07580  0.67840  0.15090  Biso   1.000  H
  H45      1.0000 0.57580  0.82160  0.65090  Biso   1.000  H
  H46      1.0000 0.07580  0.32160  0.65090  Biso   1.000  H
  H47      1.0000 0.42420  0.82160  0.84910  Biso   1.000  H
  H48      1.0000 0.92420  0.32160  0.84910  Biso   1.000  H
  C73      1.0000 0.35610  0.93053  0.37100  Biso   1.000  C
  C74      1.0000 0.85610  0.43053  0.37100  Biso   1.000  C
  C75      1.0000 0.64390  0.93053  0.12900  Biso   1.000  C
  C76      1.0000 0.14390  0.43053  0.12900  Biso   1.000  C
  C77      1.0000 0.64390  0.06947  0.62900  Biso   1.000  C
  C78      1.0000 0.14390  0.56947  0.62900  Biso   1.000  C
  C79      1.0000 0.35610  0.06947  0.87100  Biso   1.000  C
  C80      1.0000 0.85610  0.56947  0.87100  Biso   1.000  C
  C81      1.0000 0.35960  0.88759  0.32000  Biso   1.000  C
  C82      1.0000 0.85960  0.38759  0.32000  Biso   1.000  C
  C83      1.0000 0.64040  0.88759  0.18000  Biso   1.000  C
  C84      1.0000 0.14040  0.38759  0.18000  Biso   1.000  C
  C85      1.0000 0.64040  0.11241  0.68000  Biso   1.000  C
  C86      1.0000 0.14040  0.61241  0.68000  Biso   1.000  C
  C87      1.0000 0.35960  0.11241  0.82000  Biso   1.000  C
  C88      1.0000 0.85960  0.61241  0.82000  Biso   1.000  C
  C89      1.0000 0.39120  0.87930  0.21340  Biso   1.000  C
  C90      1.0000 0.89120  0.37930  0.21340  Biso   1.000  C
  C91      1.0000 0.60880  0.87930  0.28660  Biso   1.000  C
  C92      1.0000 0.10880  0.37930  0.28660  Biso   1.000  C
  C93      1.0000 0.60880  0.12070  0.78660  Biso   1.000  C
  C94      1.0000 0.10880  0.62070  0.78660  Biso   1.000  C
  C95      1.0000 0.39120  0.12070  0.71340  Biso   1.000  C
  C96      1.0000 0.89120  0.62070  0.71340  Biso   1.000  C
  H49      1.0000 0.41080  0.90040  0.17220  Biso   1.000  H
  H50      1.0000 0.91080  0.40040  0.17220  Biso   1.000  H
  H51      1.0000 0.58920  0.90040  0.32780  Biso   1.000  H
  H52      1.0000 0.08920  0.40040  0.32780  Biso   1.000  H
  H53      1.0000 0.58920  0.09960  0.82780  Biso   1.000  H
  H54      1.0000 0.08920  0.59960  0.82780  Biso   1.000  H
  H55      1.0000 0.41080  0.09960  0.67220  Biso   1.000  H
  H56      1.0000 0.91080  0.59960  0.67220  Biso   1.000  H
  C97      1.0000 0.39270  0.83940  0.17070  Biso   1.000  C
  C98      1.0000 0.89270  0.33940  0.17070  Biso   1.000  C
  C99      1.0000 0.60730  0.83940  0.32930  Biso   1.000  C
  C100     1.0000 0.10730  0.33940  0.32930  Biso   1.000  C
  C101     1.0000 0.60730  0.16060  0.82930  Biso   1.000  C
  C102     1.0000 0.10730  0.66060  0.82930  Biso   1.000  C
  C103     1.0000 0.39270  0.16060  0.67070  Biso   1.000  C
  C104     1.0000 0.89270  0.66060  0.67070  Biso   1.000  C
  H57      1.0000 0.41390  0.83400  0.09990  Biso   1.000  H
  H58      1.0000 0.91390  0.33400  0.09990  Biso   1.000  H
  H59      1.0000 0.58610  0.83400  0.40010  Biso   1.000  H
  H60      1.0000 0.08610  0.33400  0.40010  Biso   1.000  H
  H61      1.0000 0.58610  0.16600  0.90010  Biso   1.000  H
  H62      1.0000 0.08610  0.66600  0.90010  Biso   1.000  H
  H63      1.0000 0.41390  0.16600  0.59990  Biso   1.000  H
  H64      1.0000 0.91390  0.66600  0.59990  Biso   1.000  H
  C105     1.0000 0.33570  0.81600  0.32550  Biso   1.000  C
  C106     1.0000 0.83570  0.31600  0.32550  Biso   1.000  C
  C107     1.0000 0.66430  0.81600  0.17450  Biso   1.000  C
  C108     1.0000 0.16430  0.31600  0.17450  Biso   1.000  C
  C109     1.0000 0.66430  0.18400  0.67450  Biso   1.000  C
  C110     1.0000 0.16430  0.68400  0.67450  Biso   1.000  C
  C111     1.0000 0.33570  0.18400  0.82550  Biso   1.000  C
  C112     1.0000 0.83570  0.68400  0.82550  Biso   1.000  C
  H65      1.0000 0.31690  0.79420  0.36460  Biso   1.000  H
  H66      1.0000 0.81690  0.29420  0.36460  Biso   1.000  H
  H67      1.0000 0.68310  0.79420  0.13540  Biso   1.000  H
  H68      1.0000 0.18310  0.29420  0.13540  Biso   1.000  H
  H69      1.0000 0.68310  0.20580  0.63540  Biso   1.000  H
  H70      1.0000 0.18310  0.70580  0.63540  Biso   1.000  H
  H71      1.0000 0.31690  0.20580  0.86460  Biso   1.000  H
  H72      1.0000 0.81690  0.70580  0.86460  Biso   1.000  H
  C113     1.0000 0.33130  0.85580  0.37550  Biso   1.000  C
  C114     1.0000 0.83130  0.35580  0.37550  Biso   1.000  C
  C115     1.0000 0.66870  0.85580  0.12450  Biso   1.000  C
  C116     1.0000 0.16870  0.35580  0.12450  Biso   1.000  C
  C117     1.0000 0.66870  0.14420  0.62450  Biso   1.000  C
  C118     1.0000 0.16870  0.64420  0.62450  Biso   1.000  C
  C119     1.0000 0.33130  0.14420  0.87550  Biso   1.000  C
  C120     1.0000 0.83130  0.64420  0.87550  Biso   1.000  C
  H73      1.0000 0.30930  0.86030  0.44570  Biso   1.000  H
  H74      1.0000 0.80930  0.36030  0.44570  Biso   1.000  H
  H75      1.0000 0.69070  0.86030  0.05430  Biso   1.000  H
  H76      1.0000 0.19070  0.36030  0.05430  Biso   1.000  H
  H77      1.0000 0.69070  0.13970  0.55430  Biso   1.000  H
  H78      1.0000 0.19070  0.63970  0.55430  Biso   1.000  H
  H79      1.0000 0.30930  0.13970  0.94570  Biso   1.000  H
  H80      1.0000 0.80930  0.63970  0.94570  Biso   1.000  H
  C121     1.0000 0.25340  0.07358  0.34540  Biso   1.000  C
  C122     1.0000 0.75340  0.57358  0.34540  Biso   1.000  C
  C123     1.0000 0.74660  0.07358  0.15460  Biso   1.000  C
  C124     1.0000 0.24660  0.57358  0.15460  Biso   1.000  C
  C125     1.0000 0.74660  0.92642  0.65460  Biso   1.000  C
  C126     1.0000 0.24660  0.42642  0.65460  Biso   1.000  C
  C127     1.0000 0.25340  0.92642  0.84540  Biso   1.000  C
  C128     1.0000 0.75340  0.42642  0.84540  Biso   1.000  C
  C129     1.0000 0.22750  0.11767  0.34640  Biso   1.000  C
  C130     1.0000 0.72750  0.61767  0.34640  Biso   1.000  C
  C131     1.0000 0.77250  0.11767  0.15360  Biso   1.000  C
  C132     1.0000 0.27250  0.61767  0.15360  Biso   1.000  C
  C133     1.0000 0.77250  0.88233  0.65360  Biso   1.000  C
  C134     1.0000 0.27250  0.38233  0.65360  Biso   1.000  C
  C135     1.0000 0.22750  0.88233  0.84640  Biso   1.000  C
  C136     1.0000 0.72750  0.38233  0.84640  Biso   1.000  C
  C137     1.0000 0.23970  0.14660  0.25560  Biso   1.000  C
  C138     1.0000 0.73970  0.64660  0.25560  Biso   1.000  C
  C139     1.0000 0.76030  0.14660  0.24440  Biso   1.000  C
  C140     1.0000 0.26030  0.64660  0.24440  Biso   1.000  C
  C141     1.0000 0.76030  0.85340  0.74440  Biso   1.000  C
  C142     1.0000 0.26030  0.35340  0.74440  Biso   1.000  C
  C143     1.0000 0.23970  0.85340  0.75560  Biso   1.000  C
  C144     1.0000 0.73970  0.35340  0.75560  Biso   1.000  C
  H81      1.0000 0.26470  0.13950  0.19160  Biso   1.000  H
  H82      1.0000 0.76470  0.63950  0.19160  Biso   1.000  H
  H83      1.0000 0.73530  0.13950  0.30840  Biso   1.000  H
  H84      1.0000 0.23530  0.63950  0.30840  Biso   1.000  H
  H85      1.0000 0.73530  0.86050  0.80840  Biso   1.000  H
  H86      1.0000 0.23530  0.36050  0.80840  Biso   1.000  H
  H87      1.0000 0.26470  0.86050  0.69160  Biso   1.000  H
  H88      1.0000 0.76470  0.36050  0.69160  Biso   1.000  H
  C145     1.0000 0.21370  0.18670  0.26160  Biso   1.000  C
  C146     1.0000 0.71370  0.68670  0.26160  Biso   1.000  C
  C147     1.0000 0.78630  0.18670  0.23840  Biso   1.000  C
  C148     1.0000 0.28630  0.68670  0.23840  Biso   1.000  C
  C149     1.0000 0.78630  0.81330  0.73840  Biso   1.000  C
  C150     1.0000 0.28630  0.31330  0.73840  Biso   1.000  C
  C151     1.0000 0.21370  0.81330  0.76160  Biso   1.000  C
  C152     1.0000 0.71370  0.31330  0.76160  Biso   1.000  C
  H89      1.0000 0.22320  0.20630  0.20170  Biso   1.000  H
  H90      1.0000 0.72320  0.70630  0.20170  Biso   1.000  H
  H91      1.0000 0.77680  0.20630  0.29830  Biso   1.000  H
  H92      1.0000 0.27680  0.70630  0.29830  Biso   1.000  H
  H93      1.0000 0.77680  0.79370  0.79830  Biso   1.000  H
  H94      1.0000 0.27680  0.29370  0.79830  Biso   1.000  H
  H95      1.0000 0.22320  0.79370  0.70170  Biso   1.000  H
  H96      1.0000 0.72320  0.29370  0.70170  Biso   1.000  H
  C153     1.0000 0.16800  0.16970  0.43970  Biso   1.000  C
  C154     1.0000 0.66800  0.66970  0.43970  Biso   1.000  C
  C155     1.0000 0.83200  0.16970  0.06030  Biso   1.000  C
  C156     1.0000 0.33200  0.66970  0.06030  Biso   1.000  C
  C157     1.0000 0.83200  0.83030  0.56030  Biso   1.000  C
  C158     1.0000 0.33200  0.33030  0.56030  Biso   1.000  C
  C159     1.0000 0.16800  0.83030  0.93970  Biso   1.000  C
  C160     1.0000 0.66800  0.33030  0.93970  Biso   1.000  C
  H97      1.0000 0.14470  0.17770  0.50520  Biso   1.000  H
  H98      1.0000 0.64470  0.67770  0.50520  Biso   1.000  H
  H99      1.0000 0.85530  0.17770  0.99480  Biso   1.000  H
  H100     1.0000 0.35530  0.67770  0.99480  Biso   1.000  H
  H101     1.0000 0.85530  0.82230  0.49480  Biso   1.000  H
  H102     1.0000 0.35530  0.32230  0.49480  Biso   1.000  H
  H103     1.0000 0.14470  0.82230  0.00520  Biso   1.000  H
  H104     1.0000 0.64470  0.32230  0.00520  Biso   1.000  H
  C161     1.0000 0.19210  0.12980  0.44120  Biso   1.000  C
  C162     1.0000 0.69210  0.62980  0.44120  Biso   1.000  C
  C163     1.0000 0.80790  0.12980  0.05880  Biso   1.000  C
  C164     1.0000 0.30790  0.62980  0.05880  Biso   1.000  C
  C165     1.0000 0.80790  0.87020  0.55880  Biso   1.000  C
  C166     1.0000 0.30790  0.37020  0.55880  Biso   1.000  C
  C167     1.0000 0.19210  0.87020  0.94120  Biso   1.000  C
  C168     1.0000 0.69210  0.37020  0.94120  Biso   1.000  C
  H105     1.0000 0.18450  0.11110  0.50570  Biso   1.000  H
  H106     1.0000 0.68450  0.61110  0.50570  Biso   1.000  H
  H107     1.0000 0.81550  0.11110  0.99430  Biso   1.000  H
  H108     1.0000 0.31550  0.61110  0.99430  Biso   1.000  H
  H109     1.0000 0.81550  0.88890  0.49430  Biso   1.000  H
  H110     1.0000 0.31550  0.38890  0.49430  Biso   1.000  H
  H111     1.0000 0.18450  0.88890  0.00570  Biso   1.000  H
  H112     1.0000 0.68450  0.38890  0.00570  Biso   1.000  H
  N1       1.0000 0.02560  0.86970  0.08790  Biso   1.000  N
  N2       1.0000 0.52560  0.36970  0.08790  Biso   1.000  N
  N3       1.0000 0.97440  0.86970  0.41210  Biso   1.000  N
  N4       1.0000 0.47440  0.36970  0.41210  Biso   1.000  N
  N5       1.0000 0.97440  0.13030  0.91210  Biso   1.000  N
  N6       1.0000 0.47440  0.63030  0.91210  Biso   1.000  N
  N7       1.0000 0.02560  0.13030  0.58790  Biso   1.000  N
  N8       1.0000 0.52560  0.63030  0.58790  Biso   1.000  N
  N9       1.0000 0.50000  0.18480  0.25000  Biso   1.000  N
  N10      1.0000 0.00000  0.68480  0.25000  Biso   1.000  N
  N11      1.0000 0.50000  0.81520  0.75000  Biso   1.000  N
  N12      1.0000 0.00000  0.31520  0.75000  Biso   1.000  N
  N13      1.0000 0.36570  0.80852  0.22490  Biso   1.000  N
  N14      1.0000 0.86570  0.30852  0.22490  Biso   1.000  N
  N15      1.0000 0.63430  0.80852  0.27510  Biso   1.000  N
  N16      1.0000 0.13430  0.30852  0.27510  Biso   1.000  N
  N17      1.0000 0.63430  0.19148  0.77510  Biso   1.000  N
  N18      1.0000 0.13430  0.69148  0.77510  Biso   1.000  N
  N19      1.0000 0.36570  0.19148  0.72490  Biso   1.000  N
  N20      1.0000 0.86570  0.69148  0.72490  Biso   1.000  N
  N21      1.0000 0.17670  0.19829  0.34670  Biso   1.000  N
  N22      1.0000 0.67670  0.69829  0.34670  Biso   1.000  N
  N23      1.0000 0.82330  0.19829  0.15330  Biso   1.000  N
  N24      1.0000 0.32330  0.69829  0.15330  Biso   1.000  N
  N25      1.0000 0.82330  0.80171  0.65330  Biso   1.000  N
  N26      1.0000 0.32330  0.30171  0.65330  Biso   1.000  N
  N27      1.0000 0.17670  0.80171  0.84670  Biso   1.000  N
  N28      1.0000 0.67670  0.30171  0.84670  Biso   1.000  N
  O1       1.0000 0.42480  0.97380  0.05570  Biso   1.000  O
  O2       1.0000 0.92480  0.47380  0.05570  Biso   1.000  O
  O3       1.0000 0.57520  0.97380  0.44430  Biso   1.000  O
  O4       1.0000 0.07520  0.47380  0.44430  Biso   1.000  O
  O5       1.0000 0.57520  0.02620  0.94430  Biso   1.000  O
  O6       1.0000 0.07520  0.52620  0.94430  Biso   1.000  O
  O7       1.0000 0.42480  0.02620  0.55570  Biso   1.000  O
  O8       1.0000 0.92480  0.52620  0.55570  Biso   1.000  O
  O9       1.0000 0.19040  0.98710  0.18060  Biso   1.000  O
  O10      1.0000 0.69040  0.48710  0.18060  Biso   1.000  O
  O11      1.0000 0.80960  0.98710  0.31940  Biso   1.000  O
  O12      1.0000 0.30960  0.48710  0.31940  Biso   1.000  O
  O13      1.0000 0.80960  0.01290  0.81940  Biso   1.000  O
  O14      1.0000 0.30960  0.51290  0.81940  Biso   1.000  O
  O15      1.0000 0.19040  0.01290  0.68060  Biso   1.000  O
  O16      1.0000 0.69040  0.51290  0.68060  Biso   1.000  O
  O17      1.0000 0.17460  0.96320  0.38060  Biso   1.000  O
  O18      1.0000 0.67460  0.46320  0.38060  Biso   1.000  O
  O19      1.0000 0.82540  0.96320  0.11940  Biso   1.000  O
  O20      1.0000 0.32540  0.46320  0.11940  Biso   1.000  O
  O21      1.0000 0.82540  0.03680  0.61940  Biso   1.000  O
  O22      1.0000 0.32540  0.53680  0.61940  Biso   1.000  O
  O23      1.0000 0.17460  0.03680  0.88060  Biso   1.000  O
  O24      1.0000 0.67460  0.53680  0.88060  Biso   1.000  O
  O25      1.0000 0.44630  0.03574  0.28450  Biso   1.000  O
  O26      1.0000 0.94630  0.53574  0.28450  Biso   1.000  O
  O27      1.0000 0.55370  0.03574  0.21550  Biso   1.000  O
  O28      1.0000 0.05370  0.53574  0.21550  Biso   1.000  O
  O29      1.0000 0.55370  0.96426  0.71550  Biso   1.000  O
  O30      1.0000 0.05370  0.46426  0.71550  Biso   1.000  O
  O31      1.0000 0.44630  0.96426  0.78450  Biso   1.000  O
  O32      1.0000 0.94630  0.46426  0.78450  Biso   1.000  O
  O33      1.0000 0.36660  0.95938  0.29680  Biso   1.000  O
  O34      1.0000 0.86660  0.45938  0.29680  Biso   1.000  O
  O35      1.0000 0.63340  0.95938  0.20320  Biso   1.000  O
  O36      1.0000 0.13340  0.45938  0.20320  Biso   1.000  O
  O37      1.0000 0.63340  0.04062  0.70320  Biso   1.000  O
  O38      1.0000 0.13340  0.54062  0.70320  Biso   1.000  O
  O39      1.0000 0.36660  0.04062  0.79680  Biso   1.000  O
  O40      1.0000 0.86660  0.54062  0.79680  Biso   1.000  O
  O41      1.0000 0.34440  0.93455  0.48620  Biso   1.000  O
  O42      1.0000 0.84440  0.43455  0.48620  Biso   1.000  O
  O43      1.0000 0.65560  0.93455  0.01380  Biso   1.000  O
  O44      1.0000 0.15560  0.43455  0.01380  Biso   1.000  O
  O45      1.0000 0.65560  0.06545  0.51380  Biso   1.000  O
  O46      1.0000 0.15560  0.56545  0.51380  Biso   1.000  O
  O47      1.0000 0.34440  0.06545  0.98620  Biso   1.000  O
  O48      1.0000 0.84440  0.56545  0.98620  Biso   1.000  O
  O49      1.0000 0.28070  0.06351  0.25150  Biso   1.000  O
  O50      1.0000 0.78070  0.56351  0.25150  Biso   1.000  O
  O51      1.0000 0.71930  0.06351  0.24850  Biso   1.000  O
  O52      1.0000 0.21930  0.56351  0.24850  Biso   1.000  O
  O53      1.0000 0.71930  0.93649  0.74850  Biso   1.000  O
  O54      1.0000 0.21930  0.43649  0.74850  Biso   1.000  O
  O55      1.0000 0.28070  0.93649  0.75150  Biso   1.000  O
  O56      1.0000 0.78070  0.43649  0.75150  Biso   1.000  O
  O57      1.0000 0.24770  0.05091  0.44310  Biso   1.000  O
  O58      1.0000 0.74770  0.55091  0.44310  Biso   1.000  O
  O59      1.0000 0.75230  0.05091  0.05690  Biso   1.000  O
  O60      1.0000 0.25230  0.55091  0.05690  Biso   1.000  O
  O61      1.0000 0.75230  0.94909  0.55690  Biso   1.000  O
  O62      1.0000 0.25230  0.44909  0.55690  Biso   1.000  O
  O63      1.0000 0.24770  0.94909  0.94310  Biso   1.000  O
  O64      1.0000 0.74770  0.44909  0.94310  Biso   1.000  O
  Br17     1.0000 0.35960  0.26770  0.12320  Biso   1.000  Br
  Br18     1.0000 0.85960  0.76770  0.12320  Biso   1.000  Br
  Br19     1.0000 0.64040  0.26770  0.37680  Biso   1.000  Br
  Br20     1.0000 0.14040  0.76770  0.37680  Biso   1.000  Br
  Br21     1.0000 0.64040  0.73230  0.87680  Biso   1.000  Br
  Br22     1.0000 0.14040  0.23230  0.87680  Biso   1.000  Br
  Br23     1.0000 0.35960  0.73230  0.62320  Biso   1.000  Br
  Br24     1.0000 0.85960  0.23230  0.62320  Biso   1.000  Br
