data_image0
_cell_length_a       8.681
_cell_length_b       17.547
_cell_length_c       8.331
_cell_angle_alpha    99.1
_cell_angle_beta     101.64
_cell_angle_gamma    101.62

_symmetry_space_group_name_H-M    "P 1"
_symmetry_int_tables_number       1

loop_
  _symmetry_equiv_pos_as_xyz
  'x, y, z'

loop_
  _atom_site_label
  _atom_site_occupancy
  _atom_site_fract_x
  _atom_site_fract_y
  _atom_site_fract_z
  _atom_site_thermal_displace_type
  _atom_site_B_iso_or_equiv
  _atom_site_type_symbol
  Hg1      1.0000 0.26330  0.77560  0.94860  Biso   1.000  Hg
  Hg2      1.0000 0.73670  0.22440  0.05140  Biso   1.000  Hg
  Cu1      1.0000 0.84810  0.70870  0.33180  Biso   1.000  Cu
  Cu2      1.0000 0.15190  0.29130  0.66820  Biso   1.000  Cu
  S1       1.0000 0.09060  0.63290  0.88140  Biso   1.000  S
  S2       1.0000 0.90940  0.36710  0.11860  Biso   1.000  S
  S3       1.0000 0.39800  0.82450  0.24820  Biso   1.000  S
  S4       1.0000 0.60200  0.17550  0.75180  Biso   1.000  S
  S5       1.0000 0.36420  0.81330  0.70620  Biso   1.000  S
  S6       1.0000 0.63580  0.18670  0.29380  Biso   1.000  S
  N1       1.0000 0.92770  0.66900  0.13270  Biso   1.000  N
  N2       1.0000 0.07230  0.33100  0.86730  Biso   1.000  N
  N3       1.0000 0.66910  0.75670  0.28610  Biso   1.000  N
  N4       1.0000 0.33090  0.24330  0.71390  Biso   1.000  N
  N5       1.0000 0.04710  0.77680  0.49460  Biso   1.000  N
  N6       1.0000 0.95290  0.22320  0.50540  Biso   1.000  N
  N7       1.0000 0.15690  0.93570  0.18900  Biso   1.000  N
  N8       1.0000 0.84310  0.06430  0.81100  Biso   1.000  N
  N9       1.0000 0.88270  0.90570  0.04370  Biso   1.000  N
  N10      1.0000 0.11730  0.09430  0.95630  Biso   1.000  N
  N11      1.0000 0.77930  0.85160  0.90590  Biso   1.000  N
  N12      1.0000 0.22070  0.14840  0.09410  Biso   1.000  N
  N13      1.0000 0.03250  0.82870  0.94680  Biso   1.000  N
  N14      1.0000 0.96750  0.17130  0.05320  Biso   1.000  N
  N15      1.0000 0.67270  0.62690  0.64700  Biso   1.000  N
  N16      1.0000 0.32730  0.37310  0.35300  Biso   1.000  N
  N17      1.0000 0.73450  0.50510  0.54170  Biso   1.000  N
  N18      1.0000 0.26550  0.49490  0.45830  Biso   1.000  N
  N19      1.0000 0.79680  0.47360  0.41460  Biso   1.000  N
  N20      1.0000 0.20320  0.52640  0.58540  Biso   1.000  N
  N21      1.0000 0.79440  0.60360  0.41260  Biso   1.000  N
  N22      1.0000 0.20560  0.39640  0.58740  Biso   1.000  N
  C1       1.0000 0.99410  0.65360  0.02920  Biso   1.000  C
  C2       1.0000 0.00590  0.34640  0.97080  Biso   1.000  C
  C3       1.0000 0.55570  0.78230  0.26360  Biso   1.000  C
  C4       1.0000 0.44430  0.21770  0.73640  Biso   1.000  C
  C5       1.0000 0.16910  0.78940  0.57850  Biso   1.000  C
  C6       1.0000 0.83090  0.21060  0.42150  Biso   1.000  C
  C7       1.0000 0.97180  0.01200  0.26550  Biso   1.000  C
  C8       1.0000 0.02820  0.98800  0.73450  Biso   1.000  C
  C9       1.0000 0.12570  0.99470  0.28790  Biso   1.000  C
  C10      1.0000 0.87430  0.00530  0.71210  Biso   1.000  C
  C11      1.0000 0.03210  0.89190  0.06610  Biso   1.000  C
  C12      1.0000 0.96790  0.10810  0.93390  Biso   1.000  C
  C13      1.0000 0.84460  0.96650  0.13990  Biso   1.000  C
  C14      1.0000 0.15540  0.03350  0.86010  Biso   1.000  C
  C15      1.0000 0.87880  0.81150  0.85940  Biso   1.000  C
  C16      1.0000 0.12120  0.18850  0.14060  Biso   1.000  C
  C17      1.0000 0.26840  0.04440  0.42690  Biso   1.000  C
  C18      1.0000 0.73160  0.95560  0.57310  Biso   1.000  C
  C19      1.0000 0.67740  0.97800  0.09770  Biso   1.000  C
  C20      1.0000 0.32260  0.02200  0.90230  Biso   1.000  C
  C21      1.0000 0.62030  0.51110  0.76860  Biso   1.000  C
  C22      1.0000 0.37970  0.48890  0.23140  Biso   1.000  C
  C23      1.0000 0.61690  0.58970  0.75960  Biso   1.000  C
  C24      1.0000 0.38310  0.41030  0.24040  Biso   1.000  C
  C25      1.0000 0.73020  0.58170  0.53850  Biso   1.000  C
  C26      1.0000 0.26980  0.41830  0.46150  Biso   1.000  C
  C27      1.0000 0.67970  0.46570  0.65570  Biso   1.000  C
  C28      1.0000 0.32030  0.53430  0.34430  Biso   1.000  C
  C29      1.0000 0.83280  0.53630  0.34340  Biso   1.000  C
  C30      1.0000 0.16720  0.46370  0.65660  Biso   1.000  C
  C31      1.0000 0.54710  0.63790  0.87890  Biso   1.000  C
  C32      1.0000 0.45290  0.36210  0.12110  Biso   1.000  C
  C33      1.0000 0.68980  0.38190  0.64680  Biso   1.000  C
  C34      1.0000 0.31020  0.61810  0.35320  Biso   1.000  C
  H1       1.0000 0.95480  0.06200  0.34910  Biso   1.000  H
  H2       1.0000 0.04520  0.93800  0.65090  Biso   1.000  H
  H3       1.0000 0.83660  0.76380  0.74890  Biso   1.000  H
  H4       1.0000 0.16340  0.23620  0.25110  Biso   1.000  H
  H5       1.0000 0.23050  0.09070  0.50020  Biso   1.000  H
  H6       1.0000 0.76950  0.90930  0.49980  Biso   1.000  H
  H7       1.0000 0.36380  0.07130  0.37320  Biso   1.000  H
  H8       1.0000 0.63620  0.92870  0.62680  Biso   1.000  H
  H9       1.0000 0.31280  0.00670  0.50670  Biso   1.000  H
  H10      1.0000 0.68720  0.99330  0.49330  Biso   1.000  H
  H11      1.0000 0.66830  0.02840  0.18600  Biso   1.000  H
  H12      1.0000 0.33170  0.97160  0.81400  Biso   1.000  H
  H13      1.0000 0.59190  0.92490  0.10410  Biso   1.000  H
  H14      1.0000 0.40810  0.07510  0.89590  Biso   1.000  H
  H15      1.0000 0.65030  0.98910  0.97230  Biso   1.000  H
  H16      1.0000 0.34970  0.01090  0.02770  Biso   1.000  H
  H17      1.0000 0.57590  0.48550  0.86510  Biso   1.000  H
  H18      1.0000 0.42410  0.51450  0.13490  Biso   1.000  H
  H19      1.0000 0.88840  0.53350  0.23840  Biso   1.000  H
  H20      1.0000 0.11160  0.46650  0.76160  Biso   1.000  H
  H21      1.0000 0.50600  0.60230  0.96370  Biso   1.000  H
  H22      1.0000 0.49400  0.39770  0.03630  Biso   1.000  H
  H23      1.0000 0.44590  0.65560  0.80910  Biso   1.000  H
  H24      1.0000 0.55410  0.34440  0.19090  Biso   1.000  H
  H25      1.0000 0.63910  0.69050  0.94990  Biso   1.000  H
  H26      1.0000 0.36090  0.30950  0.05010  Biso   1.000  H
  H27      1.0000 0.64200  0.35930  0.74470  Biso   1.000  H
  H28      1.0000 0.35800  0.64070  0.25530  Biso   1.000  H
  H29      1.0000 0.81500  0.37900  0.66320  Biso   1.000  H
  H30      1.0000 0.18500  0.62100  0.33680  Biso   1.000  H
  H31      1.0000 0.61980  0.34610  0.52590  Biso   1.000  H
  H32      1.0000 0.38020  0.65390  0.47410  Biso   1.000  H
