data_image0
_cell_length_a       13.6671
_cell_length_b       11.6075
_cell_length_c       17.1225
_cell_angle_alpha    90
_cell_angle_beta     93.707
_cell_angle_gamma    90

_symmetry_space_group_name_H-M    "P 1"
_symmetry_int_tables_number       1

loop_
  _symmetry_equiv_pos_as_xyz
  'x, y, z'

loop_
  _atom_site_label
  _atom_site_occupancy
  _atom_site_fract_x
  _atom_site_fract_y
  _atom_site_fract_z
  _atom_site_thermal_displace_type
  _atom_site_B_iso_or_equiv
  _atom_site_type_symbol
  I1       1.0000 0.14865  0.05540  0.44772  Biso   1.000  I
  I2       1.0000 0.85135  0.05540  0.05228  Biso   1.000  I
  I3       1.0000 0.64865  0.55540  0.44772  Biso   1.000  I
  I4       1.0000 0.35135  0.55540  0.05228  Biso   1.000  I
  I5       1.0000 0.85135  0.94460  0.55228  Biso   1.000  I
  I6       1.0000 0.14865  0.94460  0.94772  Biso   1.000  I
  I7       1.0000 0.35135  0.44460  0.55228  Biso   1.000  I
  I8       1.0000 0.64865  0.44460  0.94772  Biso   1.000  I
  C1       1.0000 0.19090  0.58080  0.84580  Biso   1.000  C
  C2       1.0000 0.80910  0.58080  0.65420  Biso   1.000  C
  C3       1.0000 0.69090  0.08080  0.84580  Biso   1.000  C
  C4       1.0000 0.30910  0.08080  0.65420  Biso   1.000  C
  C5       1.0000 0.80910  0.41920  0.15420  Biso   1.000  C
  C6       1.0000 0.19090  0.41920  0.34580  Biso   1.000  C
  C7       1.0000 0.30910  0.91920  0.15420  Biso   1.000  C
  C8       1.0000 0.69090  0.91920  0.34580  Biso   1.000  C
  H1       1.0000 0.22670  0.52090  0.87490  Biso   1.000  H
  H2       1.0000 0.77330  0.52090  0.62510  Biso   1.000  H
  H3       1.0000 0.72670  0.02090  0.87490  Biso   1.000  H
  H4       1.0000 0.27330  0.02090  0.62510  Biso   1.000  H
  H5       1.0000 0.77330  0.47910  0.12510  Biso   1.000  H
  H6       1.0000 0.22670  0.47910  0.37490  Biso   1.000  H
  H7       1.0000 0.27330  0.97910  0.12510  Biso   1.000  H
  H8       1.0000 0.72670  0.97910  0.37490  Biso   1.000  H
  H9       1.0000 0.21820  0.65410  0.86370  Biso   1.000  H
  H10      1.0000 0.78180  0.65410  0.63630  Biso   1.000  H
  H11      1.0000 0.71820  0.15410  0.86370  Biso   1.000  H
  H12      1.0000 0.28180  0.15410  0.63630  Biso   1.000  H
  H13      1.0000 0.78180  0.34590  0.13630  Biso   1.000  H
  H14      1.0000 0.21820  0.34590  0.36370  Biso   1.000  H
  H15      1.0000 0.28180  0.84590  0.13630  Biso   1.000  H
  H16      1.0000 0.71820  0.84590  0.36370  Biso   1.000  H
  C9       1.0000 0.10550  0.88340  0.70590  Biso   1.000  C
  C10      1.0000 0.89450  0.88340  0.79410  Biso   1.000  C
  C11      1.0000 0.60550  0.38340  0.70590  Biso   1.000  C
  C12      1.0000 0.39450  0.38340  0.79410  Biso   1.000  C
  C13      1.0000 0.89450  0.11660  0.29410  Biso   1.000  C
  C14      1.0000 0.10550  0.11660  0.20590  Biso   1.000  C
  C15      1.0000 0.39450  0.61660  0.29410  Biso   1.000  C
  C16      1.0000 0.60550  0.61660  0.20590  Biso   1.000  C
  H17      1.0000 0.08330  0.94420  0.73540  Biso   1.000  H
  H18      1.0000 0.91670  0.94420  0.76460  Biso   1.000  H
  H19      1.0000 0.58330  0.44420  0.73540  Biso   1.000  H
  H20      1.0000 0.41670  0.44420  0.76460  Biso   1.000  H
  H21      1.0000 0.91670  0.05580  0.26460  Biso   1.000  H
  H22      1.0000 0.08330  0.05580  0.23540  Biso   1.000  H
  H23      1.0000 0.41670  0.55580  0.26460  Biso   1.000  H
  H24      1.0000 0.58330  0.55580  0.23540  Biso   1.000  H
  C17      1.0000 0.13840  0.78670  0.74410  Biso   1.000  C
  C18      1.0000 0.86160  0.78670  0.75590  Biso   1.000  C
  C19      1.0000 0.63840  0.28670  0.74410  Biso   1.000  C
  C20      1.0000 0.36160  0.28670  0.75590  Biso   1.000  C
  C21      1.0000 0.86160  0.21330  0.25590  Biso   1.000  C
  C22      1.0000 0.13840  0.21330  0.24410  Biso   1.000  C
  C23      1.0000 0.36160  0.71330  0.25590  Biso   1.000  C
  C24      1.0000 0.63840  0.71330  0.24410  Biso   1.000  C
  H25      1.0000 0.13940  0.78350  0.79840  Biso   1.000  H
  H26      1.0000 0.86060  0.78350  0.70160  Biso   1.000  H
  H27      1.0000 0.63940  0.28350  0.79840  Biso   1.000  H
  H28      1.0000 0.36060  0.28350  0.70160  Biso   1.000  H
  H29      1.0000 0.86060  0.21650  0.20160  Biso   1.000  H
  H30      1.0000 0.13940  0.21650  0.29840  Biso   1.000  H
  H31      1.0000 0.36060  0.71650  0.20160  Biso   1.000  H
  H32      1.0000 0.63940  0.71650  0.29840  Biso   1.000  H
  C25      1.0000 0.16990  0.69410  0.70290  Biso   1.000  C
  C26      1.0000 0.83010  0.69410  0.79710  Biso   1.000  C
  C27      1.0000 0.66990  0.19410  0.70290  Biso   1.000  C
  C28      1.0000 0.33010  0.19410  0.79710  Biso   1.000  C
  C29      1.0000 0.83010  0.30590  0.29710  Biso   1.000  C
  C30      1.0000 0.16990  0.30590  0.20290  Biso   1.000  C
  C31      1.0000 0.33010  0.80590  0.29710  Biso   1.000  C
  C32      1.0000 0.66990  0.80590  0.20290  Biso   1.000  C
  C33      1.0000 0.16890  0.70510  0.62180  Biso   1.000  C
  C34      1.0000 0.83110  0.70510  0.87820  Biso   1.000  C
  C35      1.0000 0.66890  0.20510  0.62180  Biso   1.000  C
  C36      1.0000 0.33110  0.20510  0.87820  Biso   1.000  C
  C37      1.0000 0.83110  0.29490  0.37820  Biso   1.000  C
  C38      1.0000 0.16890  0.29490  0.12180  Biso   1.000  C
  C39      1.0000 0.33110  0.79490  0.37820  Biso   1.000  C
  C40      1.0000 0.66890  0.79490  0.12180  Biso   1.000  C
  H33      1.0000 0.19100  0.64540  0.59120  Biso   1.000  H
  H34      1.0000 0.80900  0.64540  0.90880  Biso   1.000  H
  H35      1.0000 0.69100  0.14540  0.59120  Biso   1.000  H
  H36      1.0000 0.30900  0.14540  0.90880  Biso   1.000  H
  H37      1.0000 0.80900  0.35460  0.40880  Biso   1.000  H
  H38      1.0000 0.19100  0.35460  0.09120  Biso   1.000  H
  H39      1.0000 0.30900  0.85460  0.40880  Biso   1.000  H
  H40      1.0000 0.69100  0.85460  0.09120  Biso   1.000  H
  C41      1.0000 0.13500  0.80510  0.58810  Biso   1.000  C
  C42      1.0000 0.86500  0.80510  0.91190  Biso   1.000  C
  C43      1.0000 0.63500  0.30510  0.58810  Biso   1.000  C
  C44      1.0000 0.36500  0.30510  0.91190  Biso   1.000  C
  C45      1.0000 0.86500  0.19490  0.41190  Biso   1.000  C
  C46      1.0000 0.13500  0.19490  0.08810  Biso   1.000  C
  C47      1.0000 0.36500  0.69490  0.41190  Biso   1.000  C
  C48      1.0000 0.63500  0.69490  0.08810  Biso   1.000  C
  H41      1.0000 0.13370  0.81070  0.53390  Biso   1.000  H
  H42      1.0000 0.86630  0.81070  0.96610  Biso   1.000  H
  H43      1.0000 0.63370  0.31070  0.53390  Biso   1.000  H
  H44      1.0000 0.36630  0.31070  0.96610  Biso   1.000  H
  H45      1.0000 0.86630  0.18930  0.46610  Biso   1.000  H
  H46      1.0000 0.13370  0.18930  0.03390  Biso   1.000  H
  H47      1.0000 0.36630  0.68930  0.46610  Biso   1.000  H
  H48      1.0000 0.63370  0.68930  0.03390  Biso   1.000  H
  C49      1.0000 0.06190  0.22840  0.85320  Biso   1.000  C
  C50      1.0000 0.93810  0.22840  0.64680  Biso   1.000  C
  C51      1.0000 0.56190  0.72840  0.85320  Biso   1.000  C
  C52      1.0000 0.43810  0.72840  0.64680  Biso   1.000  C
  C53      1.0000 0.93810  0.77160  0.14680  Biso   1.000  C
  C54      1.0000 0.06190  0.77160  0.35320  Biso   1.000  C
  C55      1.0000 0.43810  0.27160  0.14680  Biso   1.000  C
  C56      1.0000 0.56190  0.27160  0.35320  Biso   1.000  C
  H49      1.0000 0.09970  0.17020  0.83320  Biso   1.000  H
  H50      1.0000 0.90030  0.17020  0.66680  Biso   1.000  H
  H51      1.0000 0.59970  0.67020  0.83320  Biso   1.000  H
  H52      1.0000 0.40030  0.67020  0.66680  Biso   1.000  H
  H53      1.0000 0.90030  0.82980  0.16680  Biso   1.000  H
  H54      1.0000 0.09970  0.82980  0.33320  Biso   1.000  H
  H55      1.0000 0.40030  0.32980  0.16680  Biso   1.000  H
  H56      1.0000 0.59970  0.32980  0.33320  Biso   1.000  H
  C57      1.0000 0.09190  0.34000  0.84350  Biso   1.000  C
  C58      1.0000 0.90810  0.34000  0.65650  Biso   1.000  C
  C59      1.0000 0.59190  0.84000  0.84350  Biso   1.000  C
  C60      1.0000 0.40810  0.84000  0.65650  Biso   1.000  C
  C61      1.0000 0.90810  0.66000  0.15650  Biso   1.000  C
  C62      1.0000 0.09190  0.66000  0.34350  Biso   1.000  C
  C63      1.0000 0.40810  0.16000  0.15650  Biso   1.000  C
  C64      1.0000 0.59190  0.16000  0.34350  Biso   1.000  C
  H57      1.0000 0.14840  0.35560  0.81780  Biso   1.000  H
  H58      1.0000 0.85160  0.35560  0.68220  Biso   1.000  H
  H59      1.0000 0.64840  0.85560  0.81780  Biso   1.000  H
  H60      1.0000 0.35160  0.85560  0.68220  Biso   1.000  H
  H61      1.0000 0.85160  0.64440  0.18220  Biso   1.000  H
  H62      1.0000 0.14840  0.64440  0.31780  Biso   1.000  H
  H63      1.0000 0.35160  0.14440  0.18220  Biso   1.000  H
  H64      1.0000 0.64840  0.14440  0.31780  Biso   1.000  H
  C65      1.0000 0.03760  0.42860  0.87200  Biso   1.000  C
  C66      1.0000 0.96240  0.42860  0.62800  Biso   1.000  C
  C67      1.0000 0.53760  0.92860  0.87200  Biso   1.000  C
  C68      1.0000 0.46240  0.92860  0.62800  Biso   1.000  C
  C69      1.0000 0.96240  0.57140  0.12800  Biso   1.000  C
  C70      1.0000 0.03760  0.57140  0.37200  Biso   1.000  C
  C71      1.0000 0.46240  0.07140  0.12800  Biso   1.000  C
  C72      1.0000 0.53760  0.07140  0.37200  Biso   1.000  C
  C73      1.0000 0.95310  0.39690  0.90750  Biso   1.000  C
  C74      1.0000 0.04690  0.39690  0.59250  Biso   1.000  C
  C75      1.0000 0.45310  0.89690  0.90750  Biso   1.000  C
  C76      1.0000 0.54690  0.89690  0.59250  Biso   1.000  C
  C77      1.0000 0.04690  0.60310  0.09250  Biso   1.000  C
  C78      1.0000 0.95310  0.60310  0.40750  Biso   1.000  C
  C79      1.0000 0.54690  0.10310  0.09250  Biso   1.000  C
  C80      1.0000 0.45310  0.10310  0.40750  Biso   1.000  C
  H65      1.0000 0.91310  0.45350  0.92690  Biso   1.000  H
  H66      1.0000 0.08690  0.45350  0.57310  Biso   1.000  H
  H67      1.0000 0.41310  0.95350  0.92690  Biso   1.000  H
  H68      1.0000 0.58690  0.95350  0.57310  Biso   1.000  H
  H69      1.0000 0.08690  0.54650  0.07310  Biso   1.000  H
  H70      1.0000 0.91310  0.54650  0.42690  Biso   1.000  H
  H71      1.0000 0.58690  0.04650  0.07310  Biso   1.000  H
  H72      1.0000 0.41310  0.04650  0.42690  Biso   1.000  H
  C81      1.0000 0.92820  0.28440  0.91420  Biso   1.000  C
  C82      1.0000 0.07180  0.28440  0.58580  Biso   1.000  C
  C83      1.0000 0.42820  0.78440  0.91420  Biso   1.000  C
  C84      1.0000 0.57180  0.78440  0.58580  Biso   1.000  C
  C85      1.0000 0.07180  0.71560  0.08580  Biso   1.000  C
  C86      1.0000 0.92820  0.71560  0.41420  Biso   1.000  C
  C87      1.0000 0.57180  0.21560  0.08580  Biso   1.000  C
  C88      1.0000 0.42820  0.21560  0.41420  Biso   1.000  C
  H73      1.0000 0.87030  0.26680  0.93740  Biso   1.000  H
  H74      1.0000 0.12970  0.26680  0.56260  Biso   1.000  H
  H75      1.0000 0.37030  0.76680  0.93740  Biso   1.000  H
  H76      1.0000 0.62970  0.76680  0.56260  Biso   1.000  H
  H77      1.0000 0.12970  0.73320  0.06260  Biso   1.000  H
  H78      1.0000 0.87030  0.73320  0.43740  Biso   1.000  H
  H79      1.0000 0.62970  0.23320  0.06260  Biso   1.000  H
  H80      1.0000 0.37030  0.23320  0.43740  Biso   1.000  H
  Cu1      1.0000 0.03933  0.03420  0.57365  Biso   1.000  Cu
  Cu2      1.0000 0.96067  0.03420  0.92635  Biso   1.000  Cu
  Cu3      1.0000 0.53933  0.53420  0.57365  Biso   1.000  Cu
  Cu4      1.0000 0.46067  0.53420  0.92635  Biso   1.000  Cu
  Cu5      1.0000 0.96067  0.96580  0.42635  Biso   1.000  Cu
  Cu6      1.0000 0.03933  0.96580  0.07365  Biso   1.000  Cu
  Cu7      1.0000 0.46067  0.46580  0.42635  Biso   1.000  Cu
  Cu8      1.0000 0.53933  0.46580  0.07365  Biso   1.000  Cu
  N1       1.0000 0.10350  0.89560  0.62770  Biso   1.000  N
  N2       1.0000 0.89650  0.89560  0.87230  Biso   1.000  N
  N3       1.0000 0.60350  0.39560  0.62770  Biso   1.000  N
  N4       1.0000 0.39650  0.39560  0.87230  Biso   1.000  N
  N5       1.0000 0.89650  0.10440  0.37230  Biso   1.000  N
  N6       1.0000 0.10350  0.10440  0.12770  Biso   1.000  N
  N7       1.0000 0.39650  0.60440  0.37230  Biso   1.000  N
  N8       1.0000 0.60350  0.60440  0.12770  Biso   1.000  N
  N9       1.0000 0.98240  0.19720  0.88940  Biso   1.000  N
  N10      1.0000 0.01760  0.19720  0.61060  Biso   1.000  N
  N11      1.0000 0.48240  0.69720  0.88940  Biso   1.000  N
  N12      1.0000 0.51760  0.69720  0.61060  Biso   1.000  N
  N13      1.0000 0.01760  0.80280  0.11060  Biso   1.000  N
  N14      1.0000 0.98240  0.80280  0.38940  Biso   1.000  N
  N15      1.0000 0.51760  0.30280  0.11060  Biso   1.000  N
  N16      1.0000 0.48240  0.30280  0.38940  Biso   1.000  N
  S1       1.0000 0.21430  0.56463  0.74386  Biso   1.000  S
  S2       1.0000 0.78570  0.56463  0.75614  Biso   1.000  S
  S3       1.0000 0.71430  0.06463  0.74386  Biso   1.000  S
  S4       1.0000 0.28570  0.06463  0.75614  Biso   1.000  S
  S5       1.0000 0.78570  0.43537  0.25614  Biso   1.000  S
  S6       1.0000 0.21430  0.43537  0.24386  Biso   1.000  S
  S7       1.0000 0.28570  0.93537  0.25614  Biso   1.000  S
  S8       1.0000 0.71430  0.93537  0.24386  Biso   1.000  S
  S9       1.0000 0.06603  0.57539  0.87071  Biso   1.000  S
  S10      1.0000 0.93397  0.57539  0.62929  Biso   1.000  S
  S11      1.0000 0.56603  0.07539  0.87071  Biso   1.000  S
  S12      1.0000 0.43397  0.07539  0.62929  Biso   1.000  S
  S13      1.0000 0.93397  0.42461  0.12929  Biso   1.000  S
  S14      1.0000 0.06603  0.42461  0.37071  Biso   1.000  S
  S15      1.0000 0.43397  0.92461  0.12929  Biso   1.000  S
  S16      1.0000 0.56603  0.92461  0.37071  Biso   1.000  S
