data_image0
_cell_length_a       13.6695
_cell_length_b       11.5996
_cell_length_c       17.1524
_cell_angle_alpha    90
_cell_angle_beta     93.673
_cell_angle_gamma    90

_symmetry_space_group_name_H-M    "P 1"
_symmetry_int_tables_number       1

loop_
  _symmetry_equiv_pos_as_xyz
  'x, y, z'

loop_
  _atom_site_label
  _atom_site_occupancy
  _atom_site_fract_x
  _atom_site_fract_y
  _atom_site_fract_z
  _atom_site_thermal_displace_type
  _atom_site_B_iso_or_equiv
  _atom_site_type_symbol
  I1       1.0000 0.14879  0.44448  0.44774  Biso   1.000  I
  I2       1.0000 0.64879  0.94448  0.44774  Biso   1.000  I
  I3       1.0000 0.85121  0.44448  0.05226  Biso   1.000  I
  I4       1.0000 0.35121  0.94448  0.05226  Biso   1.000  I
  I5       1.0000 0.85121  0.55552  0.55226  Biso   1.000  I
  I6       1.0000 0.35121  0.05552  0.55226  Biso   1.000  I
  I7       1.0000 0.14879  0.55552  0.94774  Biso   1.000  I
  I8       1.0000 0.64879  0.05552  0.94774  Biso   1.000  I
  Cu1      1.0000 0.96090  0.53429  0.42665  Biso   1.000  Cu
  Cu2      1.0000 0.46090  0.03429  0.42665  Biso   1.000  Cu
  Cu3      1.0000 0.03910  0.53429  0.07335  Biso   1.000  Cu
  Cu4      1.0000 0.53910  0.03429  0.07335  Biso   1.000  Cu
  Cu5      1.0000 0.03910  0.46571  0.57335  Biso   1.000  Cu
  Cu6      1.0000 0.53910  0.96571  0.57335  Biso   1.000  Cu
  Cu7      1.0000 0.96090  0.46571  0.92665  Biso   1.000  Cu
  Cu8      1.0000 0.46090  0.96571  0.92665  Biso   1.000  Cu
  S1       1.0000 0.78569  0.06493  0.25605  Biso   1.000  S
  S2       1.0000 0.28569  0.56493  0.25605  Biso   1.000  S
  S3       1.0000 0.21431  0.06493  0.24395  Biso   1.000  S
  S4       1.0000 0.71431  0.56493  0.24395  Biso   1.000  S
  S5       1.0000 0.21431  0.93507  0.74395  Biso   1.000  S
  S6       1.0000 0.71431  0.43507  0.74395  Biso   1.000  S
  S7       1.0000 0.78569  0.93507  0.75605  Biso   1.000  S
  S8       1.0000 0.28569  0.43507  0.75605  Biso   1.000  S
  S9       1.0000 0.93412  0.07621  0.12943  Biso   1.000  S
  S10      1.0000 0.43412  0.57621  0.12943  Biso   1.000  S
  S11      1.0000 0.06588  0.07621  0.37057  Biso   1.000  S
  S12      1.0000 0.56588  0.57621  0.37057  Biso   1.000  S
  S13      1.0000 0.06588  0.92379  0.87057  Biso   1.000  S
  S14      1.0000 0.56588  0.42379  0.87057  Biso   1.000  S
  S15      1.0000 0.93412  0.92379  0.62943  Biso   1.000  S
  S16      1.0000 0.43412  0.42379  0.62943  Biso   1.000  S
  C1       1.0000 0.89439  0.38460  0.29536  Biso   1.000  C
  C2       1.0000 0.39439  0.88460  0.29536  Biso   1.000  C
  C3       1.0000 0.10561  0.38460  0.20464  Biso   1.000  C
  C4       1.0000 0.60561  0.88460  0.20464  Biso   1.000  C
  C5       1.0000 0.10561  0.61540  0.70464  Biso   1.000  C
  C6       1.0000 0.60561  0.11540  0.70464  Biso   1.000  C
  C7       1.0000 0.89439  0.61540  0.79536  Biso   1.000  C
  C8       1.0000 0.39439  0.11540  0.79536  Biso   1.000  C
  H1       1.0000 0.91600  0.44640  0.26650  Biso   1.000  H
  H2       1.0000 0.41600  0.94640  0.26650  Biso   1.000  H
  H3       1.0000 0.08400  0.44640  0.23350  Biso   1.000  H
  H4       1.0000 0.58400  0.94640  0.23350  Biso   1.000  H
  H5       1.0000 0.08400  0.55360  0.73350  Biso   1.000  H
  H6       1.0000 0.58400  0.05360  0.73350  Biso   1.000  H
  H7       1.0000 0.91600  0.55360  0.76650  Biso   1.000  H
  H8       1.0000 0.41600  0.05360  0.76650  Biso   1.000  H
  C9       1.0000 0.86239  0.28750  0.25519  Biso   1.000  C
  C10      1.0000 0.36239  0.78750  0.25519  Biso   1.000  C
  C11      1.0000 0.13761  0.28750  0.24481  Biso   1.000  C
  C12      1.0000 0.63761  0.78750  0.24481  Biso   1.000  C
  C13      1.0000 0.13761  0.71250  0.74481  Biso   1.000  C
  C14      1.0000 0.63761  0.21250  0.74481  Biso   1.000  C
  C15      1.0000 0.86239  0.71250  0.75519  Biso   1.000  C
  C16      1.0000 0.36239  0.21250  0.75519  Biso   1.000  C
  H9       1.0000 0.86260  0.28450  0.20100  Biso   1.000  H
  H10      1.0000 0.36260  0.78450  0.20100  Biso   1.000  H
  H11      1.0000 0.13740  0.28450  0.29900  Biso   1.000  H
  H12      1.0000 0.63740  0.78450  0.29900  Biso   1.000  H
  H13      1.0000 0.13740  0.71550  0.79900  Biso   1.000  H
  H14      1.0000 0.63740  0.21550  0.79900  Biso   1.000  H
  H15      1.0000 0.86260  0.71550  0.70100  Biso   1.000  H
  H16      1.0000 0.36260  0.21550  0.70100  Biso   1.000  H
  C17      1.0000 0.82977  0.19430  0.29706  Biso   1.000  C
  C18      1.0000 0.32977  0.69430  0.29706  Biso   1.000  C
  C19      1.0000 0.17023  0.19430  0.20294  Biso   1.000  C
  C20      1.0000 0.67023  0.69430  0.20294  Biso   1.000  C
  C21      1.0000 0.17023  0.80570  0.70294  Biso   1.000  C
  C22      1.0000 0.67023  0.30570  0.70294  Biso   1.000  C
  C23      1.0000 0.82977  0.80570  0.79706  Biso   1.000  C
  C24      1.0000 0.32977  0.30570  0.79706  Biso   1.000  C
  C25      1.0000 0.83090  0.20540  0.37750  Biso   1.000  C
  C26      1.0000 0.33090  0.70540  0.37750  Biso   1.000  C
  C27      1.0000 0.16910  0.20540  0.12250  Biso   1.000  C
  C28      1.0000 0.66910  0.70540  0.12250  Biso   1.000  C
  C29      1.0000 0.16910  0.79460  0.62250  Biso   1.000  C
  C30      1.0000 0.66910  0.29460  0.62250  Biso   1.000  C
  C31      1.0000 0.83090  0.79460  0.87750  Biso   1.000  C
  C32      1.0000 0.33090  0.29460  0.87750  Biso   1.000  C
  H17      1.0000 0.80910  0.14520  0.40770  Biso   1.000  H
  H18      1.0000 0.30910  0.64520  0.40770  Biso   1.000  H
  H19      1.0000 0.19090  0.14520  0.09230  Biso   1.000  H
  H20      1.0000 0.69090  0.64520  0.09230  Biso   1.000  H
  H21      1.0000 0.19090  0.85480  0.59230  Biso   1.000  H
  H22      1.0000 0.69090  0.35480  0.59230  Biso   1.000  H
  H23      1.0000 0.80910  0.85480  0.90770  Biso   1.000  H
  H24      1.0000 0.30910  0.35480  0.90770  Biso   1.000  H
  C33      1.0000 0.86420  0.30520  0.41235  Biso   1.000  C
  C34      1.0000 0.36420  0.80520  0.41235  Biso   1.000  C
  C35      1.0000 0.13580  0.30520  0.08765  Biso   1.000  C
  C36      1.0000 0.63580  0.80520  0.08765  Biso   1.000  C
  C37      1.0000 0.13580  0.69480  0.58765  Biso   1.000  C
  C38      1.0000 0.63580  0.19480  0.58765  Biso   1.000  C
  C39      1.0000 0.86420  0.69480  0.91235  Biso   1.000  C
  C40      1.0000 0.36420  0.19480  0.91235  Biso   1.000  C
  H25      1.0000 0.86460  0.31070  0.46650  Biso   1.000  H
  H26      1.0000 0.36460  0.81070  0.46650  Biso   1.000  H
  H27      1.0000 0.13540  0.31070  0.03350  Biso   1.000  H
  H28      1.0000 0.63540  0.81070  0.03350  Biso   1.000  H
  H29      1.0000 0.13540  0.68930  0.53350  Biso   1.000  H
  H30      1.0000 0.63540  0.18930  0.53350  Biso   1.000  H
  H31      1.0000 0.86460  0.68930  0.96650  Biso   1.000  H
  H32      1.0000 0.36460  0.18930  0.96650  Biso   1.000  H
  C41      1.0000 0.80860  0.08050  0.15416  Biso   1.000  C
  C42      1.0000 0.30860  0.58050  0.15416  Biso   1.000  C
  C43      1.0000 0.19140  0.08050  0.34584  Biso   1.000  C
  C44      1.0000 0.69140  0.58050  0.34584  Biso   1.000  C
  C45      1.0000 0.19140  0.91950  0.84584  Biso   1.000  C
  C46      1.0000 0.69140  0.41950  0.84584  Biso   1.000  C
  C47      1.0000 0.80860  0.91950  0.65416  Biso   1.000  C
  C48      1.0000 0.30860  0.41950  0.65416  Biso   1.000  C
  H33      1.0000 0.77340  0.01980  0.12530  Biso   1.000  H
  H34      1.0000 0.27340  0.51980  0.12530  Biso   1.000  H
  H35      1.0000 0.22660  0.01980  0.37470  Biso   1.000  H
  H36      1.0000 0.72660  0.51980  0.37470  Biso   1.000  H
  H37      1.0000 0.22660  0.98020  0.87470  Biso   1.000  H
  H38      1.0000 0.72660  0.48020  0.87470  Biso   1.000  H
  H39      1.0000 0.77340  0.98020  0.62530  Biso   1.000  H
  H40      1.0000 0.27340  0.48020  0.62530  Biso   1.000  H
  H41      1.0000 0.78080  0.15330  0.13600  Biso   1.000  H
  H42      1.0000 0.28080  0.65330  0.13600  Biso   1.000  H
  H43      1.0000 0.21920  0.15330  0.36400  Biso   1.000  H
  H44      1.0000 0.71920  0.65330  0.36400  Biso   1.000  H
  H45      1.0000 0.21920  0.84670  0.86400  Biso   1.000  H
  H46      1.0000 0.71920  0.34670  0.86400  Biso   1.000  H
  H47      1.0000 0.78080  0.84670  0.63600  Biso   1.000  H
  H48      1.0000 0.28080  0.34670  0.63600  Biso   1.000  H
  C49      1.0000 0.96260  0.92910  0.12739  Biso   1.000  C
  C50      1.0000 0.46260  0.42910  0.12739  Biso   1.000  C
  C51      1.0000 0.03740  0.92910  0.37261  Biso   1.000  C
  C52      1.0000 0.53740  0.42910  0.37261  Biso   1.000  C
  C53      1.0000 0.03740  0.07090  0.87261  Biso   1.000  C
  C54      1.0000 0.53740  0.57090  0.87261  Biso   1.000  C
  C55      1.0000 0.96260  0.07090  0.62739  Biso   1.000  C
  C56      1.0000 0.46260  0.57090  0.62739  Biso   1.000  C
  C57      1.0000 0.04750  0.89870  0.09230  Biso   1.000  C
  C58      1.0000 0.54750  0.39870  0.09230  Biso   1.000  C
  C59      1.0000 0.95250  0.89870  0.40770  Biso   1.000  C
  C60      1.0000 0.45250  0.39870  0.40770  Biso   1.000  C
  C61      1.0000 0.95250  0.10130  0.90770  Biso   1.000  C
  C62      1.0000 0.45250  0.60130  0.90770  Biso   1.000  C
  C63      1.0000 0.04750  0.10130  0.59230  Biso   1.000  C
  C64      1.0000 0.54750  0.60130  0.59230  Biso   1.000  C
  H49      1.0000 0.08790  0.95560  0.07360  Biso   1.000  H
  H50      1.0000 0.58790  0.45560  0.07360  Biso   1.000  H
  H51      1.0000 0.91210  0.95560  0.42640  Biso   1.000  H
  H52      1.0000 0.41210  0.45560  0.42640  Biso   1.000  H
  H53      1.0000 0.91210  0.04440  0.92640  Biso   1.000  H
  H54      1.0000 0.41210  0.54440  0.92640  Biso   1.000  H
  H55      1.0000 0.08790  0.04440  0.57360  Biso   1.000  H
  H56      1.0000 0.58790  0.54440  0.57360  Biso   1.000  H
  C65      1.0000 0.07200  0.78520  0.08520  Biso   1.000  C
  C66      1.0000 0.57200  0.28520  0.08520  Biso   1.000  C
  C67      1.0000 0.92800  0.78520  0.41480  Biso   1.000  C
  C68      1.0000 0.42800  0.28520  0.41480  Biso   1.000  C
  C69      1.0000 0.92800  0.21480  0.91480  Biso   1.000  C
  C70      1.0000 0.42800  0.71480  0.91480  Biso   1.000  C
  C71      1.0000 0.07200  0.21480  0.58520  Biso   1.000  C
  C72      1.0000 0.57200  0.71480  0.58520  Biso   1.000  C
  H57      1.0000 0.12960  0.76750  0.06180  Biso   1.000  H
  H58      1.0000 0.62960  0.26750  0.06180  Biso   1.000  H
  H59      1.0000 0.87040  0.76750  0.43820  Biso   1.000  H
  H60      1.0000 0.37040  0.26750  0.43820  Biso   1.000  H
  H61      1.0000 0.87040  0.23250  0.93820  Biso   1.000  H
  H62      1.0000 0.37040  0.73250  0.93820  Biso   1.000  H
  H63      1.0000 0.12960  0.23250  0.56180  Biso   1.000  H
  H64      1.0000 0.62960  0.73250  0.56180  Biso   1.000  H
  C73      1.0000 0.93770  0.72790  0.14650  Biso   1.000  C
  C74      1.0000 0.43770  0.22790  0.14650  Biso   1.000  C
  C75      1.0000 0.06230  0.72790  0.35350  Biso   1.000  C
  C76      1.0000 0.56230  0.22790  0.35350  Biso   1.000  C
  C77      1.0000 0.06230  0.27210  0.85350  Biso   1.000  C
  C78      1.0000 0.56230  0.77210  0.85350  Biso   1.000  C
  C79      1.0000 0.93770  0.27210  0.64650  Biso   1.000  C
  C80      1.0000 0.43770  0.77210  0.64650  Biso   1.000  C
  H65      1.0000 0.89980  0.66950  0.16630  Biso   1.000  H
  H66      1.0000 0.39980  0.16950  0.16630  Biso   1.000  H
  H67      1.0000 0.10020  0.66950  0.33370  Biso   1.000  H
  H68      1.0000 0.60020  0.16950  0.33370  Biso   1.000  H
  H69      1.0000 0.10020  0.33050  0.83370  Biso   1.000  H
  H70      1.0000 0.60020  0.83050  0.83370  Biso   1.000  H
  H71      1.0000 0.89980  0.33050  0.66630  Biso   1.000  H
  H72      1.0000 0.39980  0.83050  0.66630  Biso   1.000  H
  C81      1.0000 0.90810  0.84010  0.15670  Biso   1.000  C
  C82      1.0000 0.40810  0.34010  0.15670  Biso   1.000  C
  C83      1.0000 0.09190  0.84010  0.34330  Biso   1.000  C
  C84      1.0000 0.59190  0.34010  0.34330  Biso   1.000  C
  C85      1.0000 0.09190  0.15990  0.84330  Biso   1.000  C
  C86      1.0000 0.59190  0.65990  0.84330  Biso   1.000  C
  C87      1.0000 0.90810  0.15990  0.65670  Biso   1.000  C
  C88      1.0000 0.40810  0.65990  0.65670  Biso   1.000  C
  H73      1.0000 0.85220  0.85600  0.18290  Biso   1.000  H
  H74      1.0000 0.35220  0.35600  0.18290  Biso   1.000  H
  H75      1.0000 0.14780  0.85600  0.31710  Biso   1.000  H
  H76      1.0000 0.64780  0.35600  0.31710  Biso   1.000  H
  H77      1.0000 0.14780  0.14400  0.81710  Biso   1.000  H
  H78      1.0000 0.64780  0.64400  0.81710  Biso   1.000  H
  H79      1.0000 0.85220  0.14400  0.68290  Biso   1.000  H
  H80      1.0000 0.35220  0.64400  0.68290  Biso   1.000  H
  N1       1.0000 0.89648  0.39579  0.37225  Biso   1.000  N
  N2       1.0000 0.39648  0.89579  0.37225  Biso   1.000  N
  N3       1.0000 0.10352  0.39579  0.12775  Biso   1.000  N
  N4       1.0000 0.60352  0.89579  0.12775  Biso   1.000  N
  N5       1.0000 0.10352  0.60421  0.62775  Biso   1.000  N
  N6       1.0000 0.60352  0.10421  0.62775  Biso   1.000  N
  N7       1.0000 0.89648  0.60421  0.87225  Biso   1.000  N
  N8       1.0000 0.39648  0.10421  0.87225  Biso   1.000  N
  N9       1.0000 0.01744  0.69730  0.11012  Biso   1.000  N
  N10      1.0000 0.51744  0.19730  0.11012  Biso   1.000  N
  N11      1.0000 0.98256  0.69730  0.38988  Biso   1.000  N
  N12      1.0000 0.48256  0.19730  0.38988  Biso   1.000  N
  N13      1.0000 0.98256  0.30270  0.88988  Biso   1.000  N
  N14      1.0000 0.48256  0.80270  0.88988  Biso   1.000  N
  N15      1.0000 0.01744  0.30270  0.61012  Biso   1.000  N
  N16      1.0000 0.51744  0.80270  0.61012  Biso   1.000  N
