data_image0
_cell_length_a       3.9053
_cell_length_b       10.0675
_cell_length_c       15.887
_cell_angle_alpha    108.34
_cell_angle_beta     90.028
_cell_angle_gamma    98.315

_symmetry_space_group_name_H-M    "P 1"
_symmetry_int_tables_number       1

loop_
  _symmetry_equiv_pos_as_xyz
  'x, y, z'

loop_
  _atom_site_label
  _atom_site_occupancy
  _atom_site_fract_x
  _atom_site_fract_y
  _atom_site_fract_z
  _atom_site_thermal_displace_type
  _atom_site_B_iso_or_equiv
  _atom_site_type_symbol
  Cu1      1.0000 0.08306  0.84071  0.30729  Biso   1.000  Cu
  Cu2      1.0000 0.91694  0.15929  0.69271  Biso   1.000  Cu
  Cu3      1.0000 0.59623  0.65611  0.17886  Biso   1.000  Cu
  Cu4      1.0000 0.40377  0.34389  0.82114  Biso   1.000  Cu
  Br1      1.0000 0.14116  0.76337  0.13196  Biso   1.000  Br
  Br2      1.0000 0.85884  0.23663  0.86804  Biso   1.000  Br
  Br3      1.0000 0.51384  0.72847  0.35338  Biso   1.000  Br
  Br4      1.0000 0.48616  0.27153  0.64662  Biso   1.000  Br
  N1       1.0000 0.00820  0.04180  0.33530  Biso   1.000  N
  N2       1.0000 0.99180  0.95820  0.66470  Biso   1.000  N
  N3       1.0000 0.56680  0.44660  0.15370  Biso   1.000  N
  N4       1.0000 0.43320  0.55340  0.84630  Biso   1.000  N
  C1       1.0000 0.04320  0.13400  0.41860  Biso   1.000  C
  C2       1.0000 0.95680  0.86600  0.58140  Biso   1.000  C
  H1       1.0000 0.12930  0.10570  0.46380  Biso   1.000  H
  H2       1.0000 0.87070  0.89430  0.53620  Biso   1.000  H
  C3       1.0000 0.95700  0.26770  0.43940  Biso   1.000  C
  C4       1.0000 0.04300  0.73230  0.56060  Biso   1.000  C
  H3       1.0000 0.98480  0.32860  0.49750  Biso   1.000  H
  H4       1.0000 0.01520  0.67140  0.50250  Biso   1.000  H
  C5       1.0000 0.82830  0.31070  0.37260  Biso   1.000  C
  C6       1.0000 0.17170  0.68930  0.62740  Biso   1.000  C
  H5       1.0000 0.76620  0.40060  0.38580  Biso   1.000  H
  H6       1.0000 0.23380  0.59940  0.61420  Biso   1.000  H
  C7       1.0000 0.79220  0.21930  0.28580  Biso   1.000  C
  C8       1.0000 0.20780  0.78070  0.71420  Biso   1.000  C
  C9       1.0000 0.88340  0.08580  0.27140  Biso   1.000  C
  C10      1.0000 0.11660  0.91420  0.72860  Biso   1.000  C
  H7       1.0000 0.85650  0.02280  0.21380  Biso   1.000  H
  H8       1.0000 0.14350  0.97720  0.78620  Biso   1.000  H
  C11      1.0000 0.69540  0.40070  0.21620  Biso   1.000  C
  C12      1.0000 0.30460  0.59930  0.78380  Biso   1.000  C
  H9       1.0000 0.81680  0.46740  0.26550  Biso   1.000  H
  H10      1.0000 0.18320  0.53260  0.73450  Biso   1.000  H
  C13      1.0000 0.65700  0.25890  0.21130  Biso   1.000  C
  C14      1.0000 0.34300  0.74110  0.78870  Biso   1.000  C
  C15      1.0000 0.48960  0.16030  0.13510  Biso   1.000  C
  C16      1.0000 0.51040  0.83970  0.86490  Biso   1.000  C
  H11      1.0000 0.46050  0.06420  0.12870  Biso   1.000  H
  H12      1.0000 0.53950  0.93580  0.87130  Biso   1.000  H
  C17      1.0000 0.36700  0.20590  0.06930  Biso   1.000  C
  C18      1.0000 0.63300  0.79410  0.93070  Biso   1.000  C
  H13      1.0000 0.25890  0.14080  0.01750  Biso   1.000  H
  H14      1.0000 0.74110  0.85920  0.98250  Biso   1.000  H
  C19      1.0000 0.40650  0.35000  0.08110  Biso   1.000  C
  C20      1.0000 0.59350  0.65000  0.91890  Biso   1.000  C
  H15      1.0000 0.31870  0.38020  0.03700  Biso   1.000  H
  H16      1.0000 0.68130  0.61980  0.96300  Biso   1.000  H
