data_image0
_cell_length_a       9.0835
_cell_length_b       16.4363
_cell_length_c       6.7592
_cell_angle_alpha    90
_cell_angle_beta     110.34
_cell_angle_gamma    90

_symmetry_space_group_name_H-M    "P 1"
_symmetry_int_tables_number       1

loop_
  _symmetry_equiv_pos_as_xyz
  'x, y, z'

loop_
  _atom_site_label
  _atom_site_occupancy
  _atom_site_fract_x
  _atom_site_fract_y
  _atom_site_fract_z
  _atom_site_thermal_displace_type
  _atom_site_B_iso_or_equiv
  _atom_site_type_symbol
  Cu1      1.0000 0.35200  0.17954  0.23122  Biso   1.000  Cu
  Cu2      1.0000 0.64800  0.67954  0.26878  Biso   1.000  Cu
  Cu3      1.0000 0.64800  0.82046  0.76878  Biso   1.000  Cu
  Cu4      1.0000 0.35200  0.32046  0.73122  Biso   1.000  Cu
  Cl1      1.0000 0.37476  0.18655  0.88639  Biso   1.000  Cl
  Cl2      1.0000 0.62524  0.68655  0.61361  Biso   1.000  Cl
  Cl3      1.0000 0.62524  0.81345  0.11361  Biso   1.000  Cl
  Cl4      1.0000 0.37476  0.31345  0.38639  Biso   1.000  Cl
  N1       1.0000 0.53760  0.11361  0.39900  Biso   1.000  N
  N2       1.0000 0.46240  0.61361  0.10100  Biso   1.000  N
  N3       1.0000 0.46240  0.88639  0.60100  Biso   1.000  N
  N4       1.0000 0.53760  0.38639  0.89900  Biso   1.000  N
  N5       1.0000 0.12340  0.15752  0.17000  Biso   1.000  N
  N6       1.0000 0.87660  0.65752  0.33000  Biso   1.000  N
  N7       1.0000 0.87660  0.84248  0.83000  Biso   1.000  N
  N8       1.0000 0.12340  0.34248  0.67000  Biso   1.000  N
  C1       1.0000 0.63140  0.13691  0.59390  Biso   1.000  C
  C2       1.0000 0.36860  0.63691  0.90610  Biso   1.000  C
  C3       1.0000 0.36860  0.86309  0.40610  Biso   1.000  C
  C4       1.0000 0.63140  0.36309  0.09390  Biso   1.000  C
  H1       1.0000 0.60300  0.18240  0.65420  Biso   1.000  H
  H2       1.0000 0.39700  0.68240  0.84580  Biso   1.000  H
  H3       1.0000 0.39700  0.81760  0.34580  Biso   1.000  H
  H4       1.0000 0.60300  0.31760  0.15420  Biso   1.000  H
  C5       1.0000 0.76850  0.09585  0.70810  Biso   1.000  C
  C6       1.0000 0.23150  0.59585  0.79190  Biso   1.000  C
  C7       1.0000 0.23150  0.90415  0.29190  Biso   1.000  C
  C8       1.0000 0.76850  0.40415  0.20810  Biso   1.000  C
  C9       1.0000 0.81100  0.02772  0.61740  Biso   1.000  C
  C10      1.0000 0.18900  0.52772  0.88260  Biso   1.000  C
  C11      1.0000 0.18900  0.97228  0.38260  Biso   1.000  C
  C12      1.0000 0.81100  0.47228  0.11740  Biso   1.000  C
  H5       1.0000 0.90370  0.00000  0.68790  Biso   1.000  H
  H6       1.0000 0.09630  0.50000  0.81210  Biso   1.000  H
  H7       1.0000 0.09630  0.00000  0.31210  Biso   1.000  H
  H8       1.0000 0.90370  0.50000  0.18790  Biso   1.000  H
  C13      1.0000 0.71260  0.00189  0.41970  Biso   1.000  C
  C14      1.0000 0.28740  0.50189  0.08030  Biso   1.000  C
  C15      1.0000 0.28740  0.99811  0.58030  Biso   1.000  C
  C16      1.0000 0.71260  0.49811  0.91970  Biso   1.000  C
  H9       1.0000 0.73680  0.95570  0.35760  Biso   1.000  H
  H10      1.0000 0.26320  0.45570  0.14240  Biso   1.000  H
  H11      1.0000 0.26320  0.04430  0.64240  Biso   1.000  H
  H12      1.0000 0.73680  0.54430  0.85760  Biso   1.000  H
  C17      1.0000 0.57850  0.04611  0.31750  Biso   1.000  C
  C18      1.0000 0.42150  0.54611  0.18250  Biso   1.000  C
  C19      1.0000 0.42150  0.95389  0.68250  Biso   1.000  C
  C20      1.0000 0.57850  0.45389  0.81750  Biso   1.000  C
  H13      1.0000 0.51300  0.02840  0.18560  Biso   1.000  H
  H14      1.0000 0.48700  0.52840  0.31440  Biso   1.000  H
  H15      1.0000 0.48700  0.97160  0.81440  Biso   1.000  H
  H16      1.0000 0.51300  0.47160  0.68560  Biso   1.000  H
  C21      1.0000 0.02870  0.13037  0.97980  Biso   1.000  C
  C22      1.0000 0.97130  0.63037  0.52020  Biso   1.000  C
  C23      1.0000 0.97130  0.86963  0.02020  Biso   1.000  C
  C24      1.0000 0.02870  0.36963  0.47980  Biso   1.000  C
  H17      1.0000 0.07450  0.11450  0.88230  Biso   1.000  H
  H18      1.0000 0.92550  0.61450  0.61770  Biso   1.000  H
  H19      1.0000 0.92550  0.88550  0.11770  Biso   1.000  H
  H20      1.0000 0.07450  0.38550  0.38230  Biso   1.000  H
  C25      1.0000 0.86610  0.12481  0.92190  Biso   1.000  C
  C26      1.0000 0.13390  0.62481  0.57810  Biso   1.000  C
  C27      1.0000 0.13390  0.87519  0.07810  Biso   1.000  C
  C28      1.0000 0.86610  0.37519  0.42190  Biso   1.000  C
  C29      1.0000 0.79780  0.14894  0.06890  Biso   1.000  C
  C30      1.0000 0.20220  0.64894  0.43110  Biso   1.000  C
  C31      1.0000 0.20220  0.85106  0.93110  Biso   1.000  C
  C32      1.0000 0.79780  0.35106  0.56890  Biso   1.000  C
  H21      1.0000 0.68950  0.14760  0.03490  Biso   1.000  H
  H22      1.0000 0.31050  0.64760  0.46510  Biso   1.000  H
  H23      1.0000 0.31050  0.85240  0.96510  Biso   1.000  H
  H24      1.0000 0.68950  0.35240  0.53490  Biso   1.000  H
  C33      1.0000 0.89530  0.17498  0.26700  Biso   1.000  C
  C34      1.0000 0.10470  0.67498  0.23300  Biso   1.000  C
  C35      1.0000 0.10470  0.82502  0.73300  Biso   1.000  C
  C36      1.0000 0.89530  0.32502  0.76700  Biso   1.000  C
  H25      1.0000 0.85290  0.19010  0.36850  Biso   1.000  H
  H26      1.0000 0.14710  0.69010  0.13150  Biso   1.000  H
  H27      1.0000 0.14710  0.80990  0.63150  Biso   1.000  H
  H28      1.0000 0.85290  0.30990  0.86850  Biso   1.000  H
  C37      1.0000 0.05610  0.17823  0.31200  Biso   1.000  C
  C38      1.0000 0.94390  0.67823  0.18800  Biso   1.000  C
  C39      1.0000 0.94390  0.82177  0.68800  Biso   1.000  C
  C40      1.0000 0.05610  0.32177  0.81200  Biso   1.000  C
  H29      1.0000 0.12010  0.19540  0.44530  Biso   1.000  H
  H30      1.0000 0.87990  0.69540  0.05470  Biso   1.000  H
  H31      1.0000 0.87990  0.80460  0.55470  Biso   1.000  H
  H32      1.0000 0.12010  0.30460  0.94530  Biso   1.000  H
