data_image0
_cell_length_a       10.9
_cell_length_b       11.7912
_cell_length_c       13.5584
_cell_angle_alpha    97.987
_cell_angle_beta     102.482
_cell_angle_gamma    117.481

_symmetry_space_group_name_H-M    "P 1"
_symmetry_int_tables_number       1

loop_
  _symmetry_equiv_pos_as_xyz
  'x, y, z'

loop_
  _atom_site_label
  _atom_site_occupancy
  _atom_site_fract_x
  _atom_site_fract_y
  _atom_site_fract_z
  _atom_site_thermal_displace_type
  _atom_site_B_iso_or_equiv
  _atom_site_type_symbol
  Cu1      1.0000 0.47083  0.28238  0.08612  Biso   1.000  Cu
  Cu2      1.0000 0.52917  0.71762  0.91388  Biso   1.000  Cu
  Cu3      1.0000 0.98761  0.01689  0.31403  Biso   1.000  Cu
  Cu4      1.0000 0.01239  0.98311  0.68597  Biso   1.000  Cu
  Mo1      1.0000 0.31501  0.31300  0.30524  Biso   1.000  Mo
  Mo2      1.0000 0.68499  0.68700  0.69476  Biso   1.000  Mo
  Mo3      1.0000 0.42367  0.60676  0.48817  Biso   1.000  Mo
  Mo4      1.0000 0.57633  0.39324  0.51183  Biso   1.000  Mo
  Mo5      1.0000 0.23594  0.32798  0.53488  Biso   1.000  Mo
  Mo6      1.0000 0.76406  0.67202  0.46512  Biso   1.000  Mo
  Mo7      1.0000 0.49959  0.59020  0.25128  Biso   1.000  Mo
  Mo8      1.0000 0.50041  0.40980  0.74872  Biso   1.000  Mo
  O1       1.0000 0.89040  0.36900  0.90985  Biso   1.000  O
  O2       1.0000 0.10960  0.63100  0.09015  Biso   1.000  O
  O3       1.0000 0.33138  0.98039  0.09534  Biso   1.000  O
  O4       1.0000 0.66862  0.01961  0.90466  Biso   1.000  O
  O5       1.0000 0.39930  0.24984  0.24150  Biso   1.000  O
  O6       1.0000 0.60070  0.75016  0.75850  Biso   1.000  O
  O7       1.0000 0.25995  0.42547  0.42458  Biso   1.000  O
  O8       1.0000 0.74005  0.57453  0.57542  Biso   1.000  O
  O9       1.0000 0.13340  0.19163  0.25911  Biso   1.000  O
  O10      1.0000 0.86660  0.80837  0.74089  Biso   1.000  O
  O11      1.0000 0.52900  0.49718  0.40560  Biso   1.000  O
  O12      1.0000 0.47100  0.50282  0.59440  Biso   1.000  O
  O13      1.0000 0.36856  0.27435  0.44120  Biso   1.000  O
  O14      1.0000 0.63144  0.72565  0.55880  Biso   1.000  O
  O15      1.0000 0.31297  0.43644  0.23114  Biso   1.000  O
  O16      1.0000 0.68703  0.56356  0.76886  Biso   1.000  O
  O17      1.0000 0.41835  0.65816  0.37307  Biso   1.000  O
  O18      1.0000 0.58165  0.34184  0.62693  Biso   1.000  O
  O19      1.0000 0.35141  0.67826  0.55487  Biso   1.000  O
  O20      1.0000 0.64859  0.32174  0.44513  Biso   1.000  O
  O21      1.0000 0.08595  0.17564  0.46316  Biso   1.000  O
  O22      1.0000 0.91405  0.82436  0.53684  Biso   1.000  O
  O23      1.0000 0.16911  0.40687  0.60048  Biso   1.000  O
  O24      1.0000 0.83089  0.59313  0.39952  Biso   1.000  O
  O25      1.0000 0.67736  0.72337  0.35694  Biso   1.000  O
  O26      1.0000 0.32264  0.27663  0.64306  Biso   1.000  O
  O27      1.0000 0.56500  0.50629  0.18602  Biso   1.000  O
  O28      1.0000 0.43500  0.49371  0.81398  Biso   1.000  O
  O29      1.0000 0.46180  0.67471  0.16969  Biso   1.000  O
  O30      1.0000 0.53820  0.32529  0.83031  Biso   1.000  O
  N1       1.0000 0.28310  0.25580  0.01326  Biso   1.000  N
  N2       1.0000 0.71690  0.74420  0.98674  Biso   1.000  N
  N3       1.0000 0.66090  0.30010  0.12132  Biso   1.000  N
  N4       1.0000 0.33910  0.69990  0.87868  Biso   1.000  N
  N5       1.0000 0.80350  0.01090  0.27257  Biso   1.000  N
  N6       1.0000 0.19650  0.98910  0.72743  Biso   1.000  N
  N7       1.0000 0.09830  0.92920  0.30721  Biso   1.000  N
  N8       1.0000 0.90170  0.07080  0.69279  Biso   1.000  N
  C1       1.0000 0.16410  0.17590  0.03670  Biso   1.000  C
  C2       1.0000 0.83590  0.82410  0.96330  Biso   1.000  C
  H1       1.0000 0.16060  0.10440  0.06030  Biso   1.000  H
  H2       1.0000 0.83940  0.89560  0.93970  Biso   1.000  H
  C3       1.0000 0.04670  0.19500  0.02737  Biso   1.000  C
  C4       1.0000 0.95330  0.80500  0.97263  Biso   1.000  C
  H3       1.0000 0.96820  0.14000  0.04750  Biso   1.000  H
  H4       1.0000 0.03180  0.86000  0.95250  Biso   1.000  H
  C5       1.0000 0.04760  0.29750  0.98757  Biso   1.000  C
  C6       1.0000 0.95240  0.70250  0.01243  Biso   1.000  C
  C7       1.0000 0.16250  0.37060  0.95200  Biso   1.000  C
  C8       1.0000 0.83750  0.62940  0.04800  Biso   1.000  C
  H5       1.0000 0.16130  0.43350  0.91790  Biso   1.000  H
  H6       1.0000 0.83870  0.56650  0.08210  Biso   1.000  H
  C9       1.0000 0.27880  0.34920  0.96760  Biso   1.000  C
  C10      1.0000 0.72120  0.65080  0.03240  Biso   1.000  C
  H7       1.0000 0.35700  0.40100  0.94580  Biso   1.000  H
  H8       1.0000 0.64300  0.59900  0.05420  Biso   1.000  H
  C11      1.0000 0.93010  0.33180  0.98271  Biso   1.000  C
  C12      1.0000 0.06990  0.66820  0.01729  Biso   1.000  C
  C13      1.0000 0.72580  0.30040  0.04800  Biso   1.000  C
  C14      1.0000 0.27420  0.69960  0.95200  Biso   1.000  C
  H9       1.0000 0.67340  0.28380  0.97850  Biso   1.000  H
  H10      1.0000 0.32660  0.71620  0.02150  Biso   1.000  H
  C15      1.0000 0.86780  0.32450  0.07061  Biso   1.000  C
  C16      1.0000 0.13220  0.67550  0.92939  Biso   1.000  C
  C17      1.0000 0.94700  0.35000  0.17480  Biso   1.000  C
  C18      1.0000 0.05300  0.65000  0.82520  Biso   1.000  C
  H11      1.0000 0.04180  0.36550  0.19280  Biso   1.000  H
  H12      1.0000 0.95820  0.63450  0.80720  Biso   1.000  H
  C19      1.0000 0.88010  0.35180  0.25080  Biso   1.000  C
  C20      1.0000 0.11990  0.64820  0.74920  Biso   1.000  C
  H13      1.0000 0.93070  0.36980  0.32100  Biso   1.000  H
  H14      1.0000 0.06930  0.63020  0.67900  Biso   1.000  H
  C21      1.0000 0.73800  0.32660  0.22220  Biso   1.000  C
  C22      1.0000 0.26200  0.67340  0.77780  Biso   1.000  C
  H15      1.0000 0.69470  0.32820  0.27410  Biso   1.000  H
  H16      1.0000 0.30530  0.67180  0.72590  Biso   1.000  H
  C23      1.0000 0.73310  0.99120  0.17220  Biso   1.000  C
  C24      1.0000 0.26690  0.00880  0.82780  Biso   1.000  C
  H17      1.0000 0.77790  0.98610  0.12210  Biso   1.000  H
  H18      1.0000 0.22210  0.01390  0.87790  Biso   1.000  H
  C25      1.0000 0.59710  0.97820  0.13960  Biso   1.000  C
  C26      1.0000 0.40290  0.02180  0.86040  Biso   1.000  C
  H19      1.0000 0.55190  0.96530  0.06910  Biso   1.000  H
  H20      1.0000 0.44810  0.03470  0.93090  Biso   1.000  H
  C27      1.0000 0.52880  0.98480  0.21381  Biso   1.000  C
  C28      1.0000 0.47120  0.01520  0.78619  Biso   1.000  C
  C29      1.0000 0.60340  0.01090  0.31890  Biso   1.000  C
  C30      1.0000 0.39660  0.98910  0.68110  Biso   1.000  C
  H21      1.0000 0.56300  0.02060  0.37100  Biso   1.000  H
  H22      1.0000 0.43700  0.97940  0.62900  Biso   1.000  H
  C31      1.0000 0.73960  0.02210  0.34440  Biso   1.000  C
  C32      1.0000 0.26040  0.97790  0.65560  Biso   1.000  C
  H23      1.0000 0.78880  0.03810  0.41460  Biso   1.000  H
  H24      1.0000 0.21120  0.96190  0.58540  Biso   1.000  H
  C33      1.0000 0.37740  0.96240  0.17824  Biso   1.000  C
  C34      1.0000 0.62260  0.03760  0.82176  Biso   1.000  C
  C35      1.0000 0.18710  0.96120  0.24824  Biso   1.000  C
  C36      1.0000 0.81290  0.03880  0.75176  Biso   1.000  C
  H25      1.0000 0.18310  0.01610  0.20610  Biso   1.000  H
  H26      1.0000 0.81690  0.98390  0.79390  Biso   1.000  H
  C37      1.0000 0.28390  0.91700  0.24675  Biso   1.000  C
  C38      1.0000 0.71610  0.08300  0.75325  Biso   1.000  C
  C39      1.0000 0.28530  0.82950  0.30490  Biso   1.000  C
  C40      1.0000 0.71470  0.17050  0.69510  Biso   1.000  C
  H27      1.0000 0.34830  0.79680  0.30470  Biso   1.000  H
  H28      1.0000 0.65170  0.20320  0.69530  Biso   1.000  H
  C41      1.0000 0.19070  0.79190  0.36330  Biso   1.000  C
  C42      1.0000 0.80930  0.20810  0.63670  Biso   1.000  C
  H29      1.0000 0.18790  0.73210  0.40210  Biso   1.000  H
  H30      1.0000 0.81210  0.26790  0.59790  Biso   1.000  H
  C43      1.0000 0.10090  0.84400  0.36310  Biso   1.000  C
  C44      1.0000 0.89910  0.15600  0.63690  Biso   1.000  C
  H31      1.0000 0.03890  0.81920  0.40350  Biso   1.000  H
  H32      1.0000 0.96110  0.18080  0.59650  Biso   1.000  H
