data_image0
_cell_length_a       17.872
_cell_length_b       11.305
_cell_length_c       12.931
_cell_angle_alpha    90
_cell_angle_beta     90
_cell_angle_gamma    90

_symmetry_space_group_name_H-M    "P 1"
_symmetry_int_tables_number       1

loop_
  _symmetry_equiv_pos_as_xyz
  'x, y, z'

loop_
  _atom_site_label
  _atom_site_occupancy
  _atom_site_fract_x
  _atom_site_fract_y
  _atom_site_fract_z
  _atom_site_thermal_displace_type
  _atom_site_B_iso_or_equiv
  _atom_site_type_symbol
  Cu1      1.0000 0.50000  0.50000  0.50000  Biso   1.000  Cu
  Cu2      1.0000 0.00000  0.00000  0.00000  Biso   1.000  Cu
  Cu3      1.0000 0.00000  0.50000  0.50000  Biso   1.000  Cu
  Cu4      1.0000 0.50000  0.00000  0.00000  Biso   1.000  Cu
  N1       1.0000 0.50830  0.16260  0.51810  Biso   1.000  N
  N2       1.0000 0.00830  0.66260  0.01810  Biso   1.000  N
  N3       1.0000 0.99170  0.16260  0.51810  Biso   1.000  N
  N4       1.0000 0.49170  0.66260  0.01810  Biso   1.000  N
  N5       1.0000 0.00830  0.83740  0.51810  Biso   1.000  N
  N6       1.0000 0.50830  0.33740  0.01810  Biso   1.000  N
  N7       1.0000 0.49170  0.83740  0.51810  Biso   1.000  N
  N8       1.0000 0.99170  0.33740  0.01810  Biso   1.000  N
  C1       1.0000 0.51210  0.05080  0.46250  Biso   1.000  C
  C2       1.0000 0.01210  0.55080  0.96250  Biso   1.000  C
  C3       1.0000 0.98790  0.05080  0.46250  Biso   1.000  C
  C4       1.0000 0.48790  0.55080  0.96250  Biso   1.000  C
  C5       1.0000 0.01210  0.94920  0.46250  Biso   1.000  C
  C6       1.0000 0.51210  0.44920  0.96250  Biso   1.000  C
  C7       1.0000 0.48790  0.94920  0.46250  Biso   1.000  C
  C8       1.0000 0.98790  0.44920  0.96250  Biso   1.000  C
  C9       1.0000 0.55840  0.77580  0.48500  Biso   1.000  C
  C10      1.0000 0.05840  0.27580  0.98500  Biso   1.000  C
  C11      1.0000 0.94160  0.77580  0.48500  Biso   1.000  C
  C12      1.0000 0.44160  0.27580  0.98500  Biso   1.000  C
  C13      1.0000 0.05840  0.22420  0.48500  Biso   1.000  C
  C14      1.0000 0.55840  0.72420  0.98500  Biso   1.000  C
  C15      1.0000 0.44160  0.22420  0.48500  Biso   1.000  C
  C16      1.0000 0.94160  0.72420  0.98500  Biso   1.000  C
  N9       1.0000 0.58380  0.71420  0.57700  Biso   1.000  N
  N10      1.0000 0.08380  0.21420  0.07700  Biso   1.000  N
  N11      1.0000 0.91620  0.71420  0.57700  Biso   1.000  N
  N12      1.0000 0.41620  0.21420  0.07700  Biso   1.000  N
  N13      1.0000 0.08380  0.28580  0.57700  Biso   1.000  N
  N14      1.0000 0.58380  0.78580  0.07700  Biso   1.000  N
  N15      1.0000 0.41620  0.28580  0.57700  Biso   1.000  N
  N16      1.0000 0.91620  0.78580  0.07700  Biso   1.000  N
  N17      1.0000 0.56140  0.60230  0.59770  Biso   1.000  N
  N18      1.0000 0.06140  0.10230  0.09770  Biso   1.000  N
  N19      1.0000 0.93860  0.60230  0.59770  Biso   1.000  N
  N20      1.0000 0.43860  0.10230  0.09770  Biso   1.000  N
  N21      1.0000 0.06140  0.39770  0.59770  Biso   1.000  N
  N22      1.0000 0.56140  0.89770  0.09770  Biso   1.000  N
  N23      1.0000 0.43860  0.39770  0.59770  Biso   1.000  N
  N24      1.0000 0.93860  0.89770  0.09770  Biso   1.000  N
  C17      1.0000 0.59460  0.57570  0.68960  Biso   1.000  C
  C18      1.0000 0.09460  0.07570  0.18960  Biso   1.000  C
  C19      1.0000 0.90540  0.57570  0.68960  Biso   1.000  C
  C20      1.0000 0.40540  0.07570  0.18960  Biso   1.000  C
  C21      1.0000 0.09460  0.42430  0.68960  Biso   1.000  C
  C22      1.0000 0.59460  0.92430  0.18960  Biso   1.000  C
  C23      1.0000 0.40540  0.42430  0.68960  Biso   1.000  C
  C24      1.0000 0.90540  0.92430  0.18960  Biso   1.000  C
  C25      1.0000 0.63760  0.67050  0.72250  Biso   1.000  C
  C26      1.0000 0.13760  0.17050  0.22250  Biso   1.000  C
  C27      1.0000 0.86240  0.67050  0.72250  Biso   1.000  C
  C28      1.0000 0.36240  0.17050  0.22250  Biso   1.000  C
  C29      1.0000 0.13760  0.32950  0.72250  Biso   1.000  C
  C30      1.0000 0.63760  0.82950  0.22250  Biso   1.000  C
  C31      1.0000 0.36240  0.32950  0.72250  Biso   1.000  C
  C32      1.0000 0.86240  0.82950  0.22250  Biso   1.000  C
  C33      1.0000 0.63030  0.75650  0.65240  Biso   1.000  C
  C34      1.0000 0.13030  0.25650  0.15240  Biso   1.000  C
  C35      1.0000 0.86970  0.75650  0.65240  Biso   1.000  C
  C36      1.0000 0.36970  0.25650  0.15240  Biso   1.000  C
  C37      1.0000 0.13030  0.24350  0.65240  Biso   1.000  C
  C38      1.0000 0.63030  0.74350  0.15240  Biso   1.000  C
  C39      1.0000 0.36970  0.24350  0.65240  Biso   1.000  C
  C40      1.0000 0.86970  0.74350  0.15240  Biso   1.000  C
  C41      1.0000 0.42420  0.76620  0.50880  Biso   1.000  C
  C42      1.0000 0.92420  0.26620  0.00880  Biso   1.000  C
  C43      1.0000 0.07580  0.76620  0.50880  Biso   1.000  C
  C44      1.0000 0.57580  0.26620  0.00880  Biso   1.000  C
  C45      1.0000 0.92420  0.23380  0.50880  Biso   1.000  C
  C46      1.0000 0.42420  0.73380  0.00880  Biso   1.000  C
  C47      1.0000 0.57580  0.23380  0.50880  Biso   1.000  C
  C48      1.0000 0.07580  0.73380  0.00880  Biso   1.000  C
  N25      1.0000 0.40330  0.70010  0.41710  Biso   1.000  N
  N26      1.0000 0.90330  0.20010  0.91710  Biso   1.000  N
  N27      1.0000 0.09670  0.70010  0.41710  Biso   1.000  N
  N28      1.0000 0.59670  0.20010  0.91710  Biso   1.000  N
  N29      1.0000 0.90330  0.29990  0.41710  Biso   1.000  N
  N30      1.0000 0.40330  0.79990  0.91710  Biso   1.000  N
  N31      1.0000 0.59670  0.29990  0.41710  Biso   1.000  N
  N32      1.0000 0.09670  0.79990  0.91710  Biso   1.000  N
  N33      1.0000 0.43330  0.59140  0.40090  Biso   1.000  N
  N34      1.0000 0.93330  0.09140  0.90090  Biso   1.000  N
  N35      1.0000 0.06670  0.59140  0.40090  Biso   1.000  N
  N36      1.0000 0.56670  0.09140  0.90090  Biso   1.000  N
  N37      1.0000 0.93330  0.40860  0.40090  Biso   1.000  N
  N38      1.0000 0.43330  0.90860  0.90090  Biso   1.000  N
  N39      1.0000 0.56670  0.40860  0.40090  Biso   1.000  N
  N40      1.0000 0.06670  0.90860  0.90090  Biso   1.000  N
  C49      1.0000 0.40570  0.55500  0.31230  Biso   1.000  C
  C50      1.0000 0.90570  0.05500  0.81230  Biso   1.000  C
  C51      1.0000 0.09430  0.55500  0.31230  Biso   1.000  C
  C52      1.0000 0.59430  0.05500  0.81230  Biso   1.000  C
  C53      1.0000 0.90570  0.44500  0.31230  Biso   1.000  C
  C54      1.0000 0.40570  0.94500  0.81230  Biso   1.000  C
  C55      1.0000 0.59430  0.44500  0.31230  Biso   1.000  C
  C56      1.0000 0.09430  0.94500  0.81230  Biso   1.000  C
  C57      1.0000 0.35730  0.64090  0.27020  Biso   1.000  C
  C58      1.0000 0.85730  0.14090  0.77020  Biso   1.000  C
  C59      1.0000 0.14270  0.64090  0.27020  Biso   1.000  C
  C60      1.0000 0.64270  0.14090  0.77020  Biso   1.000  C
  C61      1.0000 0.85730  0.35910  0.27020  Biso   1.000  C
  C62      1.0000 0.35730  0.85910  0.77020  Biso   1.000  C
  C63      1.0000 0.64270  0.35910  0.27020  Biso   1.000  C
  C64      1.0000 0.14270  0.85910  0.77020  Biso   1.000  C
  C65      1.0000 0.35910  0.73030  0.33880  Biso   1.000  C
  C66      1.0000 0.85910  0.23030  0.83880  Biso   1.000  C
  C67      1.0000 0.14090  0.73030  0.33880  Biso   1.000  C
  C68      1.0000 0.64090  0.23030  0.83880  Biso   1.000  C
  C69      1.0000 0.85910  0.26970  0.33880  Biso   1.000  C
  C70      1.0000 0.35910  0.76970  0.83880  Biso   1.000  C
  C71      1.0000 0.64090  0.26970  0.33880  Biso   1.000  C
  C72      1.0000 0.14090  0.76970  0.83880  Biso   1.000  C
  N41      1.0000 0.25000  0.65820  0.61150  Biso   1.000  N
  N42      1.0000 0.75000  0.15820  0.11150  Biso   1.000  N
  N43      1.0000 0.75000  0.34180  0.61150  Biso   1.000  N
  N44      1.0000 0.25000  0.84180  0.11150  Biso   1.000  N
  C73      1.0000 0.25000  0.57480  0.55940  Biso   1.000  C
  C74      1.0000 0.75000  0.07480  0.05940  Biso   1.000  C
  C75      1.0000 0.75000  0.42520  0.55940  Biso   1.000  C
  C76      1.0000 0.25000  0.92520  0.05940  Biso   1.000  C
  C77      1.0000 0.25000  0.47510  0.49680  Biso   1.000  C
  C78      1.0000 0.75000  0.97510  0.99680  Biso   1.000  C
  C79      1.0000 0.75000  0.52490  0.49680  Biso   1.000  C
  C80      1.0000 0.25000  0.02490  0.99680  Biso   1.000  C
  H1       1.0000 0.48070  0.05670  0.39910  Biso   1.000  H
  H2       1.0000 0.98070  0.55670  0.89910  Biso   1.000  H
  H3       1.0000 0.01930  0.05670  0.39910  Biso   1.000  H
  H4       1.0000 0.51930  0.55670  0.89910  Biso   1.000  H
  H5       1.0000 0.98070  0.94330  0.39910  Biso   1.000  H
  H6       1.0000 0.48070  0.44330  0.89910  Biso   1.000  H
  H7       1.0000 0.51930  0.94330  0.39910  Biso   1.000  H
  H8       1.0000 0.01930  0.44330  0.89910  Biso   1.000  H
  H9       1.0000 0.56170  0.03560  0.43860  Biso   1.000  H
  H10      1.0000 0.06170  0.53560  0.93860  Biso   1.000  H
  H11      1.0000 0.93830  0.03560  0.43860  Biso   1.000  H
  H12      1.0000 0.43830  0.53560  0.93860  Biso   1.000  H
  H13      1.0000 0.06170  0.96440  0.43860  Biso   1.000  H
  H14      1.0000 0.56170  0.46440  0.93860  Biso   1.000  H
  H15      1.0000 0.43830  0.96440  0.43860  Biso   1.000  H
  H16      1.0000 0.93830  0.46440  0.93860  Biso   1.000  H
  H17      1.0000 0.59450  0.83000  0.46180  Biso   1.000  H
  H18      1.0000 0.09450  0.33000  0.96180  Biso   1.000  H
  H19      1.0000 0.90550  0.83000  0.46180  Biso   1.000  H
  H20      1.0000 0.40550  0.33000  0.96180  Biso   1.000  H
  H21      1.0000 0.09450  0.17000  0.46180  Biso   1.000  H
  H22      1.0000 0.59450  0.67000  0.96180  Biso   1.000  H
  H23      1.0000 0.40550  0.17000  0.46180  Biso   1.000  H
  H24      1.0000 0.90550  0.67000  0.96180  Biso   1.000  H
  H25      1.0000 0.54670  0.71970  0.43270  Biso   1.000  H
  H26      1.0000 0.04670  0.21970  0.93270  Biso   1.000  H
  H27      1.0000 0.95330  0.71970  0.43270  Biso   1.000  H
  H28      1.0000 0.45330  0.21970  0.93270  Biso   1.000  H
  H29      1.0000 0.04670  0.28030  0.43270  Biso   1.000  H
  H30      1.0000 0.54670  0.78030  0.93270  Biso   1.000  H
  H31      1.0000 0.45330  0.28030  0.43270  Biso   1.000  H
  H32      1.0000 0.95330  0.78030  0.93270  Biso   1.000  H
  H33      1.0000 0.58890  0.50190  0.72400  Biso   1.000  H
  H34      1.0000 0.08890  0.00190  0.22400  Biso   1.000  H
  H35      1.0000 0.91110  0.50190  0.72400  Biso   1.000  H
  H36      1.0000 0.41110  0.00190  0.22400  Biso   1.000  H
  H37      1.0000 0.08890  0.49810  0.72400  Biso   1.000  H
  H38      1.0000 0.58890  0.99810  0.22400  Biso   1.000  H
  H39      1.0000 0.41110  0.49810  0.72400  Biso   1.000  H
  H40      1.0000 0.91110  0.99810  0.22400  Biso   1.000  H
  H41      1.0000 0.66790  0.66980  0.78320  Biso   1.000  H
  H42      1.0000 0.16790  0.16980  0.28320  Biso   1.000  H
  H43      1.0000 0.83210  0.66980  0.78320  Biso   1.000  H
  H44      1.0000 0.33210  0.16980  0.28320  Biso   1.000  H
  H45      1.0000 0.16790  0.33020  0.78320  Biso   1.000  H
  H46      1.0000 0.66790  0.83020  0.28320  Biso   1.000  H
  H47      1.0000 0.33210  0.33020  0.78320  Biso   1.000  H
  H48      1.0000 0.83210  0.83020  0.28320  Biso   1.000  H
  H49      1.0000 0.65100  0.83270  0.65780  Biso   1.000  H
  H50      1.0000 0.15100  0.33270  0.15780  Biso   1.000  H
  H51      1.0000 0.84900  0.83270  0.65780  Biso   1.000  H
  H52      1.0000 0.34900  0.33270  0.15780  Biso   1.000  H
  H53      1.0000 0.15100  0.16730  0.65780  Biso   1.000  H
  H54      1.0000 0.65100  0.66730  0.15780  Biso   1.000  H
  H55      1.0000 0.34900  0.16730  0.65780  Biso   1.000  H
  H56      1.0000 0.84900  0.66730  0.15780  Biso   1.000  H
  H57      1.0000 0.38310  0.81660  0.53680  Biso   1.000  H
  H58      1.0000 0.88310  0.31660  0.03680  Biso   1.000  H
  H59      1.0000 0.11690  0.81660  0.53680  Biso   1.000  H
  H60      1.0000 0.61690  0.31660  0.03680  Biso   1.000  H
  H61      1.0000 0.88310  0.18340  0.53680  Biso   1.000  H
  H62      1.0000 0.38310  0.68340  0.03680  Biso   1.000  H
  H63      1.0000 0.61690  0.18340  0.53680  Biso   1.000  H
  H64      1.0000 0.11690  0.68340  0.03680  Biso   1.000  H
  H65      1.0000 0.42750  0.71000  0.56540  Biso   1.000  H
  H66      1.0000 0.92750  0.21000  0.06540  Biso   1.000  H
  H67      1.0000 0.07250  0.71000  0.56540  Biso   1.000  H
  H68      1.0000 0.57250  0.21000  0.06540  Biso   1.000  H
  H69      1.0000 0.92750  0.29000  0.56540  Biso   1.000  H
  H70      1.0000 0.42750  0.79000  0.06540  Biso   1.000  H
  H71      1.0000 0.57250  0.29000  0.56540  Biso   1.000  H
  H72      1.0000 0.07250  0.79000  0.06540  Biso   1.000  H
  H73      1.0000 0.41600  0.48230  0.27970  Biso   1.000  H
  H74      1.0000 0.91600  0.98230  0.77970  Biso   1.000  H
  H75      1.0000 0.08400  0.48230  0.27970  Biso   1.000  H
  H76      1.0000 0.58400  0.98230  0.77970  Biso   1.000  H
  H77      1.0000 0.91600  0.51770  0.27970  Biso   1.000  H
  H78      1.0000 0.41600  0.01770  0.77970  Biso   1.000  H
  H79      1.0000 0.58400  0.51770  0.27970  Biso   1.000  H
  H80      1.0000 0.08400  0.01770  0.77970  Biso   1.000  H
  H81      1.0000 0.33260  0.64150  0.20580  Biso   1.000  H
  H82      1.0000 0.83260  0.14150  0.70580  Biso   1.000  H
  H83      1.0000 0.16740  0.64150  0.20580  Biso   1.000  H
  H84      1.0000 0.66740  0.14150  0.70580  Biso   1.000  H
  H85      1.0000 0.83260  0.35850  0.20580  Biso   1.000  H
  H86      1.0000 0.33260  0.85850  0.70580  Biso   1.000  H
  H87      1.0000 0.66740  0.35850  0.20580  Biso   1.000  H
  H88      1.0000 0.16740  0.85850  0.70580  Biso   1.000  H
  H89      1.0000 0.33100  0.80200  0.33570  Biso   1.000  H
  H90      1.0000 0.83100  0.30200  0.83570  Biso   1.000  H
  H91      1.0000 0.16900  0.80200  0.33570  Biso   1.000  H
  H92      1.0000 0.66900  0.30200  0.83570  Biso   1.000  H
  H93      1.0000 0.83100  0.19800  0.33570  Biso   1.000  H
  H94      1.0000 0.33100  0.69800  0.83570  Biso   1.000  H
  H95      1.0000 0.66900  0.19800  0.33570  Biso   1.000  H
  H96      1.0000 0.16900  0.69800  0.83570  Biso   1.000  H
