data_image0
_cell_length_a       9.226
_cell_length_b       21.606
_cell_length_c       9.5587
_cell_angle_alpha    90
_cell_angle_beta     116.142
_cell_angle_gamma    90

_symmetry_space_group_name_H-M    "P 1"
_symmetry_int_tables_number       1

loop_
  _symmetry_equiv_pos_as_xyz
  'x, y, z'

loop_
  _atom_site_label
  _atom_site_occupancy
  _atom_site_fract_x
  _atom_site_fract_y
  _atom_site_fract_z
  _atom_site_thermal_displace_type
  _atom_site_B_iso_or_equiv
  _atom_site_type_symbol
  Eu1      1.0000 0.64117  0.99141  0.87668  Biso   1.000  Eu
  Eu2      1.0000 0.35883  0.49141  0.62332  Biso   1.000  Eu
  Eu3      1.0000 0.35883  0.00859  0.12332  Biso   1.000  Eu
  Eu4      1.0000 0.64117  0.50859  0.37668  Biso   1.000  Eu
  Cu1      1.0000 0.30966  0.35421  0.95878  Biso   1.000  Cu
  Cu2      1.0000 0.69034  0.85421  0.54122  Biso   1.000  Cu
  Cu3      1.0000 0.69034  0.64579  0.04122  Biso   1.000  Cu
  Cu4      1.0000 0.30966  0.14579  0.45878  Biso   1.000  Cu
  C1       1.0000 0.55950  0.30410  0.89790  Biso   1.000  C
  C2       1.0000 0.44050  0.80410  0.60210  Biso   1.000  C
  C3       1.0000 0.44050  0.69590  0.10210  Biso   1.000  C
  C4       1.0000 0.55950  0.19590  0.39790  Biso   1.000  C
  H1       1.0000 0.57710  0.34480  0.87760  Biso   1.000  H
  H2       1.0000 0.42290  0.84480  0.62240  Biso   1.000  H
  H3       1.0000 0.42290  0.65520  0.12240  Biso   1.000  H
  H4       1.0000 0.57710  0.15520  0.37760  Biso   1.000  H
  C5       1.0000 0.65250  0.25860  0.88340  Biso   1.000  C
  C6       1.0000 0.34750  0.75860  0.61660  Biso   1.000  C
  C7       1.0000 0.34750  0.74140  0.11660  Biso   1.000  C
  C8       1.0000 0.65250  0.24140  0.38340  Biso   1.000  C
  H5       1.0000 0.73550  0.26850  0.85710  Biso   1.000  H
  H6       1.0000 0.26450  0.76850  0.64290  Biso   1.000  H
  H7       1.0000 0.26450  0.73150  0.14290  Biso   1.000  H
  H8       1.0000 0.73550  0.23150  0.35710  Biso   1.000  H
  C9       1.0000 0.62520  0.19740  0.90740  Biso   1.000  C
  C10      1.0000 0.37480  0.69740  0.59260  Biso   1.000  C
  C11      1.0000 0.37480  0.80260  0.09260  Biso   1.000  C
  C12      1.0000 0.62520  0.30260  0.40740  Biso   1.000  C
  H9       1.0000 0.68440  0.16580  0.89100  Biso   1.000  H
  H10      1.0000 0.31560  0.66580  0.60900  Biso   1.000  H
  H11      1.0000 0.31560  0.83420  0.10900  Biso   1.000  H
  H12      1.0000 0.68440  0.33420  0.39100  Biso   1.000  H
  C13      1.0000 0.51000  0.18450  0.95530  Biso   1.000  C
  C14      1.0000 0.49000  0.68450  0.54470  Biso   1.000  C
  C15      1.0000 0.49000  0.81550  0.04470  Biso   1.000  C
  C16      1.0000 0.51000  0.31550  0.45530  Biso   1.000  C
  C17      1.0000 0.42290  0.23260  0.97090  Biso   1.000  C
  C18      1.0000 0.57710  0.73260  0.52910  Biso   1.000  C
  C19      1.0000 0.57710  0.76740  0.02910  Biso   1.000  C
  C20      1.0000 0.42290  0.26740  0.47090  Biso   1.000  C
  H13      1.0000 0.34460  0.22410  0.00460  Biso   1.000  H
  H14      1.0000 0.65540  0.72410  0.49540  Biso   1.000  H
  H15      1.0000 0.65540  0.77590  0.99540  Biso   1.000  H
  H16      1.0000 0.34460  0.27590  0.50460  Biso   1.000  H
  C21      1.0000 0.47410  0.11990  0.98820  Biso   1.000  C
  C22      1.0000 0.52590  0.61990  0.51180  Biso   1.000  C
  C23      1.0000 0.52590  0.88010  0.01180  Biso   1.000  C
  C24      1.0000 0.47410  0.38010  0.48820  Biso   1.000  C
  C25      1.0000 0.12290  0.13460  0.62750  Biso   1.000  C
  C26      1.0000 0.87710  0.63460  0.87250  Biso   1.000  C
  C27      1.0000 0.87710  0.86540  0.37250  Biso   1.000  C
  C28      1.0000 0.12290  0.36540  0.12750  Biso   1.000  C
  H17      1.0000 0.20320  0.15950  0.69980  Biso   1.000  H
  H18      1.0000 0.79680  0.65950  0.80020  Biso   1.000  H
  H19      1.0000 0.79680  0.84050  0.30020  Biso   1.000  H
  H20      1.0000 0.20320  0.34050  0.19980  Biso   1.000  H
  C29      1.0000 0.00120  0.11700  0.65850  Biso   1.000  C
  C30      1.0000 0.99880  0.61700  0.84150  Biso   1.000  C
  C31      1.0000 0.99880  0.88300  0.34150  Biso   1.000  C
  C32      1.0000 0.00120  0.38300  0.15850  Biso   1.000  C
  H21      1.0000 0.99760  0.12730  0.75130  Biso   1.000  H
  H22      1.0000 0.00240  0.62730  0.74870  Biso   1.000  H
  H23      1.0000 0.00240  0.87270  0.24870  Biso   1.000  H
  H24      1.0000 0.99760  0.37270  0.25130  Biso   1.000  H
  C33      1.0000 0.88250  0.08290  0.54570  Biso   1.000  C
  C34      1.0000 0.11750  0.58290  0.95430  Biso   1.000  C
  C35      1.0000 0.11750  0.91710  0.45430  Biso   1.000  C
  C36      1.0000 0.88250  0.41710  0.04570  Biso   1.000  C
  H25      1.0000 0.79390  0.07050  0.56070  Biso   1.000  H
  H26      1.0000 0.20610  0.57050  0.93930  Biso   1.000  H
  H27      1.0000 0.20610  0.92950  0.43930  Biso   1.000  H
  H28      1.0000 0.79390  0.42950  0.06070  Biso   1.000  H
  C37      1.0000 0.89110  0.06570  0.40440  Biso   1.000  C
  C38      1.0000 0.10890  0.56570  0.09560  Biso   1.000  C
  C39      1.0000 0.10890  0.93430  0.59560  Biso   1.000  C
  C40      1.0000 0.89110  0.43430  0.90440  Biso   1.000  C
  C41      1.0000 0.02070  0.08290  0.38550  Biso   1.000  C
  C42      1.0000 0.97930  0.58290  0.11450  Biso   1.000  C
  C43      1.0000 0.97930  0.91710  0.61450  Biso   1.000  C
  C44      1.0000 0.02070  0.41710  0.88550  Biso   1.000  C
  H29      1.0000 0.03110  0.07060  0.29710  Biso   1.000  H
  H30      1.0000 0.96890  0.57060  0.20290  Biso   1.000  H
  H31      1.0000 0.96890  0.92940  0.70290  Biso   1.000  H
  H32      1.0000 0.03110  0.42940  0.79710  Biso   1.000  H
  C45      1.0000 0.75890  0.03040  0.27100  Biso   1.000  C
  C46      1.0000 0.24110  0.53040  0.22900  Biso   1.000  C
  C47      1.0000 0.24110  0.96960  0.72900  Biso   1.000  C
  C48      1.0000 0.75890  0.46960  0.77100  Biso   1.000  C
  C49      1.0000 0.52230  0.96560  0.49730  Biso   1.000  C
  C50      1.0000 0.47770  0.46560  0.00270  Biso   1.000  C
  C51      1.0000 0.47770  0.03440  0.50270  Biso   1.000  C
  C52      1.0000 0.52230  0.53440  0.99730  Biso   1.000  C
  C53      1.0000 0.00730  0.96430  0.01130  Biso   1.000  C
  C54      1.0000 0.99270  0.46430  0.48870  Biso   1.000  C
  C55      1.0000 0.99270  0.03570  0.98870  Biso   1.000  C
  C56      1.0000 0.00730  0.53570  0.51130  Biso   1.000  C
  N1       1.0000 0.44380  0.29200  0.94030  Biso   1.000  N
  N2       1.0000 0.55620  0.79200  0.55970  Biso   1.000  N
  N3       1.0000 0.55620  0.70800  0.05970  Biso   1.000  N
  N4       1.0000 0.44380  0.20800  0.44030  Biso   1.000  N
  N5       1.0000 0.13580  0.11780  0.49380  Biso   1.000  N
  N6       1.0000 0.86420  0.61780  0.00620  Biso   1.000  N
  N7       1.0000 0.86420  0.88220  0.50620  Biso   1.000  N
  N8       1.0000 0.13580  0.38220  0.99380  Biso   1.000  N
  O1       1.0000 0.53320  0.07530  0.94930  Biso   1.000  O
  O2       1.0000 0.46680  0.57530  0.55070  Biso   1.000  O
  O3       1.0000 0.46680  0.92470  0.05070  Biso   1.000  O
  O4       1.0000 0.53320  0.42470  0.44930  Biso   1.000  O
  O5       1.0000 0.38670  0.11400  0.05650  Biso   1.000  O
  O6       1.0000 0.61330  0.61400  0.44350  Biso   1.000  O
  O7       1.0000 0.61330  0.88600  0.94350  Biso   1.000  O
  O8       1.0000 0.38670  0.38600  0.55650  Biso   1.000  O
  O9       1.0000 0.78760  0.00490  0.16380  Biso   1.000  O
  O10      1.0000 0.21240  0.50490  0.33620  Biso   1.000  O
  O11      1.0000 0.21240  0.99510  0.83620  Biso   1.000  O
  O12      1.0000 0.78760  0.49510  0.66380  Biso   1.000  O
  O13      1.0000 0.63280  0.03030  0.28180  Biso   1.000  O
  O14      1.0000 0.36720  0.53030  0.21820  Biso   1.000  O
  O15      1.0000 0.36720  0.96970  0.71820  Biso   1.000  O
  O16      1.0000 0.63280  0.46970  0.78180  Biso   1.000  O
  O17      1.0000 0.61840  0.94210  0.62820  Biso   1.000  O
  O18      1.0000 0.38160  0.44210  0.87180  Biso   1.000  O
  O19      1.0000 0.38160  0.05790  0.37180  Biso   1.000  O
  O20      1.0000 0.61840  0.55790  0.12820  Biso   1.000  O
  O21      1.0000 0.46110  0.93925  0.36210  Biso   1.000  O
  O22      1.0000 0.53890  0.43925  0.13790  Biso   1.000  O
  O23      1.0000 0.53890  0.06075  0.63790  Biso   1.000  O
  O24      1.0000 0.46110  0.56075  0.86210  Biso   1.000  O
  O25      1.0000 0.88400  0.93360  0.94830  Biso   1.000  O
  O26      1.0000 0.11600  0.43360  0.55170  Biso   1.000  O
  O27      1.0000 0.11600  0.06640  0.05170  Biso   1.000  O
  O28      1.0000 0.88400  0.56640  0.44830  Biso   1.000  O
  O29      1.0000 0.14270  0.94360  0.09020  Biso   1.000  O
  O30      1.0000 0.85730  0.44360  0.40980  Biso   1.000  O
  O31      1.0000 0.85730  0.05640  0.90980  Biso   1.000  O
  O32      1.0000 0.14270  0.55640  0.59020  Biso   1.000  O
  O33      1.0000 0.90230  0.80010  0.94760  Biso   1.000  O
  O34      1.0000 0.09770  0.30010  0.55240  Biso   1.000  O
  O35      1.0000 0.09770  0.19990  0.05240  Biso   1.000  O
  O36      1.0000 0.90230  0.69990  0.44760  Biso   1.000  O
  H33      1.0000 0.80320  0.79070  0.90830  Biso   1.000  H
  H34      1.0000 0.19680  0.29070  0.59170  Biso   1.000  H
  H35      1.0000 0.19680  0.20930  0.09170  Biso   1.000  H
  H36      1.0000 0.80320  0.70930  0.40830  Biso   1.000  H
  H37      1.0000 0.97310  0.77330  0.96400  Biso   1.000  H
  H38      1.0000 0.02690  0.27330  0.53600  Biso   1.000  H
  H39      1.0000 0.02690  0.22670  0.03600  Biso   1.000  H
  H40      1.0000 0.97310  0.72670  0.46400  Biso   1.000  H
  O37      1.0000 0.96170  0.23540  0.26540  Biso   1.000  O
  O38      1.0000 0.03830  0.73540  0.23460  Biso   1.000  O
  O39      1.0000 0.03830  0.76460  0.73460  Biso   1.000  O
  O40      1.0000 0.96170  0.26460  0.76540  Biso   1.000  O
  H41      1.0000 0.90030  0.22640  0.17390  Biso   1.000  H
  H42      1.0000 0.09970  0.72640  0.32610  Biso   1.000  H
  H43      1.0000 0.09970  0.77360  0.82610  Biso   1.000  H
  H44      1.0000 0.90030  0.27360  0.67390  Biso   1.000  H
  H45      1.0000 0.02000  0.26640  0.28580  Biso   1.000  H
  H46      1.0000 0.98000  0.76640  0.21420  Biso   1.000  H
  H47      1.0000 0.98000  0.73360  0.71420  Biso   1.000  H
  H48      1.0000 0.02000  0.23360  0.78580  Biso   1.000  H
