data_image0
_cell_length_a       9.5545
_cell_length_b       21.6026
_cell_length_c       9.241
_cell_angle_alpha    90
_cell_angle_beta     116.151
_cell_angle_gamma    90

_symmetry_space_group_name_H-M    "P 1"
_symmetry_int_tables_number       1

loop_
  _symmetry_equiv_pos_as_xyz
  'x, y, z'

loop_
  _atom_site_label
  _atom_site_occupancy
  _atom_site_fract_x
  _atom_site_fract_y
  _atom_site_fract_z
  _atom_site_thermal_displace_type
  _atom_site_B_iso_or_equiv
  _atom_site_type_symbol
  Cu1      1.0000 0.80865  0.14573  0.95951  Biso   1.000  Cu
  Cu2      1.0000 0.19135  0.64573  0.54049  Biso   1.000  Cu
  Cu3      1.0000 0.19135  0.85427  0.04049  Biso   1.000  Cu
  Cu4      1.0000 0.80865  0.35427  0.45951  Biso   1.000  Cu
  Eu1      1.0000 0.14120  0.50849  0.87619  Biso   1.000  Eu
  Eu2      1.0000 0.85880  0.00849  0.62381  Biso   1.000  Eu
  Eu3      1.0000 0.85880  0.49151  0.12381  Biso   1.000  Eu
  Eu4      1.0000 0.14120  0.99151  0.37619  Biso   1.000  Eu
  C1       1.0000 0.92250  0.26730  0.97060  Biso   1.000  C
  C2       1.0000 0.07750  0.76730  0.52940  Biso   1.000  C
  C3       1.0000 0.07750  0.73270  0.02940  Biso   1.000  C
  C4       1.0000 0.92250  0.23270  0.47060  Biso   1.000  C
  H1       1.0000 0.84590  0.27640  0.00360  Biso   1.000  H
  H2       1.0000 0.15410  0.77640  0.49640  Biso   1.000  H
  H3       1.0000 0.15410  0.72360  0.99640  Biso   1.000  H
  H4       1.0000 0.84590  0.22360  0.50360  Biso   1.000  H
  C5       1.0000 0.00800  0.31560  0.95360  Biso   1.000  C
  C6       1.0000 0.99200  0.81560  0.54640  Biso   1.000  C
  C7       1.0000 0.99200  0.68440  0.04640  Biso   1.000  C
  C8       1.0000 0.00800  0.18440  0.45360  Biso   1.000  C
  C9       1.0000 0.12450  0.30220  0.90730  Biso   1.000  C
  C10      1.0000 0.87550  0.80220  0.59270  Biso   1.000  C
  C11      1.0000 0.87550  0.69780  0.09270  Biso   1.000  C
  C12      1.0000 0.12450  0.19780  0.40730  Biso   1.000  C
  H5       1.0000 0.18460  0.33360  0.89460  Biso   1.000  H
  H6       1.0000 0.81540  0.83360  0.60540  Biso   1.000  H
  H7       1.0000 0.81540  0.66640  0.10540  Biso   1.000  H
  H8       1.0000 0.18460  0.16640  0.39460  Biso   1.000  H
  C13      1.0000 0.14900  0.24150  0.88070  Biso   1.000  C
  C14      1.0000 0.85100  0.74150  0.61930  Biso   1.000  C
  C15      1.0000 0.85100  0.75850  0.11930  Biso   1.000  C
  C16      1.0000 0.14900  0.25850  0.38070  Biso   1.000  C
  H9       1.0000 0.22750  0.23130  0.85130  Biso   1.000  H
  H10      1.0000 0.77250  0.73130  0.64870  Biso   1.000  H
  H11      1.0000 0.77250  0.76870  0.14870  Biso   1.000  H
  H12      1.0000 0.22750  0.26870  0.35130  Biso   1.000  H
  C17      1.0000 0.05720  0.19580  0.89770  Biso   1.000  C
  C18      1.0000 0.94280  0.69580  0.60230  Biso   1.000  C
  C19      1.0000 0.94280  0.80420  0.10230  Biso   1.000  C
  C20      1.0000 0.05720  0.30420  0.39770  Biso   1.000  C
  H13      1.0000 0.07440  0.15510  0.87760  Biso   1.000  H
  H14      1.0000 0.92560  0.65510  0.62240  Biso   1.000  H
  H15      1.0000 0.92560  0.84490  0.12240  Biso   1.000  H
  H16      1.0000 0.07440  0.34490  0.37760  Biso   1.000  H
  C21      1.0000 0.97380  0.38010  0.98850  Biso   1.000  C
  C22      1.0000 0.02620  0.88010  0.51150  Biso   1.000  C
  C23      1.0000 0.02620  0.61990  0.01150  Biso   1.000  C
  C24      1.0000 0.97380  0.11990  0.48850  Biso   1.000  C
  C25      1.0000 0.62390  0.13240  0.12950  Biso   1.000  C
  C26      1.0000 0.37610  0.63240  0.37050  Biso   1.000  C
  C27      1.0000 0.37610  0.86760  0.87050  Biso   1.000  C
  C28      1.0000 0.62390  0.36760  0.62950  Biso   1.000  C
  H17      1.0000 0.70240  0.15620  0.20690  Biso   1.000  H
  H18      1.0000 0.29760  0.65620  0.29310  Biso   1.000  H
  H19      1.0000 0.29760  0.84380  0.79310  Biso   1.000  H
  H20      1.0000 0.70240  0.34380  0.70690  Biso   1.000  H
  C29      1.0000 0.50020  0.11470  0.15800  Biso   1.000  C
  C30      1.0000 0.49980  0.61470  0.34200  Biso   1.000  C
  C31      1.0000 0.49980  0.88530  0.84200  Biso   1.000  C
  C32      1.0000 0.50020  0.38530  0.65800  Biso   1.000  C
  H21      1.0000 0.49710  0.12530  0.25400  Biso   1.000  H
  H22      1.0000 0.50290  0.62530  0.24600  Biso   1.000  H
  H23      1.0000 0.50290  0.87470  0.74600  Biso   1.000  H
  H24      1.0000 0.49710  0.37470  0.75400  Biso   1.000  H
  C33      1.0000 0.38260  0.08140  0.04410  Biso   1.000  C
  C34      1.0000 0.61740  0.58140  0.45590  Biso   1.000  C
  C35      1.0000 0.61740  0.91860  0.95590  Biso   1.000  C
  C36      1.0000 0.38260  0.41860  0.54410  Biso   1.000  C
  H25      1.0000 0.29700  0.06960  0.06060  Biso   1.000  H
  H26      1.0000 0.70300  0.56960  0.43940  Biso   1.000  H
  H27      1.0000 0.70300  0.93040  0.93940  Biso   1.000  H
  H28      1.0000 0.29700  0.43040  0.56060  Biso   1.000  H
  C37      1.0000 0.39100  0.06510  0.90350  Biso   1.000  C
  C38      1.0000 0.60900  0.56510  0.59650  Biso   1.000  C
  C39      1.0000 0.60900  0.93490  0.09650  Biso   1.000  C
  C40      1.0000 0.39100  0.43490  0.40350  Biso   1.000  C
  C41      1.0000 0.52050  0.08270  0.88480  Biso   1.000  C
  C42      1.0000 0.47950  0.58270  0.61520  Biso   1.000  C
  C43      1.0000 0.47950  0.91730  0.11520  Biso   1.000  C
  C44      1.0000 0.52050  0.41730  0.38480  Biso   1.000  C
  H29      1.0000 0.52840  0.07030  0.79230  Biso   1.000  H
  H30      1.0000 0.47160  0.57030  0.70770  Biso   1.000  H
  H31      1.0000 0.47160  0.92970  0.20770  Biso   1.000  H
  H32      1.0000 0.52840  0.42970  0.29230  Biso   1.000  H
  C45      1.0000 0.25870  0.03000  0.77140  Biso   1.000  C
  C46      1.0000 0.74130  0.53000  0.72860  Biso   1.000  C
  C47      1.0000 0.74130  0.97000  0.22860  Biso   1.000  C
  C48      1.0000 0.25870  0.47000  0.27140  Biso   1.000  C
  C49      1.0000 0.50810  0.53520  0.01180  Biso   1.000  C
  C50      1.0000 0.49190  0.03520  0.48820  Biso   1.000  C
  C51      1.0000 0.49190  0.46480  0.98820  Biso   1.000  C
  C52      1.0000 0.50810  0.96480  0.51180  Biso   1.000  C
  C53      1.0000 0.97690  0.03420  0.00300  Biso   1.000  C
  C54      1.0000 0.02310  0.53420  0.49700  Biso   1.000  C
  C55      1.0000 0.02310  0.96580  0.99700  Biso   1.000  C
  C56      1.0000 0.97690  0.46580  0.50300  Biso   1.000  C
  N1       1.0000 0.94320  0.20780  0.94230  Biso   1.000  N
  N2       1.0000 0.05680  0.70780  0.55770  Biso   1.000  N
  N3       1.0000 0.05680  0.79220  0.05770  Biso   1.000  N
  N4       1.0000 0.94320  0.29220  0.44230  Biso   1.000  N
  N5       1.0000 0.63660  0.11710  0.99510  Biso   1.000  N
  N6       1.0000 0.36340  0.61710  0.50490  Biso   1.000  N
  N7       1.0000 0.36340  0.88290  0.00490  Biso   1.000  N
  N8       1.0000 0.63660  0.38290  0.49510  Biso   1.000  N
  O1       1.0000 0.03360  0.42465  0.94850  Biso   1.000  O
  O2       1.0000 0.96640  0.92465  0.55150  Biso   1.000  O
  O3       1.0000 0.96640  0.57535  0.05150  Biso   1.000  O
  O4       1.0000 0.03360  0.07535  0.44850  Biso   1.000  O
  O5       1.0000 0.88670  0.38667  0.05600  Biso   1.000  O
  O6       1.0000 0.11330  0.88667  0.44400  Biso   1.000  O
  O7       1.0000 0.11330  0.61333  0.94400  Biso   1.000  O
  O8       1.0000 0.88670  0.11333  0.55600  Biso   1.000  O
  O9       1.0000 0.28710  0.00550  0.66380  Biso   1.000  O
  O10      1.0000 0.71290  0.50550  0.83620  Biso   1.000  O
  O11      1.0000 0.71290  0.99450  0.33620  Biso   1.000  O
  O12      1.0000 0.28710  0.49450  0.16380  Biso   1.000  O
  O13      1.0000 0.13170  0.02960  0.77910  Biso   1.000  O
  O14      1.0000 0.86830  0.52960  0.72090  Biso   1.000  O
  O15      1.0000 0.86830  0.97040  0.22090  Biso   1.000  O
  O16      1.0000 0.13170  0.47040  0.27910  Biso   1.000  O
  O17      1.0000 0.38380  0.56618  0.94890  Biso   1.000  O
  O18      1.0000 0.61620  0.06618  0.55110  Biso   1.000  O
  O19      1.0000 0.61620  0.43382  0.05110  Biso   1.000  O
  O20      1.0000 0.38380  0.93382  0.44890  Biso   1.000  O
  O21      1.0000 0.64250  0.55656  0.09120  Biso   1.000  O
  O22      1.0000 0.35750  0.05656  0.40880  Biso   1.000  O
  O23      1.0000 0.35750  0.44344  0.90880  Biso   1.000  O
  O24      1.0000 0.64250  0.94344  0.59120  Biso   1.000  O
  O25      1.0000 0.88210  0.05797  0.87140  Biso   1.000  O
  O26      1.0000 0.11790  0.55797  0.62860  Biso   1.000  O
  O27      1.0000 0.11790  0.94203  0.12860  Biso   1.000  O
  O28      1.0000 0.88210  0.44203  0.37140  Biso   1.000  O
  O29      1.0000 0.03810  0.06100  0.13720  Biso   1.000  O
  O30      1.0000 0.96190  0.56100  0.36280  Biso   1.000  O
  O31      1.0000 0.96190  0.93900  0.86280  Biso   1.000  O
  O32      1.0000 0.03810  0.43900  0.63720  Biso   1.000  O
  O33      1.0000 0.60100  0.20220  0.55160  Biso   1.000  O
  O34      1.0000 0.39900  0.70220  0.94840  Biso   1.000  O
  O35      1.0000 0.39900  0.79780  0.44840  Biso   1.000  O
  O36      1.0000 0.60100  0.29780  0.05160  Biso   1.000  O
  H33      1.0000 0.62640  0.16440  0.55330  Biso   1.000  H
  H34      1.0000 0.37360  0.66440  0.94670  Biso   1.000  H
  H35      1.0000 0.37360  0.83560  0.44670  Biso   1.000  H
  H36      1.0000 0.62640  0.33560  0.05330  Biso   1.000  H
  H37      1.0000 0.51220  0.20130  0.55220  Biso   1.000  H
  H38      1.0000 0.48780  0.70130  0.94780  Biso   1.000  H
  H39      1.0000 0.48780  0.79870  0.44780  Biso   1.000  H
  H40      1.0000 0.51220  0.29870  0.05220  Biso   1.000  H
  O37      1.0000 0.45960  0.26440  0.25920  Biso   1.000  O
  O38      1.0000 0.54040  0.76440  0.24080  Biso   1.000  O
  O39      1.0000 0.54040  0.73560  0.74080  Biso   1.000  O
  O40      1.0000 0.45960  0.23560  0.75920  Biso   1.000  O
  H41      1.0000 0.50850  0.24690  0.21250  Biso   1.000  H
  H42      1.0000 0.49150  0.74690  0.28750  Biso   1.000  H
  H43      1.0000 0.49150  0.75310  0.78750  Biso   1.000  H
  H44      1.0000 0.50850  0.25310  0.71250  Biso   1.000  H
  H45      1.0000 0.49120  0.24600  0.34980  Biso   1.000  H
  H46      1.0000 0.50880  0.74600  0.15020  Biso   1.000  H
  H47      1.0000 0.50880  0.75400  0.65020  Biso   1.000  H
  H48      1.0000 0.49120  0.25400  0.84980  Biso   1.000  H
