data_image0
_cell_length_a       11.0271
_cell_length_b       11.527
_cell_length_c       14.6181
_cell_angle_alpha    86.59
_cell_angle_beta     82.263
_cell_angle_gamma    61.462

_symmetry_space_group_name_H-M    "P 1"
_symmetry_int_tables_number       1

loop_
  _symmetry_equiv_pos_as_xyz
  'x, y, z'

loop_
  _atom_site_label
  _atom_site_occupancy
  _atom_site_fract_x
  _atom_site_fract_y
  _atom_site_fract_z
  _atom_site_thermal_displace_type
  _atom_site_B_iso_or_equiv
  _atom_site_type_symbol
  C1       1.0000 0.09950  0.31490  0.65167  Biso   1.000  C
  C2       1.0000 0.90050  0.68510  0.34833  Biso   1.000  C
  C3       1.0000 0.05310  0.22790  0.69268  Biso   1.000  C
  C4       1.0000 0.94690  0.77210  0.30732  Biso   1.000  C
  C5       1.0000 0.00010  0.16710  0.64420  Biso   1.000  C
  C6       1.0000 0.99990  0.83290  0.35580  Biso   1.000  C
  C7       1.0000 0.98890  0.19330  0.55200  Biso   1.000  C
  C8       1.0000 0.01110  0.80670  0.44800  Biso   1.000  C
  C9       1.0000 0.03330  0.27820  0.50729  Biso   1.000  C
  C10      1.0000 0.96670  0.72180  0.49271  Biso   1.000  C
  C11      1.0000 0.08790  0.33560  0.55820  Biso   1.000  C
  C12      1.0000 0.91210  0.66440  0.44180  Biso   1.000  C
  C13      1.0000 0.81990  0.61880  0.78877  Biso   1.000  C
  C14      1.0000 0.18010  0.38120  0.21123  Biso   1.000  C
  C15      1.0000 0.71160  0.66280  0.73420  Biso   1.000  C
  C16      1.0000 0.28840  0.33720  0.26580  Biso   1.000  C
  C17      1.0000 0.58980  0.65670  0.76140  Biso   1.000  C
  C18      1.0000 0.41020  0.34330  0.23860  Biso   1.000  C
  C19      1.0000 0.57080  0.60780  0.84660  Biso   1.000  C
  C20      1.0000 0.42920  0.39220  0.15340  Biso   1.000  C
  C21      1.0000 0.67340  0.56250  0.90410  Biso   1.000  C
  C22      1.0000 0.32660  0.43750  0.09590  Biso   1.000  C
  C23      1.0000 0.79460  0.56960  0.87430  Biso   1.000  C
  C24      1.0000 0.20540  0.43040  0.12570  Biso   1.000  C
  C25      1.0000 0.10310  0.73050  0.81665  Biso   1.000  C
  C26      1.0000 0.89690  0.26950  0.18335  Biso   1.000  C
  C27      1.0000 0.16080  0.79500  0.75656  Biso   1.000  C
  C28      1.0000 0.83920  0.20500  0.24344  Biso   1.000  C
  C29      1.0000 0.20130  0.88120  0.78670  Biso   1.000  C
  C30      1.0000 0.79870  0.11880  0.21330  Biso   1.000  C
  C31      1.0000 0.18480  0.90700  0.87900  Biso   1.000  C
  C32      1.0000 0.81520  0.09300  0.12100  Biso   1.000  C
  C33      1.0000 0.12690  0.84700  0.94203  Biso   1.000  C
  C34      1.0000 0.87310  0.15300  0.05797  Biso   1.000  C
  C35      1.0000 0.09000  0.75970  0.90930  Biso   1.000  C
  C36      1.0000 0.91000  0.24030  0.09070  Biso   1.000  C
  C37      1.0000 0.37950  0.37470  0.75740  Biso   1.000  C
  C38      1.0000 0.62050  0.62530  0.24260  Biso   1.000  C
  C39      1.0000 0.42760  0.31510  0.83980  Biso   1.000  C
  C40      1.0000 0.57240  0.68490  0.16020  Biso   1.000  C
  C41      1.0000 0.55740  0.28370  0.86280  Biso   1.000  C
  C42      1.0000 0.44260  0.71630  0.13720  Biso   1.000  C
  C43      1.0000 0.64630  0.30950  0.80020  Biso   1.000  C
  C44      1.0000 0.35370  0.69050  0.19980  Biso   1.000  C
  C45      1.0000 0.60500  0.36700  0.71650  Biso   1.000  C
  C46      1.0000 0.39500  0.63300  0.28350  Biso   1.000  C
  C47      1.0000 0.47340  0.39970  0.69690  Biso   1.000  C
  C48      1.0000 0.52660  0.60030  0.30310  Biso   1.000  C
  C49      1.0000 0.48560  0.16420  0.52800  Biso   1.000  C
  C50      1.0000 0.51440  0.83580  0.47200  Biso   1.000  C
  H1       1.0000 0.42700  0.20940  0.48170  Biso   1.000  H
  H2       1.0000 0.57300  0.79060  0.51830  Biso   1.000  H
  C51      1.0000 0.62010  0.13640  0.52280  Biso   1.000  C
  C52      1.0000 0.37990  0.86360  0.47720  Biso   1.000  C
  H3       1.0000 0.66720  0.15930  0.47150  Biso   1.000  H
  H4       1.0000 0.33280  0.84070  0.52850  Biso   1.000  H
  C53      1.0000 0.68410  0.06900  0.60230  Biso   1.000  C
  C54      1.0000 0.31590  0.93100  0.39770  Biso   1.000  C
  H5       1.0000 0.77830  0.04210  0.60920  Biso   1.000  H
  H6       1.0000 0.22170  0.95790  0.39080  Biso   1.000  H
  C55      1.0000 0.59650  0.04720  0.66720  Biso   1.000  C
  C56      1.0000 0.40350  0.95280  0.33280  Biso   1.000  C
  C57      1.0000 0.61940  0.98780  0.75750  Biso   1.000  C
  C58      1.0000 0.38060  0.01220  0.24250  Biso   1.000  C
  C59      1.0000 0.53110  0.96270  0.82070  Biso   1.000  C
  C60      1.0000 0.46890  0.03730  0.17930  Biso   1.000  C
  H7       1.0000 0.44150  0.97920  0.80910  Biso   1.000  H
  H8       1.0000 0.55850  0.02080  0.19090  Biso   1.000  H
  C61      1.0000 0.58610  0.90990  0.90460  Biso   1.000  C
  C62      1.0000 0.41390  0.09010  0.09540  Biso   1.000  C
  H9       1.0000 0.53740  0.88670  0.95470  Biso   1.000  H
  H10      1.0000 0.46260  0.11330  0.04530  Biso   1.000  H
  C63      1.0000 0.71460  0.89580  0.90660  Biso   1.000  C
  C64      1.0000 0.28540  0.10420  0.09340  Biso   1.000  C
  H11      1.0000 0.76610  0.86280  0.95780  Biso   1.000  H
  H12      1.0000 0.23390  0.13720  0.04220  Biso   1.000  H
  Cu1      1.0000 0.25355  0.32830  0.70056  Biso   1.000  Cu
  Cu2      1.0000 0.74645  0.67170  0.29944  Biso   1.000  Cu
  Cu3      1.0000 0.00402  0.48523  0.72470  Biso   1.000  Cu
  Cu4      1.0000 0.99598  0.51477  0.27530  Biso   1.000  Cu
  Cu5      1.0000 0.94464  0.70137  0.78736  Biso   1.000  Cu
  Cu6      1.0000 0.05536  0.29863  0.21264  Biso   1.000  Cu
  Cu7      1.0000 0.19284  0.53845  0.77861  Biso   1.000  Cu
  Cu8      1.0000 0.80716  0.46155  0.22139  Biso   1.000  Cu
  F1       1.0000 0.06049  0.20191  0.78319  Biso   1.000  F
  F2       1.0000 0.93951  0.79809  0.21681  Biso   1.000  F
  F3       1.0000 0.95688  0.08352  0.68600  Biso   1.000  F
  F4       1.0000 0.04312  0.91648  0.31400  Biso   1.000  F
  F5       1.0000 0.93394  0.13783  0.50464  Biso   1.000  F
  F6       1.0000 0.06606  0.86217  0.49536  Biso   1.000  F
  F7       1.0000 0.01988  0.30325  0.41787  Biso   1.000  F
  F8       1.0000 0.98012  0.69675  0.58213  Biso   1.000  F
  F9       1.0000 0.13425  0.41527  0.51244  Biso   1.000  F
  F10      1.0000 0.86575  0.58473  0.48756  Biso   1.000  F
  F11      1.0000 0.72272  0.71457  0.65032  Biso   1.000  F
  F12      1.0000 0.27728  0.28543  0.34968  Biso   1.000  F
  F13      1.0000 0.49108  0.69701  0.70411  Biso   1.000  F
  F14      1.0000 0.50892  0.30299  0.29589  Biso   1.000  F
  F15      1.0000 0.45167  0.60366  0.87446  Biso   1.000  F
  F16      1.0000 0.54833  0.39634  0.12554  Biso   1.000  F
  F17      1.0000 0.65576  0.51165  0.98645  Biso   1.000  F
  F18      1.0000 0.34424  0.48835  0.01355  Biso   1.000  F
  F19      1.0000 0.89151  0.52726  0.93322  Biso   1.000  F
  F20      1.0000 0.10849  0.47274  0.06678  Biso   1.000  F
  F21      1.0000 0.17825  0.77442  0.66514  Biso   1.000  F
  F22      1.0000 0.82175  0.22558  0.33486  Biso   1.000  F
  F23      1.0000 0.25634  0.94101  0.72565  Biso   1.000  F
  F24      1.0000 0.74366  0.05899  0.27435  Biso   1.000  F
  F25      1.0000 0.22253  0.99097  0.90956  Biso   1.000  F
  F26      1.0000 0.77747  0.00903  0.09044  Biso   1.000  F
  F27      1.0000 0.10734  0.87521  0.03197  Biso   1.000  F
  F28      1.0000 0.89266  0.12479  0.96803  Biso   1.000  F
  F29      1.0000 0.03231  0.70508  0.97325  Biso   1.000  F
  F30      1.0000 0.96769  0.29492  0.02675  Biso   1.000  F
  F31      1.0000 0.34475  0.28485  0.90229  Biso   1.000  F
  F32      1.0000 0.65525  0.71515  0.09771  Biso   1.000  F
  F33      1.0000 0.59650  0.22923  0.94453  Biso   1.000  F
  F34      1.0000 0.40350  0.77077  0.05547  Biso   1.000  F
  F35      1.0000 0.77182  0.28138  0.82071  Biso   1.000  F
  F36      1.0000 0.22818  0.71862  0.17929  Biso   1.000  F
  F37      1.0000 0.69349  0.39070  0.65578  Biso   1.000  F
  F38      1.0000 0.30651  0.60930  0.34422  Biso   1.000  F
  F39      1.0000 0.43673  0.45762  0.61539  Biso   1.000  F
  F40      1.0000 0.56327  0.54238  0.38461  Biso   1.000  F
  S1       1.0000 0.43377  0.10705  0.62962  Biso   1.000  S
  S2       1.0000 0.56623  0.89295  0.37038  Biso   1.000  S
  S3       1.0000 0.77313  0.94557  0.80370  Biso   1.000  S
  S4       1.0000 0.22687  0.05443  0.19630  Biso   1.000  S
