data_image0
_cell_length_a       13.154
_cell_length_b       13.898
_cell_length_c       14.653
_cell_angle_alpha    110.59
_cell_angle_beta     97.71
_cell_angle_gamma    116.25

_symmetry_space_group_name_H-M    "P 1"
_symmetry_int_tables_number       1

loop_
  _symmetry_equiv_pos_as_xyz
  'x, y, z'

loop_
  _atom_site_label
  _atom_site_occupancy
  _atom_site_fract_x
  _atom_site_fract_y
  _atom_site_fract_z
  _atom_site_thermal_displace_type
  _atom_site_B_iso_or_equiv
  _atom_site_type_symbol
  Cu1      1.0000 0.51687  0.59433  0.95964  Biso   1.000  Cu
  Cu2      1.0000 0.48313  0.40567  0.04036  Biso   1.000  Cu
  Cu3      1.0000 0.97531  0.95674  0.08865  Biso   1.000  Cu
  Cu4      1.0000 0.02469  0.04326  0.91135  Biso   1.000  Cu
  Cu5      1.0000 0.74154  0.81808  0.06744  Biso   1.000  Cu
  Cu6      1.0000 0.25846  0.18192  0.93256  Biso   1.000  Cu
  P1       1.0000 0.48384  0.74075  0.99069  Biso   1.000  P
  P2       1.0000 0.51616  0.25925  0.00931  Biso   1.000  P
  P3       1.0000 0.98433  0.98940  0.24823  Biso   1.000  P
  P4       1.0000 0.01567  0.01060  0.75177  Biso   1.000  P
  O1       1.0000 0.88600  0.96110  0.96650  Biso   1.000  O
  O2       1.0000 0.11400  0.03890  0.03350  Biso   1.000  O
  O3       1.0000 0.60410  0.58700  0.08270  Biso   1.000  O
  O4       1.0000 0.39590  0.41300  0.91730  Biso   1.000  O
  N1       1.0000 0.69460  0.86580  0.97050  Biso   1.000  N
  N2       1.0000 0.30540  0.13420  0.02950  Biso   1.000  N
  C1       1.0000 0.57630  0.83190  0.93620  Biso   1.000  C
  C2       1.0000 0.42370  0.16810  0.06380  Biso   1.000  C
  C3       1.0000 0.53260  0.85690  0.86280  Biso   1.000  C
  C4       1.0000 0.46740  0.14310  0.13720  Biso   1.000  C
  H1       1.0000 0.45060  0.83110  0.83920  Biso   1.000  H
  H2       1.0000 0.54940  0.16890  0.16080  Biso   1.000  H
  C5       1.0000 0.61470  0.92230  0.82380  Biso   1.000  C
  C6       1.0000 0.38530  0.07770  0.17620  Biso   1.000  C
  H3       1.0000 0.58800  0.94160  0.77380  Biso   1.000  H
  H4       1.0000 0.41200  0.05840  0.22620  Biso   1.000  H
  C7       1.0000 0.73170  0.95730  0.85820  Biso   1.000  C
  C8       1.0000 0.26830  0.04270  0.14180  Biso   1.000  C
  H5       1.0000 0.78620  0.00130  0.83220  Biso   1.000  H
  H6       1.0000 0.21380  0.99870  0.16780  Biso   1.000  H
  C9       1.0000 0.77340  0.92870  0.93270  Biso   1.000  C
  C10      1.0000 0.22660  0.07130  0.06730  Biso   1.000  C
  C11      1.0000 0.33300  0.70870  0.93720  Biso   1.000  C
  C12      1.0000 0.66700  0.29130  0.06280  Biso   1.000  C
  C13      1.0000 0.24180  0.59120  0.86970  Biso   1.000  C
  C14      1.0000 0.75820  0.40880  0.13030  Biso   1.000  C
  H7       1.0000 0.25850  0.52920  0.85250  Biso   1.000  H
  H8       1.0000 0.74150  0.47080  0.14750  Biso   1.000  H
  C15      1.0000 0.12520  0.56290  0.82650  Biso   1.000  C
  C16      1.0000 0.87480  0.43710  0.17350  Biso   1.000  C
  H9       1.0000 0.06410  0.48230  0.78020  Biso   1.000  H
  H10      1.0000 0.93590  0.51770  0.21980  Biso   1.000  H
  C17      1.0000 0.09960  0.65100  0.85080  Biso   1.000  C
  C18      1.0000 0.90040  0.34900  0.14920  Biso   1.000  C
  H11      1.0000 0.02090  0.63170  0.82110  Biso   1.000  H
  H12      1.0000 0.97910  0.36830  0.17890  Biso   1.000  H
  C19      1.0000 0.18920  0.76960  0.91930  Biso   1.000  C
  C20      1.0000 0.81080  0.23040  0.08070  Biso   1.000  C
  H13      1.0000 0.17130  0.83080  0.93640  Biso   1.000  H
  H14      1.0000 0.82870  0.16920  0.06360  Biso   1.000  H
  C21      1.0000 0.30530  0.79830  0.96270  Biso   1.000  C
  C22      1.0000 0.69470  0.20170  0.03730  Biso   1.000  C
  H15      1.0000 0.36570  0.87890  0.00980  Biso   1.000  H
  H16      1.0000 0.63430  0.12110  0.99020  Biso   1.000  H
  C23      1.0000 0.53410  0.84870  0.12590  Biso   1.000  C
  C24      1.0000 0.46590  0.15130  0.87410  Biso   1.000  C
  C25      1.0000 0.49540  0.80290  0.19320  Biso   1.000  C
  C26      1.0000 0.50460  0.19710  0.80680  Biso   1.000  C
  H17      1.0000 0.44860  0.71880  0.16860  Biso   1.000  H
  H18      1.0000 0.55140  0.28120  0.83140  Biso   1.000  H
  C27      1.0000 0.52500  0.87960  0.29580  Biso   1.000  C
  C28      1.0000 0.47500  0.12040  0.70420  Biso   1.000  C
  H19      1.0000 0.49530  0.84760  0.33990  Biso   1.000  H
  H20      1.0000 0.50470  0.15240  0.66010  Biso   1.000  H
  C29      1.0000 0.59790  0.00270  0.33410  Biso   1.000  C
  C30      1.0000 0.40210  0.99730  0.66590  Biso   1.000  C
  H21      1.0000 0.61940  0.05440  0.40470  Biso   1.000  H
  H22      1.0000 0.38060  0.94560  0.59530  Biso   1.000  H
  C31      1.0000 0.63950  0.05040  0.26940  Biso   1.000  C
  C32      1.0000 0.36050  0.94960  0.73060  Biso   1.000  C
  H23      1.0000 0.68920  0.13460  0.29550  Biso   1.000  H
  H24      1.0000 0.31080  0.86540  0.70450  Biso   1.000  H
  C33      1.0000 0.60770  0.97350  0.16580  Biso   1.000  C
  C34      1.0000 0.39230  0.02650  0.83420  Biso   1.000  C
  H25      1.0000 0.63610  0.00610  0.12160  Biso   1.000  H
  H26      1.0000 0.36390  0.99390  0.87840  Biso   1.000  H
  N3       1.0000 0.77650  0.77230  0.16990  Biso   1.000  N
  N4       1.0000 0.22350  0.22770  0.83010  Biso   1.000  N
  C35      1.0000 0.88020  0.85380  0.25530  Biso   1.000  C
  C36      1.0000 0.11980  0.14620  0.74470  Biso   1.000  C
  C37      1.0000 0.90190  0.83370  0.33930  Biso   1.000  C
  C38      1.0000 0.09810  0.16630  0.66070  Biso   1.000  C
  H27      1.0000 0.97420  0.88960  0.39640  Biso   1.000  H
  H28      1.0000 0.02580  0.11040  0.60360  Biso   1.000  H
  C39      1.0000 0.81440  0.72850  0.33800  Biso   1.000  C
  C40      1.0000 0.18560  0.27150  0.66200  Biso   1.000  C
  H29      1.0000 0.82650  0.71380  0.39520  Biso   1.000  H
  H30      1.0000 0.17350  0.28620  0.60480  Biso   1.000  H
  C41      1.0000 0.71280  0.64840  0.25470  Biso   1.000  C
  C42      1.0000 0.28720  0.35160  0.74530  Biso   1.000  C
  H31      1.0000 0.65310  0.57870  0.25490  Biso   1.000  H
  H32      1.0000 0.34690  0.42130  0.74510  Biso   1.000  H
  C43      1.0000 0.69470  0.66760  0.16640  Biso   1.000  C
  C44      1.0000 0.30530  0.33240  0.83360  Biso   1.000  C
  C45      1.0000 0.13110  0.03550  0.33300  Biso   1.000  C
  C46      1.0000 0.86890  0.96450  0.66700  Biso   1.000  C
  C47      1.0000 0.21390  0.15520  0.40210  Biso   1.000  C
  C48      1.0000 0.78610  0.84480  0.59790  Biso   1.000  C
  H33      1.0000 0.19250  0.21340  0.41220  Biso   1.000  H
  H34      1.0000 0.80750  0.78660  0.58780  Biso   1.000  H
  C49      1.0000 0.32970  0.19000  0.45730  Biso   1.000  C
  C50      1.0000 0.67030  0.81000  0.54270  Biso   1.000  C
  H35      1.0000 0.38610  0.27180  0.50420  Biso   1.000  H
  H36      1.0000 0.61390  0.72820  0.49580  Biso   1.000  H
  C51      1.0000 0.36170  0.10610  0.44380  Biso   1.000  C
  C52      1.0000 0.63830  0.89390  0.55620  Biso   1.000  C
  H37      1.0000 0.43970  0.13030  0.48160  Biso   1.000  H
  H38      1.0000 0.56030  0.86970  0.51840  Biso   1.000  H
  C53      1.0000 0.28030  0.98700  0.37530  Biso   1.000  C
  C54      1.0000 0.71970  0.01300  0.62470  Biso   1.000  C
  H39      1.0000 0.30200  0.92910  0.36610  Biso   1.000  H
  H40      1.0000 0.69800  0.07090  0.63390  Biso   1.000  H
  C55      1.0000 0.16510  0.95190  0.31930  Biso   1.000  C
  C56      1.0000 0.83490  0.04810  0.68070  Biso   1.000  C
  H41      1.0000 0.10970  0.87020  0.27140  Biso   1.000  H
  H42      1.0000 0.89030  0.12980  0.72860  Biso   1.000  H
  C57      1.0000 0.95640  0.10420  0.32560  Biso   1.000  C
  C58      1.0000 0.04360  0.89580  0.67440  Biso   1.000  C
  C59      1.0000 0.91990  0.10520  0.41020  Biso   1.000  C
  C60      1.0000 0.08010  0.89480  0.58980  Biso   1.000  C
  H43      1.0000 0.89900  0.03950  0.42460  Biso   1.000  H
  H44      1.0000 0.10100  0.96050  0.57540  Biso   1.000  H
  C61      1.0000 0.91390  0.20190  0.47370  Biso   1.000  C
  C62      1.0000 0.08610  0.79810  0.52630  Biso   1.000  C
  H45      1.0000 0.88910  0.20140  0.53090  Biso   1.000  H
  H46      1.0000 0.11090  0.79860  0.46910  Biso   1.000  H
  C63      1.0000 0.94390  0.29820  0.45380  Biso   1.000  C
  C64      1.0000 0.05610  0.70180  0.54620  Biso   1.000  C
  H47      1.0000 0.94080  0.36420  0.49790  Biso   1.000  H
  H48      1.0000 0.05920  0.63580  0.50210  Biso   1.000  H
  C65      1.0000 0.97830  0.29840  0.36960  Biso   1.000  C
  C66      1.0000 0.02170  0.70160  0.63040  Biso   1.000  C
  H49      1.0000 0.99880  0.36460  0.35610  Biso   1.000  H
  H50      1.0000 0.00120  0.63540  0.64390  Biso   1.000  H
  C67      1.0000 0.98290  0.20130  0.30450  Biso   1.000  C
  C68      1.0000 0.01710  0.79870  0.69550  Biso   1.000  C
  H51      1.0000 0.00410  0.20090  0.24560  Biso   1.000  H
  H52      1.0000 0.99590  0.79910  0.75440  Biso   1.000  H
  N5       1.0000 0.60020  0.57530  0.85140  Biso   1.000  N
  N6       1.0000 0.39980  0.42470  0.14860  Biso   1.000  N
  C69      1.0000 0.65220  0.60060  0.80060  Biso   1.000  C
  C70      1.0000 0.34780  0.39940  0.19940  Biso   1.000  C
  C71      1.0000 0.72180  0.63830  0.73590  Biso   1.000  C
  C72      1.0000 0.27820  0.36170  0.26410  Biso   1.000  C
  H53      1.0000 0.67690  0.65160  0.68850  Biso   1.000  H
  H54      1.0000 0.32310  0.34840  0.31150  Biso   1.000  H
  H55      1.0000 0.73540  0.57540  0.69640  Biso   1.000  H
  H56      1.0000 0.26460  0.42460  0.30360  Biso   1.000  H
  H57      1.0000 0.79880  0.71260  0.78000  Biso   1.000  H
  H58      1.0000 0.20120  0.28740  0.22000  Biso   1.000  H
  N7       1.0000 0.94530  0.77210  0.00970  Biso   1.000  N
  N8       1.0000 0.05470  0.22790  0.99030  Biso   1.000  N
  C73      1.0000 0.91500  0.67950  0.99950  Biso   1.000  C
  C74      1.0000 0.08500  0.32050  0.00050  Biso   1.000  C
  C75      1.0000 0.87960  0.56220  0.98670  Biso   1.000  C
  C76      1.0000 0.12040  0.43780  0.01330  Biso   1.000  C
  H59      1.0000 0.79490  0.51870  0.97900  Biso   1.000  H
  H60      1.0000 0.20510  0.48130  0.02100  Biso   1.000  H
  H61      1.0000 0.92770  0.56840  0.04720  Biso   1.000  H
  H62      1.0000 0.07230  0.43160  0.95280  Biso   1.000  H
  H63      1.0000 0.89200  0.51910  0.92530  Biso   1.000  H
  H64      1.0000 0.10800  0.48090  0.07470  Biso   1.000  H
  Cl1      1.0000 0.23900  0.64957  0.33248  Biso   1.000  Cl
  Cl2      1.0000 0.76100  0.35043  0.66752  Biso   1.000  Cl
  O5       1.0000 0.15880  0.55620  0.35160  Biso   1.000  O
  O6       1.0000 0.84120  0.44380  0.64840  Biso   1.000  O
  O7       1.0000 0.29570  0.61120  0.27140  Biso   1.000  O
  O8       1.0000 0.70430  0.38880  0.72860  Biso   1.000  O
  O9       1.0000 0.17090  0.68170  0.27830  Biso   1.000  O
  O10      1.0000 0.82910  0.31830  0.72170  Biso   1.000  O
  O11      1.0000 0.31940  0.75370  0.42490  Biso   1.000  O
  O12      1.0000 0.68060  0.24630  0.57510  Biso   1.000  O
  C77      1.0000 0.33570  0.60970  0.57120  Biso   1.000  C
  C78      1.0000 0.66430  0.39030  0.42880  Biso   1.000  C
  H65      1.0000 0.40000  0.69510  0.60230  Biso   1.000  H
  H66      1.0000 0.60000  0.30490  0.39770  Biso   1.000  H
  H67      1.0000 0.28960  0.58590  0.50060  Biso   1.000  H
  H68      1.0000 0.71040  0.41410  0.49940  Biso   1.000  H
  Cl3      1.0000 0.24370  0.59250  0.64160  Biso   1.000  Cl
  Cl4      1.0000 0.75630  0.40750  0.35840  Biso   1.000  Cl
  Cl5      1.0000 0.40020  0.52260  0.56520  Biso   1.000  Cl
  Cl6      1.0000 0.59980  0.47740  0.43480  Biso   1.000  Cl
  C79      1.0000 0.87040  0.61960  0.97580  Biso   1.000  C
  C80      1.0000 0.12960  0.38040  0.02420  Biso   1.000  C
  H69      1.0000 0.85470  0.54920  0.91450  Biso   1.000  H
  H70      1.0000 0.14530  0.45080  0.08550  Biso   1.000  H
  H71      1.0000 0.79570  0.59880  0.99170  Biso   1.000  H
  H72      1.0000 0.20430  0.40120  0.00830  Biso   1.000  H
  Cl7      1.0000 0.91310  0.74270  0.94870  Biso   1.000  Cl
  Cl8      1.0000 0.08690  0.25730  0.05130  Biso   1.000  Cl
  Cl9      1.0000 0.98460  0.65450  0.08190  Biso   1.000  Cl
  Cl10     1.0000 0.01540  0.34550  0.91810  Biso   1.000  Cl
