data_image0
_cell_length_a       8.838
_cell_length_b       11.9988
_cell_length_c       8.5601
_cell_angle_alpha    90
_cell_angle_beta     90
_cell_angle_gamma    90

_symmetry_space_group_name_H-M    "P 1"
_symmetry_int_tables_number       1

loop_
  _symmetry_equiv_pos_as_xyz
  'x, y, z'

loop_
  _atom_site_label
  _atom_site_occupancy
  _atom_site_fract_x
  _atom_site_fract_y
  _atom_site_fract_z
  _atom_site_thermal_displace_type
  _atom_site_B_iso_or_equiv
  _atom_site_type_symbol
  Cu1      1.0000 0.61370  0.25000  0.86750  Biso   1.000  Cu
  Cu2      1.0000 0.88630  0.75000  0.36750  Biso   1.000  Cu
  Cu3      1.0000 0.11370  0.25000  0.63250  Biso   1.000  Cu
  Cu4      1.0000 0.38630  0.75000  0.13250  Biso   1.000  Cu
  F1       1.0000 0.57100  0.34000  0.33200  Biso   1.000  F
  F2       1.0000 0.92900  0.66000  0.83200  Biso   1.000  F
  F3       1.0000 0.07100  0.16000  0.16800  Biso   1.000  F
  F4       1.0000 0.42900  0.84000  0.66800  Biso   1.000  F
  F5       1.0000 0.42900  0.66000  0.66800  Biso   1.000  F
  F6       1.0000 0.07100  0.34000  0.16800  Biso   1.000  F
  F7       1.0000 0.92900  0.84000  0.83200  Biso   1.000  F
  F8       1.0000 0.57100  0.16000  0.33200  Biso   1.000  F
  F9       1.0000 0.43900  0.34700  0.32400  Biso   1.000  F
  F10      1.0000 0.06100  0.65300  0.82400  Biso   1.000  F
  F11      1.0000 0.93900  0.15300  0.17600  Biso   1.000  F
  F12      1.0000 0.56100  0.84700  0.67600  Biso   1.000  F
  F13      1.0000 0.56100  0.65300  0.67600  Biso   1.000  F
  F14      1.0000 0.93900  0.34700  0.17600  Biso   1.000  F
  F15      1.0000 0.06100  0.84700  0.82400  Biso   1.000  F
  F16      1.0000 0.43900  0.15300  0.32400  Biso   1.000  F
  F17      1.0000 0.36600  0.25000  0.31700  Biso   1.000  F
  F18      1.0000 0.13400  0.75000  0.81700  Biso   1.000  F
  F19      1.0000 0.86600  0.25000  0.18300  Biso   1.000  F
  F20      1.0000 0.63400  0.75000  0.68300  Biso   1.000  F
  F21      1.0000 0.62000  0.25000  0.32600  Biso   1.000  F
  F22      1.0000 0.88000  0.75000  0.82600  Biso   1.000  F
  F23      1.0000 0.12000  0.25000  0.17400  Biso   1.000  F
  F24      1.0000 0.38000  0.75000  0.67400  Biso   1.000  F
  O1       1.0000 0.61450  0.25000  0.62200  Biso   1.000  O
  O2       1.0000 0.88550  0.75000  0.12200  Biso   1.000  O
  O3       1.0000 0.11450  0.25000  0.87800  Biso   1.000  O
  O4       1.0000 0.38550  0.75000  0.37800  Biso   1.000  O
  O5       1.0000 0.36490  0.25000  0.62090  Biso   1.000  O
  O6       1.0000 0.13510  0.75000  0.12090  Biso   1.000  O
  O7       1.0000 0.86490  0.25000  0.87910  Biso   1.000  O
  O8       1.0000 0.63510  0.75000  0.37910  Biso   1.000  O
  N1       1.0000 0.55000  0.10260  0.94310  Biso   1.000  N
  N2       1.0000 0.95000  0.89740  0.44310  Biso   1.000  N
  N3       1.0000 0.05000  0.39740  0.55690  Biso   1.000  N
  N4       1.0000 0.45000  0.60260  0.05690  Biso   1.000  N
  N5       1.0000 0.45000  0.89740  0.05690  Biso   1.000  N
  N6       1.0000 0.05000  0.10260  0.55690  Biso   1.000  N
  N7       1.0000 0.95000  0.60260  0.44310  Biso   1.000  N
  N8       1.0000 0.55000  0.39740  0.94310  Biso   1.000  N
  C1       1.0000 0.64270  0.02490  0.99560  Biso   1.000  C
  C2       1.0000 0.85730  0.97510  0.49560  Biso   1.000  C
  C3       1.0000 0.14270  0.47510  0.50440  Biso   1.000  C
  C4       1.0000 0.35730  0.52490  0.00440  Biso   1.000  C
  C5       1.0000 0.35730  0.97510  0.00440  Biso   1.000  C
  C6       1.0000 0.14270  0.02490  0.50440  Biso   1.000  C
  C7       1.0000 0.85730  0.52490  0.49560  Biso   1.000  C
  C8       1.0000 0.64270  0.47510  0.99560  Biso   1.000  C
  C9       1.0000 0.40550  0.07520  0.94740  Biso   1.000  C
  C10      1.0000 0.09450  0.92480  0.44740  Biso   1.000  C
  C11      1.0000 0.90550  0.42480  0.55260  Biso   1.000  C
  C12      1.0000 0.59450  0.57520  0.05260  Biso   1.000  C
  C13      1.0000 0.59450  0.92480  0.05260  Biso   1.000  C
  C14      1.0000 0.90550  0.07520  0.55260  Biso   1.000  C
  C15      1.0000 0.09450  0.57520  0.44740  Biso   1.000  C
  C16      1.0000 0.40550  0.42480  0.94740  Biso   1.000  C
  C17      1.0000 0.48850  0.25000  0.56180  Biso   1.000  C
  C18      1.0000 0.01150  0.75000  0.06180  Biso   1.000  C
  C19      1.0000 0.98850  0.25000  0.93820  Biso   1.000  C
  C20      1.0000 0.51150  0.75000  0.43820  Biso   1.000  C
  C21      1.0000 0.49500  0.25000  0.38200  Biso   1.000  C
  C22      1.0000 0.00500  0.75000  0.88200  Biso   1.000  C
  C23      1.0000 0.99500  0.25000  0.11800  Biso   1.000  C
  C24      1.0000 0.50500  0.75000  0.61800  Biso   1.000  C
  H1       1.0000 0.74910  0.03930  0.99470  Biso   1.000  H
  H2       1.0000 0.75090  0.96070  0.49470  Biso   1.000  H
  H3       1.0000 0.24910  0.46070  0.50530  Biso   1.000  H
  H4       1.0000 0.25090  0.53930  0.00530  Biso   1.000  H
  H5       1.0000 0.25090  0.96070  0.00530  Biso   1.000  H
  H6       1.0000 0.24910  0.03930  0.50530  Biso   1.000  H
  H7       1.0000 0.75090  0.53930  0.49470  Biso   1.000  H
  H8       1.0000 0.74910  0.46070  0.99470  Biso   1.000  H
  H9       1.0000 0.33370  0.12680  0.91110  Biso   1.000  H
  H10      1.0000 0.16630  0.87320  0.41110  Biso   1.000  H
  H11      1.0000 0.83370  0.37320  0.58890  Biso   1.000  H
  H12      1.0000 0.66630  0.62680  0.08890  Biso   1.000  H
  H13      1.0000 0.66630  0.87320  0.08890  Biso   1.000  H
  H14      1.0000 0.83370  0.12680  0.58890  Biso   1.000  H
  H15      1.0000 0.16630  0.62680  0.41110  Biso   1.000  H
  H16      1.0000 0.33370  0.37320  0.91110  Biso   1.000  H
