data_image0
_cell_length_a       6.208
_cell_length_b       9.158
_cell_length_c       11.198
_cell_angle_alpha    90
_cell_angle_beta     90.89
_cell_angle_gamma    90

_symmetry_space_group_name_H-M    "P 1"
_symmetry_int_tables_number       1

loop_
  _symmetry_equiv_pos_as_xyz
  'x, y, z'

loop_
  _atom_site_label
  _atom_site_occupancy
  _atom_site_fract_x
  _atom_site_fract_y
  _atom_site_fract_z
  _atom_site_thermal_displace_type
  _atom_site_B_iso_or_equiv
  _atom_site_type_symbol
  N1       1.0000 0.46800  0.16500  0.75000  Biso   1.000  N
  N2       1.0000 0.53200  0.66500  0.75000  Biso   1.000  N
  N3       1.0000 0.53200  0.83500  0.25000  Biso   1.000  N
  N4       1.0000 0.46800  0.33500  0.25000  Biso   1.000  N
  N5       1.0000 0.12200  0.99600  0.89800  Biso   1.000  N
  N6       1.0000 0.87800  0.49600  0.60200  Biso   1.000  N
  N7       1.0000 0.87800  0.00400  0.10200  Biso   1.000  N
  N8       1.0000 0.12200  0.50400  0.39800  Biso   1.000  N
  N9       1.0000 0.12000  0.98200  0.60600  Biso   1.000  N
  N10      1.0000 0.88000  0.48200  0.89400  Biso   1.000  N
  N11      1.0000 0.88000  0.01800  0.39400  Biso   1.000  N
  N12      1.0000 0.12000  0.51800  0.10600  Biso   1.000  N
  C1       1.0000 0.53400  0.27800  0.74800  Biso   1.000  C
  C2       1.0000 0.46600  0.77800  0.75200  Biso   1.000  C
  C3       1.0000 0.46600  0.72200  0.25200  Biso   1.000  C
  C4       1.0000 0.53400  0.22200  0.24800  Biso   1.000  C
  C5       1.0000 0.18600  0.07100  0.99500  Biso   1.000  C
  C6       1.0000 0.81400  0.57100  0.50500  Biso   1.000  C
  C7       1.0000 0.81400  0.92900  0.00500  Biso   1.000  C
  C8       1.0000 0.18600  0.42900  0.49500  Biso   1.000  C
  C9       1.0000 0.93700  0.92900  0.90400  Biso   1.000  C
  C10      1.0000 0.06300  0.42900  0.59600  Biso   1.000  C
  C11      1.0000 0.06300  0.07100  0.09600  Biso   1.000  C
  C12      1.0000 0.93700  0.57100  0.40400  Biso   1.000  C
  C13      1.0000 0.93500  0.05000  0.60200  Biso   1.000  C
  C14      1.0000 0.06500  0.55000  0.89800  Biso   1.000  C
  C15      1.0000 0.06500  0.95000  0.39800  Biso   1.000  C
  C16      1.0000 0.93500  0.45000  0.10200  Biso   1.000  C
  C17      1.0000 0.17800  0.92500  0.50100  Biso   1.000  C
  C18      1.0000 0.82200  0.42500  0.99900  Biso   1.000  C
  C19      1.0000 0.82200  0.07500  0.49900  Biso   1.000  C
  C20      1.0000 0.17800  0.57500  0.00100  Biso   1.000  C
  H1       1.0000 0.31840  0.12420  0.99260  Biso   1.000  H
  H2       1.0000 0.68160  0.62420  0.50740  Biso   1.000  H
  H3       1.0000 0.68160  0.87580  0.00740  Biso   1.000  H
  H4       1.0000 0.31840  0.37580  0.49260  Biso   1.000  H
  H5       1.0000 0.88520  0.87730  0.83450  Biso   1.000  H
  H6       1.0000 0.11480  0.37730  0.66550  Biso   1.000  H
  H7       1.0000 0.11480  0.12270  0.16550  Biso   1.000  H
  H8       1.0000 0.88520  0.62270  0.33450  Biso   1.000  H
  H9       1.0000 0.87870  0.08550  0.67620  Biso   1.000  H
  H10      1.0000 0.12130  0.58550  0.82380  Biso   1.000  H
  H11      1.0000 0.12130  0.91450  0.32380  Biso   1.000  H
  H12      1.0000 0.87870  0.41450  0.17620  Biso   1.000  H
  H13      1.0000 0.30800  0.86690  0.49980  Biso   1.000  H
  H14      1.0000 0.69200  0.36690  0.00020  Biso   1.000  H
  H15      1.0000 0.69200  0.13310  0.50020  Biso   1.000  H
  H16      1.0000 0.30800  0.63310  0.99980  Biso   1.000  H
  Cu1      1.0000 0.34320  0.97040  0.75260  Biso   1.000  Cu
  Cu2      1.0000 0.65680  0.47040  0.74740  Biso   1.000  Cu
  Cu3      1.0000 0.65680  0.02960  0.24740  Biso   1.000  Cu
  Cu4      1.0000 0.34320  0.52960  0.25260  Biso   1.000  Cu
