data_image0
_cell_length_a       31.908
_cell_length_b       9.7803
_cell_length_c       25.3001
_cell_angle_alpha    90
_cell_angle_beta     122.058
_cell_angle_gamma    90

_symmetry_space_group_name_H-M    "P 1"
_symmetry_int_tables_number       1

loop_
  _symmetry_equiv_pos_as_xyz
  'x, y, z'

loop_
  _atom_site_label
  _atom_site_occupancy
  _atom_site_fract_x
  _atom_site_fract_y
  _atom_site_fract_z
  _atom_site_thermal_displace_type
  _atom_site_B_iso_or_equiv
  _atom_site_type_symbol
  Au1      1.0000 0.13337  0.37554  0.37027  Biso   1.000  Au
  Au2      1.0000 0.86663  0.37554  0.12973  Biso   1.000  Au
  Au3      1.0000 0.63337  0.87554  0.37027  Biso   1.000  Au
  Au4      1.0000 0.36663  0.87554  0.12973  Biso   1.000  Au
  Au5      1.0000 0.86663  0.62446  0.62973  Biso   1.000  Au
  Au6      1.0000 0.13337  0.62446  0.87027  Biso   1.000  Au
  Au7      1.0000 0.36663  0.12446  0.62973  Biso   1.000  Au
  Au8      1.0000 0.63337  0.12446  0.87027  Biso   1.000  Au
  Cu1      1.0000 0.14809  0.36144  0.12324  Biso   1.000  Cu
  Cu2      1.0000 0.85191  0.36144  0.37676  Biso   1.000  Cu
  Cu3      1.0000 0.64809  0.86144  0.12324  Biso   1.000  Cu
  Cu4      1.0000 0.35191  0.86144  0.37676  Biso   1.000  Cu
  Cu5      1.0000 0.85191  0.63856  0.87676  Biso   1.000  Cu
  Cu6      1.0000 0.14809  0.63856  0.62324  Biso   1.000  Cu
  Cu7      1.0000 0.35191  0.13856  0.87676  Biso   1.000  Cu
  Cu8      1.0000 0.64809  0.13856  0.62324  Biso   1.000  Cu
  C1       1.0000 0.16079  0.57070  0.39330  Biso   1.000  C
  C2       1.0000 0.83921  0.57070  0.10670  Biso   1.000  C
  C3       1.0000 0.66079  0.07070  0.39330  Biso   1.000  C
  C4       1.0000 0.33921  0.07070  0.10670  Biso   1.000  C
  C5       1.0000 0.83921  0.42930  0.60670  Biso   1.000  C
  C6       1.0000 0.16079  0.42930  0.89330  Biso   1.000  C
  C7       1.0000 0.33921  0.92930  0.60670  Biso   1.000  C
  C8       1.0000 0.66079  0.92930  0.89330  Biso   1.000  C
  C9       1.0000 0.16601  0.65870  0.35510  Biso   1.000  C
  C10      1.0000 0.83399  0.65870  0.14490  Biso   1.000  C
  C11      1.0000 0.66601  0.15870  0.35510  Biso   1.000  C
  C12      1.0000 0.33399  0.15870  0.14490  Biso   1.000  C
  C13      1.0000 0.83399  0.34130  0.64490  Biso   1.000  C
  C14      1.0000 0.16601  0.34130  0.85510  Biso   1.000  C
  C15      1.0000 0.33399  0.84130  0.64490  Biso   1.000  C
  C16      1.0000 0.66601  0.84130  0.85510  Biso   1.000  C
  C17      1.0000 0.18294  0.79120  0.37100  Biso   1.000  C
  C18      1.0000 0.81706  0.79120  0.12900  Biso   1.000  C
  C19      1.0000 0.68294  0.29120  0.37100  Biso   1.000  C
  C20      1.0000 0.31706  0.29120  0.12900  Biso   1.000  C
  C21      1.0000 0.81706  0.20880  0.62900  Biso   1.000  C
  C22      1.0000 0.18294  0.20880  0.87100  Biso   1.000  C
  C23      1.0000 0.31706  0.70880  0.62900  Biso   1.000  C
  C24      1.0000 0.68294  0.70880  0.87100  Biso   1.000  C
  C25      1.0000 0.19500  0.84250  0.42770  Biso   1.000  C
  C26      1.0000 0.80500  0.84250  0.07230  Biso   1.000  C
  C27      1.0000 0.69500  0.34250  0.42770  Biso   1.000  C
  C28      1.0000 0.30500  0.34250  0.07230  Biso   1.000  C
  C29      1.0000 0.80500  0.15750  0.57230  Biso   1.000  C
  C30      1.0000 0.19500  0.15750  0.92770  Biso   1.000  C
  C31      1.0000 0.30500  0.65750  0.57230  Biso   1.000  C
  C32      1.0000 0.69500  0.65750  0.92770  Biso   1.000  C
  C33      1.0000 0.18978  0.75820  0.46760  Biso   1.000  C
  C34      1.0000 0.81022  0.75820  0.03240  Biso   1.000  C
  C35      1.0000 0.68978  0.25820  0.46760  Biso   1.000  C
  C36      1.0000 0.31022  0.25820  0.03240  Biso   1.000  C
  C37      1.0000 0.81022  0.24180  0.53240  Biso   1.000  C
  C38      1.0000 0.18978  0.24180  0.96760  Biso   1.000  C
  C39      1.0000 0.31022  0.74180  0.53240  Biso   1.000  C
  C40      1.0000 0.68978  0.74180  0.96760  Biso   1.000  C
  C41      1.0000 0.17330  0.62580  0.45050  Biso   1.000  C
  C42      1.0000 0.82670  0.62580  0.04950  Biso   1.000  C
  C43      1.0000 0.67330  0.12580  0.45050  Biso   1.000  C
  C44      1.0000 0.32670  0.12580  0.04950  Biso   1.000  C
  C45      1.0000 0.82670  0.37420  0.54950  Biso   1.000  C
  C46      1.0000 0.17330  0.37420  0.95050  Biso   1.000  C
  C47      1.0000 0.32670  0.87420  0.54950  Biso   1.000  C
  C48      1.0000 0.67330  0.87420  0.95050  Biso   1.000  C
  F1       1.0000 0.15527  0.61540  0.29801  Biso   1.000  F
  F2       1.0000 0.84473  0.61540  0.20199  Biso   1.000  F
  F3       1.0000 0.65527  0.11540  0.29801  Biso   1.000  F
  F4       1.0000 0.34473  0.11540  0.20199  Biso   1.000  F
  F5       1.0000 0.84473  0.38460  0.70199  Biso   1.000  F
  F6       1.0000 0.15527  0.38460  0.79801  Biso   1.000  F
  F7       1.0000 0.34473  0.88460  0.70199  Biso   1.000  F
  F8       1.0000 0.65527  0.88460  0.79801  Biso   1.000  F
  F9       1.0000 0.18820  0.87150  0.33125  Biso   1.000  F
  F10      1.0000 0.81180  0.87150  0.16875  Biso   1.000  F
  F11      1.0000 0.68820  0.37150  0.33125  Biso   1.000  F
  F12      1.0000 0.31180  0.37150  0.16875  Biso   1.000  F
  F13      1.0000 0.81180  0.12850  0.66875  Biso   1.000  F
  F14      1.0000 0.18820  0.12850  0.83125  Biso   1.000  F
  F15      1.0000 0.31180  0.62850  0.66875  Biso   1.000  F
  F16      1.0000 0.68820  0.62850  0.83125  Biso   1.000  F
  F17      1.0000 0.21167  0.97070  0.44444  Biso   1.000  F
  F18      1.0000 0.78833  0.97070  0.05556  Biso   1.000  F
  F19      1.0000 0.71167  0.47070  0.44444  Biso   1.000  F
  F20      1.0000 0.28833  0.47070  0.05556  Biso   1.000  F
  F21      1.0000 0.78833  0.02930  0.55556  Biso   1.000  F
  F22      1.0000 0.21167  0.02930  0.94444  Biso   1.000  F
  F23      1.0000 0.28833  0.52930  0.55556  Biso   1.000  F
  F24      1.0000 0.71167  0.52930  0.94444  Biso   1.000  F
  F25      1.0000 0.20164  0.80800  0.52399  Biso   1.000  F
  F26      1.0000 0.79836  0.80800  0.97601  Biso   1.000  F
  F27      1.0000 0.70164  0.30800  0.52399  Biso   1.000  F
  F28      1.0000 0.29836  0.30800  0.97601  Biso   1.000  F
  F29      1.0000 0.79836  0.19200  0.47601  Biso   1.000  F
  F30      1.0000 0.20164  0.19200  0.02399  Biso   1.000  F
  F31      1.0000 0.29836  0.69200  0.47601  Biso   1.000  F
  F32      1.0000 0.70164  0.69200  0.02399  Biso   1.000  F
  F33      1.0000 0.16998  0.54950  0.49277  Biso   1.000  F
  F34      1.0000 0.83002  0.54950  0.00723  Biso   1.000  F
  F35      1.0000 0.66998  0.04950  0.49277  Biso   1.000  F
  F36      1.0000 0.33002  0.04950  0.00723  Biso   1.000  F
  F37      1.0000 0.83002  0.45050  0.50723  Biso   1.000  F
  F38      1.0000 0.16998  0.45050  0.99277  Biso   1.000  F
  F39      1.0000 0.33002  0.95050  0.50723  Biso   1.000  F
  F40      1.0000 0.66998  0.95050  0.99277  Biso   1.000  F
  C49      1.0000 0.10530  0.18120  0.35030  Biso   1.000  C
  C50      1.0000 0.89470  0.18120  0.14970  Biso   1.000  C
  C51      1.0000 0.60530  0.68120  0.35030  Biso   1.000  C
  C52      1.0000 0.39470  0.68120  0.14970  Biso   1.000  C
  C53      1.0000 0.89470  0.81880  0.64970  Biso   1.000  C
  C54      1.0000 0.10530  0.81880  0.85030  Biso   1.000  C
  C55      1.0000 0.39470  0.31880  0.64970  Biso   1.000  C
  C56      1.0000 0.60530  0.31880  0.85030  Biso   1.000  C
  C57      1.0000 0.10009  0.10370  0.39200  Biso   1.000  C
  C58      1.0000 0.89991  0.10370  0.10800  Biso   1.000  C
  C59      1.0000 0.60009  0.60370  0.39200  Biso   1.000  C
  C60      1.0000 0.39991  0.60370  0.10800  Biso   1.000  C
  C61      1.0000 0.89991  0.89630  0.60800  Biso   1.000  C
  C62      1.0000 0.10009  0.89630  0.89200  Biso   1.000  C
  C63      1.0000 0.39991  0.39630  0.60800  Biso   1.000  C
  C64      1.0000 0.60009  0.39630  0.89200  Biso   1.000  C
  C65      1.0000 0.08229  0.97210  0.38110  Biso   1.000  C
  C66      1.0000 0.91771  0.97210  0.11890  Biso   1.000  C
  C67      1.0000 0.58229  0.47210  0.38110  Biso   1.000  C
  C68      1.0000 0.41771  0.47210  0.11890  Biso   1.000  C
  C69      1.0000 0.91771  0.02790  0.61890  Biso   1.000  C
  C70      1.0000 0.08229  0.02790  0.88110  Biso   1.000  C
  C71      1.0000 0.41771  0.52790  0.61890  Biso   1.000  C
  C72      1.0000 0.58229  0.52790  0.88110  Biso   1.000  C
  C73      1.0000 0.06850  0.91180  0.32580  Biso   1.000  C
  C74      1.0000 0.93150  0.91180  0.17420  Biso   1.000  C
  C75      1.0000 0.56850  0.41180  0.32580  Biso   1.000  C
  C76      1.0000 0.43150  0.41180  0.17420  Biso   1.000  C
  C77      1.0000 0.93150  0.08820  0.67420  Biso   1.000  C
  C78      1.0000 0.06850  0.08820  0.82580  Biso   1.000  C
  C79      1.0000 0.43150  0.58820  0.67420  Biso   1.000  C
  C80      1.0000 0.56850  0.58820  0.82580  Biso   1.000  C
  C81      1.0000 0.07256  0.98190  0.28190  Biso   1.000  C
  C82      1.0000 0.92744  0.98190  0.21810  Biso   1.000  C
  C83      1.0000 0.57256  0.48190  0.28190  Biso   1.000  C
  C84      1.0000 0.42744  0.48190  0.21810  Biso   1.000  C
  C85      1.0000 0.92744  0.01810  0.71810  Biso   1.000  C
  C86      1.0000 0.07256  0.01810  0.78190  Biso   1.000  C
  C87      1.0000 0.42744  0.51810  0.71810  Biso   1.000  C
  C88      1.0000 0.57256  0.51810  0.78190  Biso   1.000  C
  C89      1.0000 0.09143  0.11280  0.29530  Biso   1.000  C
  C90      1.0000 0.90857  0.11280  0.20470  Biso   1.000  C
  C91      1.0000 0.59143  0.61280  0.29530  Biso   1.000  C
  C92      1.0000 0.40857  0.61280  0.20470  Biso   1.000  C
  C93      1.0000 0.90857  0.88720  0.70470  Biso   1.000  C
  C94      1.0000 0.09143  0.88720  0.79530  Biso   1.000  C
  C95      1.0000 0.40857  0.38720  0.70470  Biso   1.000  C
  C96      1.0000 0.59143  0.38720  0.79530  Biso   1.000  C
  F41      1.0000 0.11240  0.16020  0.44770  Biso   1.000  F
  F42      1.0000 0.88760  0.16020  0.05230  Biso   1.000  F
  F43      1.0000 0.61240  0.66020  0.44770  Biso   1.000  F
  F44      1.0000 0.38760  0.66020  0.05230  Biso   1.000  F
  F45      1.0000 0.88760  0.83980  0.55230  Biso   1.000  F
  F46      1.0000 0.11240  0.83980  0.94770  Biso   1.000  F
  F47      1.0000 0.38760  0.33980  0.55230  Biso   1.000  F
  F48      1.0000 0.61240  0.33980  0.94770  Biso   1.000  F
  F49      1.0000 0.07934  0.90190  0.42501  Biso   1.000  F
  F50      1.0000 0.92066  0.90190  0.07499  Biso   1.000  F
  F51      1.0000 0.57934  0.40190  0.42501  Biso   1.000  F
  F52      1.0000 0.42066  0.40190  0.07499  Biso   1.000  F
  F53      1.0000 0.92066  0.09810  0.57499  Biso   1.000  F
  F54      1.0000 0.07934  0.09810  0.92501  Biso   1.000  F
  F55      1.0000 0.42066  0.59810  0.57499  Biso   1.000  F
  F56      1.0000 0.57934  0.59810  0.92501  Biso   1.000  F
  F57      1.0000 0.05190  0.78160  0.31502  Biso   1.000  F
  F58      1.0000 0.94810  0.78160  0.18498  Biso   1.000  F
  F59      1.0000 0.55190  0.28160  0.31502  Biso   1.000  F
  F60      1.0000 0.44810  0.28160  0.18498  Biso   1.000  F
  F61      1.0000 0.94810  0.21840  0.68498  Biso   1.000  F
  F62      1.0000 0.05190  0.21840  0.81502  Biso   1.000  F
  F63      1.0000 0.44810  0.71840  0.68498  Biso   1.000  F
  F64      1.0000 0.55190  0.71840  0.81502  Biso   1.000  F
  F65      1.0000 0.05926  0.92210  0.22733  Biso   1.000  F
  F66      1.0000 0.94074  0.92210  0.27267  Biso   1.000  F
  F67      1.0000 0.55926  0.42210  0.22733  Biso   1.000  F
  F68      1.0000 0.44074  0.42210  0.27267  Biso   1.000  F
  F69      1.0000 0.94074  0.07790  0.77267  Biso   1.000  F
  F70      1.0000 0.05926  0.07790  0.72733  Biso   1.000  F
  F71      1.0000 0.44074  0.57790  0.77267  Biso   1.000  F
  F72      1.0000 0.55926  0.57790  0.72733  Biso   1.000  F
  F73      1.0000 0.09667  0.17370  0.25098  Biso   1.000  F
  F74      1.0000 0.90333  0.17370  0.24902  Biso   1.000  F
  F75      1.0000 0.59667  0.67370  0.25098  Biso   1.000  F
  F76      1.0000 0.40333  0.67370  0.24902  Biso   1.000  F
  F77      1.0000 0.90333  0.82630  0.74902  Biso   1.000  F
  F78      1.0000 0.09667  0.82630  0.75098  Biso   1.000  F
  F79      1.0000 0.40333  0.32630  0.74902  Biso   1.000  F
  F80      1.0000 0.59667  0.32630  0.75098  Biso   1.000  F
  N1       1.0000 0.09477  0.36900  0.03140  Biso   1.000  N
  N2       1.0000 0.90523  0.36900  0.46860  Biso   1.000  N
  N3       1.0000 0.59477  0.86900  0.03140  Biso   1.000  N
  N4       1.0000 0.40523  0.86900  0.46860  Biso   1.000  N
  N5       1.0000 0.90523  0.63100  0.96860  Biso   1.000  N
  N6       1.0000 0.09477  0.63100  0.53140  Biso   1.000  N
  N7       1.0000 0.40523  0.13100  0.96860  Biso   1.000  N
  N8       1.0000 0.59477  0.13100  0.53140  Biso   1.000  N
  C97      1.0000 0.07080  0.39410  0.97980  Biso   1.000  C
  C98      1.0000 0.92920  0.39410  0.52020  Biso   1.000  C
  C99      1.0000 0.57080  0.89410  0.97980  Biso   1.000  C
  C100     1.0000 0.42920  0.89410  0.52020  Biso   1.000  C
  C101     1.0000 0.92920  0.60590  0.02020  Biso   1.000  C
  C102     1.0000 0.07080  0.60590  0.47980  Biso   1.000  C
  C103     1.0000 0.42920  0.10590  0.02020  Biso   1.000  C
  C104     1.0000 0.57080  0.10590  0.47980  Biso   1.000  C
  C105     1.0000 0.03981  0.43020  0.91310  Biso   1.000  C
  C106     1.0000 0.96019  0.43020  0.58690  Biso   1.000  C
  C107     1.0000 0.53981  0.93020  0.91310  Biso   1.000  C
  C108     1.0000 0.46019  0.93020  0.58690  Biso   1.000  C
  C109     1.0000 0.96019  0.56980  0.08690  Biso   1.000  C
  C110     1.0000 0.03981  0.56980  0.41310  Biso   1.000  C
  C111     1.0000 0.46019  0.06980  0.08690  Biso   1.000  C
  C112     1.0000 0.53981  0.06980  0.41310  Biso   1.000  C
  H1       1.0000 0.05840  0.40720  0.89340  Biso   1.000  H
  H2       1.0000 0.94160  0.40720  0.60660  Biso   1.000  H
  H3       1.0000 0.55840  0.90720  0.89340  Biso   1.000  H
  H4       1.0000 0.44160  0.90720  0.60660  Biso   1.000  H
  H5       1.0000 0.94160  0.59280  0.10660  Biso   1.000  H
  H6       1.0000 0.05840  0.59280  0.39340  Biso   1.000  H
  H7       1.0000 0.44160  0.09280  0.10660  Biso   1.000  H
  H8       1.0000 0.55840  0.09280  0.39340  Biso   1.000  H
  C113     1.0000 0.02990  0.58330  0.90590  Biso   1.000  C
  C114     1.0000 0.97010  0.58330  0.59410  Biso   1.000  C
  C115     1.0000 0.52990  0.08330  0.90590  Biso   1.000  C
  C116     1.0000 0.47010  0.08330  0.59410  Biso   1.000  C
  C117     1.0000 0.97010  0.41670  0.09410  Biso   1.000  C
  C118     1.0000 0.02990  0.41670  0.40590  Biso   1.000  C
  C119     1.0000 0.47010  0.91670  0.09410  Biso   1.000  C
  C120     1.0000 0.52990  0.91670  0.40590  Biso   1.000  C
  H9       1.0000 0.06110  0.63230  0.92560  Biso   1.000  H
  H10      1.0000 0.93890  0.63230  0.57440  Biso   1.000  H
  H11      1.0000 0.56110  0.13230  0.92560  Biso   1.000  H
  H12      1.0000 0.43890  0.13230  0.57440  Biso   1.000  H
  H13      1.0000 0.93890  0.36770  0.07440  Biso   1.000  H
  H14      1.0000 0.06110  0.36770  0.42560  Biso   1.000  H
  H15      1.0000 0.43890  0.86770  0.07440  Biso   1.000  H
  H16      1.0000 0.56110  0.86770  0.42560  Biso   1.000  H
  H17      1.0000 0.01280  0.60930  0.92660  Biso   1.000  H
  H18      1.0000 0.98720  0.60930  0.57340  Biso   1.000  H
  H19      1.0000 0.51280  0.10930  0.92660  Biso   1.000  H
  H20      1.0000 0.48720  0.10930  0.57340  Biso   1.000  H
  H21      1.0000 0.98720  0.39070  0.07340  Biso   1.000  H
  H22      1.0000 0.01280  0.39070  0.42660  Biso   1.000  H
  H23      1.0000 0.48720  0.89070  0.07340  Biso   1.000  H
  H24      1.0000 0.51280  0.89070  0.42660  Biso   1.000  H
  C121     1.0000 0.99840  0.62300  0.83670  Biso   1.000  C
  C122     1.0000 0.00160  0.62300  0.66330  Biso   1.000  C
  C123     1.0000 0.49840  0.12300  0.83670  Biso   1.000  C
  C124     1.0000 0.50160  0.12300  0.66330  Biso   1.000  C
  C125     1.0000 0.00160  0.37700  0.16330  Biso   1.000  C
  C126     1.0000 0.99840  0.37700  0.33670  Biso   1.000  C
  C127     1.0000 0.50160  0.87700  0.16330  Biso   1.000  C
  C128     1.0000 0.49840  0.87700  0.33670  Biso   1.000  C
  H25      1.0000 0.99040  0.71950  0.83330  Biso   1.000  H
  H26      1.0000 0.00960  0.71950  0.66670  Biso   1.000  H
  H27      1.0000 0.49040  0.21950  0.83330  Biso   1.000  H
  H28      1.0000 0.50960  0.21950  0.66670  Biso   1.000  H
  H29      1.0000 0.00960  0.28050  0.16670  Biso   1.000  H
  H30      1.0000 0.99040  0.28050  0.33330  Biso   1.000  H
  H31      1.0000 0.50960  0.78050  0.16670  Biso   1.000  H
  H32      1.0000 0.49040  0.78050  0.33330  Biso   1.000  H
  H33      1.0000 0.01740  0.60800  0.81740  Biso   1.000  H
  H34      1.0000 0.98260  0.60800  0.68260  Biso   1.000  H
  H35      1.0000 0.51740  0.10800  0.81740  Biso   1.000  H
  H36      1.0000 0.48260  0.10800  0.68260  Biso   1.000  H
  H37      1.0000 0.98260  0.39200  0.18260  Biso   1.000  H
  H38      1.0000 0.01740  0.39200  0.31740  Biso   1.000  H
  H39      1.0000 0.48260  0.89200  0.18260  Biso   1.000  H
  H40      1.0000 0.51740  0.89200  0.31740  Biso   1.000  H
  C129     1.0000 0.95067  0.54050  0.80180  Biso   1.000  C
  C130     1.0000 0.04933  0.54050  0.69820  Biso   1.000  C
  C131     1.0000 0.45067  0.04050  0.80180  Biso   1.000  C
  C132     1.0000 0.54933  0.04050  0.69820  Biso   1.000  C
  C133     1.0000 0.04933  0.45950  0.19820  Biso   1.000  C
  C134     1.0000 0.95067  0.45950  0.30180  Biso   1.000  C
  C135     1.0000 0.54933  0.95950  0.19820  Biso   1.000  C
  C136     1.0000 0.45067  0.95950  0.30180  Biso   1.000  C
  H41      1.0000 0.93500  0.55980  0.75720  Biso   1.000  H
  H42      1.0000 0.06500  0.55980  0.74280  Biso   1.000  H
  H43      1.0000 0.43500  0.05980  0.75720  Biso   1.000  H
  H44      1.0000 0.56500  0.05980  0.74280  Biso   1.000  H
  H45      1.0000 0.06500  0.44020  0.24280  Biso   1.000  H
  H46      1.0000 0.93500  0.44020  0.25720  Biso   1.000  H
  H47      1.0000 0.56500  0.94020  0.24280  Biso   1.000  H
  H48      1.0000 0.43500  0.94020  0.25720  Biso   1.000  H
  C137     1.0000 0.96100  0.38610  0.81150  Biso   1.000  C
  C138     1.0000 0.03900  0.38610  0.68850  Biso   1.000  C
  C139     1.0000 0.46100  0.88610  0.81150  Biso   1.000  C
  C140     1.0000 0.53900  0.88610  0.68850  Biso   1.000  C
  C141     1.0000 0.03900  0.61390  0.18850  Biso   1.000  C
  C142     1.0000 0.96100  0.61390  0.31150  Biso   1.000  C
  C143     1.0000 0.53900  0.11390  0.18850  Biso   1.000  C
  C144     1.0000 0.46100  0.11390  0.31150  Biso   1.000  C
  H49      1.0000 0.92980  0.33710  0.79180  Biso   1.000  H
  H50      1.0000 0.07020  0.33710  0.70820  Biso   1.000  H
  H51      1.0000 0.42980  0.83710  0.79180  Biso   1.000  H
  H52      1.0000 0.57020  0.83710  0.70820  Biso   1.000  H
  H53      1.0000 0.07020  0.66290  0.20820  Biso   1.000  H
  H54      1.0000 0.92980  0.66290  0.29180  Biso   1.000  H
  H55      1.0000 0.57020  0.16290  0.20820  Biso   1.000  H
  H56      1.0000 0.42980  0.16290  0.29180  Biso   1.000  H
  H57      1.0000 0.97850  0.35790  0.79160  Biso   1.000  H
  H58      1.0000 0.02150  0.35790  0.70840  Biso   1.000  H
  H59      1.0000 0.47850  0.85790  0.79160  Biso   1.000  H
  H60      1.0000 0.52150  0.85790  0.70840  Biso   1.000  H
  H61      1.0000 0.02150  0.64210  0.20840  Biso   1.000  H
  H62      1.0000 0.97850  0.64210  0.29160  Biso   1.000  H
  H63      1.0000 0.52150  0.14210  0.20840  Biso   1.000  H
  H64      1.0000 0.47850  0.14210  0.29160  Biso   1.000  H
  C145     1.0000 0.99138  0.34890  0.87980  Biso   1.000  C
  C146     1.0000 0.00862  0.34890  0.62020  Biso   1.000  C
  C147     1.0000 0.49138  0.84890  0.87980  Biso   1.000  C
  C148     1.0000 0.50862  0.84890  0.62020  Biso   1.000  C
  C149     1.0000 0.00862  0.65110  0.12020  Biso   1.000  C
  C150     1.0000 0.99138  0.65110  0.37980  Biso   1.000  C
  C151     1.0000 0.50862  0.15110  0.12020  Biso   1.000  C
  C152     1.0000 0.49138  0.15110  0.37980  Biso   1.000  C
  H65      1.0000 0.99870  0.25180  0.88410  Biso   1.000  H
  H66      1.0000 0.00130  0.25180  0.61590  Biso   1.000  H
  H67      1.0000 0.49870  0.75180  0.88410  Biso   1.000  H
  H68      1.0000 0.50130  0.75180  0.61590  Biso   1.000  H
  H69      1.0000 0.00130  0.74820  0.11590  Biso   1.000  H
  H70      1.0000 0.99870  0.74820  0.38410  Biso   1.000  H
  H71      1.0000 0.50130  0.24820  0.11590  Biso   1.000  H
  H72      1.0000 0.49870  0.24820  0.38410  Biso   1.000  H
  H73      1.0000 0.97260  0.36830  0.89910  Biso   1.000  H
  H74      1.0000 0.02740  0.36830  0.60090  Biso   1.000  H
  H75      1.0000 0.47260  0.86830  0.89910  Biso   1.000  H
  H76      1.0000 0.52740  0.86830  0.60090  Biso   1.000  H
  H77      1.0000 0.02740  0.63170  0.10090  Biso   1.000  H
  H78      1.0000 0.97260  0.63170  0.39910  Biso   1.000  H
  H79      1.0000 0.52740  0.13170  0.10090  Biso   1.000  H
  H80      1.0000 0.47260  0.13170  0.39910  Biso   1.000  H
  C153     1.0000 0.91623  0.57950  0.82030  Biso   1.000  C
  C154     1.0000 0.08377  0.57950  0.67970  Biso   1.000  C
  C155     1.0000 0.41623  0.07950  0.82030  Biso   1.000  C
  C156     1.0000 0.58377  0.07950  0.67970  Biso   1.000  C
  C157     1.0000 0.08377  0.42050  0.17970  Biso   1.000  C
  C158     1.0000 0.91623  0.42050  0.32030  Biso   1.000  C
  C159     1.0000 0.58377  0.92050  0.17970  Biso   1.000  C
  C160     1.0000 0.41623  0.92050  0.32030  Biso   1.000  C
  N9       1.0000 0.88942  0.60680  0.83570  Biso   1.000  N
  N10      1.0000 0.11058  0.60680  0.66430  Biso   1.000  N
  N11      1.0000 0.38942  0.10680  0.83570  Biso   1.000  N
  N12      1.0000 0.61058  0.10680  0.66430  Biso   1.000  N
  N13      1.0000 0.11058  0.39320  0.16430  Biso   1.000  N
  N14      1.0000 0.88942  0.39320  0.33570  Biso   1.000  N
  N15      1.0000 0.61058  0.89320  0.16430  Biso   1.000  N
  N16      1.0000 0.38942  0.89320  0.33570  Biso   1.000  N
  N17      1.0000 0.18370  0.18350  0.14060  Biso   1.000  N
  N18      1.0000 0.81630  0.18350  0.35940  Biso   1.000  N
  N19      1.0000 0.68370  0.68350  0.14060  Biso   1.000  N
  N20      1.0000 0.31630  0.68350  0.35940  Biso   1.000  N
  N21      1.0000 0.81630  0.81650  0.85940  Biso   1.000  N
  N22      1.0000 0.18370  0.81650  0.64060  Biso   1.000  N
  N23      1.0000 0.31630  0.31650  0.85940  Biso   1.000  N
  N24      1.0000 0.68370  0.31650  0.64060  Biso   1.000  N
  C161     1.0000 0.20380  0.08750  0.14050  Biso   1.000  C
  C162     1.0000 0.79620  0.08750  0.35950  Biso   1.000  C
  C163     1.0000 0.70380  0.58750  0.14050  Biso   1.000  C
  C164     1.0000 0.29620  0.58750  0.35950  Biso   1.000  C
  C165     1.0000 0.79620  0.91250  0.85950  Biso   1.000  C
  C166     1.0000 0.20380  0.91250  0.64050  Biso   1.000  C
  C167     1.0000 0.29620  0.41250  0.85950  Biso   1.000  C
  C168     1.0000 0.70380  0.41250  0.64050  Biso   1.000  C
  C169     1.0000 0.23197  0.96880  0.13930  Biso   1.000  C
  C170     1.0000 0.76803  0.96880  0.36070  Biso   1.000  C
  C171     1.0000 0.73197  0.46880  0.13930  Biso   1.000  C
  C172     1.0000 0.26803  0.46880  0.36070  Biso   1.000  C
  C173     1.0000 0.76803  0.03120  0.86070  Biso   1.000  C
  C174     1.0000 0.23197  0.03120  0.63930  Biso   1.000  C
  C175     1.0000 0.26803  0.53120  0.86070  Biso   1.000  C
  C176     1.0000 0.73197  0.53120  0.63930  Biso   1.000  C
  H81      1.0000 0.26010  0.00420  0.13790  Biso   1.000  H
  H82      1.0000 0.73990  0.00420  0.36210  Biso   1.000  H
  H83      1.0000 0.76010  0.50420  0.13790  Biso   1.000  H
  H84      1.0000 0.23990  0.50420  0.36210  Biso   1.000  H
  H85      1.0000 0.73990  0.99580  0.86210  Biso   1.000  H
  H86      1.0000 0.26010  0.99580  0.63790  Biso   1.000  H
  H87      1.0000 0.23990  0.49580  0.86210  Biso   1.000  H
  H88      1.0000 0.76010  0.49580  0.63790  Biso   1.000  H
  C177     1.0000 0.20040  0.88330  0.08070  Biso   1.000  C
  C178     1.0000 0.79960  0.88330  0.41930  Biso   1.000  C
  C179     1.0000 0.70040  0.38330  0.08070  Biso   1.000  C
  C180     1.0000 0.29960  0.38330  0.41930  Biso   1.000  C
  C181     1.0000 0.79960  0.11670  0.91930  Biso   1.000  C
  C182     1.0000 0.20040  0.11670  0.58070  Biso   1.000  C
  C183     1.0000 0.29960  0.61670  0.91930  Biso   1.000  C
  C184     1.0000 0.70040  0.61670  0.58070  Biso   1.000  C
  H89      1.0000 0.18680  0.94110  0.04410  Biso   1.000  H
  H90      1.0000 0.81320  0.94110  0.45590  Biso   1.000  H
  H91      1.0000 0.68680  0.44110  0.04410  Biso   1.000  H
  H92      1.0000 0.31320  0.44110  0.45590  Biso   1.000  H
  H93      1.0000 0.81320  0.05890  0.95590  Biso   1.000  H
  H94      1.0000 0.18680  0.05890  0.54410  Biso   1.000  H
  H95      1.0000 0.31320  0.55890  0.95590  Biso   1.000  H
  H96      1.0000 0.68680  0.55890  0.54410  Biso   1.000  H
  H97      1.0000 0.17320  0.84220  0.08180  Biso   1.000  H
  H98      1.0000 0.82680  0.84220  0.41820  Biso   1.000  H
  H99      1.0000 0.67320  0.34220  0.08180  Biso   1.000  H
  H100     1.0000 0.32680  0.34220  0.41820  Biso   1.000  H
  H101     1.0000 0.82680  0.15780  0.91820  Biso   1.000  H
  H102     1.0000 0.17320  0.15780  0.58180  Biso   1.000  H
  H103     1.0000 0.32680  0.65780  0.91820  Biso   1.000  H
  H104     1.0000 0.67320  0.65780  0.58180  Biso   1.000  H
  C185     1.0000 0.23260  0.77130  0.07750  Biso   1.000  C
  C186     1.0000 0.76740  0.77130  0.42250  Biso   1.000  C
  C187     1.0000 0.73260  0.27130  0.07750  Biso   1.000  C
  C188     1.0000 0.26740  0.27130  0.42250  Biso   1.000  C
  C189     1.0000 0.76740  0.22870  0.92250  Biso   1.000  C
  C190     1.0000 0.23260  0.22870  0.57750  Biso   1.000  C
  C191     1.0000 0.26740  0.72870  0.92250  Biso   1.000  C
  C192     1.0000 0.73260  0.72870  0.57750  Biso   1.000  C
  H105     1.0000 0.21220  0.71380  0.04150  Biso   1.000  H
  H106     1.0000 0.78780  0.71380  0.45850  Biso   1.000  H
  H107     1.0000 0.71220  0.21380  0.04150  Biso   1.000  H
  H108     1.0000 0.28780  0.21380  0.45850  Biso   1.000  H
  H109     1.0000 0.78780  0.28620  0.95850  Biso   1.000  H
  H110     1.0000 0.21220  0.28620  0.54150  Biso   1.000  H
  H111     1.0000 0.28780  0.78620  0.95850  Biso   1.000  H
  H112     1.0000 0.71220  0.78620  0.54150  Biso   1.000  H
  H113     1.0000 0.25760  0.81340  0.07210  Biso   1.000  H
  H114     1.0000 0.74240  0.81340  0.42790  Biso   1.000  H
  H115     1.0000 0.75760  0.31340  0.07210  Biso   1.000  H
  H116     1.0000 0.24240  0.31340  0.42790  Biso   1.000  H
  H117     1.0000 0.74240  0.18660  0.92790  Biso   1.000  H
  H118     1.0000 0.25760  0.18660  0.57210  Biso   1.000  H
  H119     1.0000 0.24240  0.68660  0.92790  Biso   1.000  H
  H120     1.0000 0.75760  0.68660  0.57210  Biso   1.000  H
  C193     1.0000 0.25783  0.68280  0.13600  Biso   1.000  C
  C194     1.0000 0.74217  0.68280  0.36400  Biso   1.000  C
  C195     1.0000 0.75783  0.18280  0.13600  Biso   1.000  C
  C196     1.0000 0.24217  0.18280  0.36400  Biso   1.000  C
  C197     1.0000 0.74217  0.31720  0.86400  Biso   1.000  C
  C198     1.0000 0.25783  0.31720  0.63600  Biso   1.000  C
  C199     1.0000 0.24217  0.81720  0.86400  Biso   1.000  C
  C200     1.0000 0.75783  0.81720  0.63600  Biso   1.000  C
  H121     1.0000 0.28280  0.62730  0.13450  Biso   1.000  H
  H122     1.0000 0.71720  0.62730  0.36550  Biso   1.000  H
  H123     1.0000 0.78280  0.12730  0.13450  Biso   1.000  H
  H124     1.0000 0.21720  0.12730  0.36550  Biso   1.000  H
  H125     1.0000 0.71720  0.37270  0.86550  Biso   1.000  H
  H126     1.0000 0.28280  0.37270  0.63450  Biso   1.000  H
  H127     1.0000 0.21720  0.87270  0.86550  Biso   1.000  H
  H128     1.0000 0.78280  0.87270  0.63450  Biso   1.000  H
  C201     1.0000 0.28464  0.76850  0.19540  Biso   1.000  C
  C202     1.0000 0.71536  0.76850  0.30460  Biso   1.000  C
  C203     1.0000 0.78464  0.26850  0.19540  Biso   1.000  C
  C204     1.0000 0.21536  0.26850  0.30460  Biso   1.000  C
  C205     1.0000 0.71536  0.23150  0.80460  Biso   1.000  C
  C206     1.0000 0.28464  0.23150  0.69540  Biso   1.000  C
  C207     1.0000 0.21536  0.73150  0.80460  Biso   1.000  C
  C208     1.0000 0.78464  0.73150  0.69540  Biso   1.000  C
  H129     1.0000 0.29600  0.70890  0.23110  Biso   1.000  H
  H130     1.0000 0.70400  0.70890  0.26890  Biso   1.000  H
  H131     1.0000 0.79600  0.20890  0.23110  Biso   1.000  H
  H132     1.0000 0.20400  0.20890  0.26890  Biso   1.000  H
  H133     1.0000 0.70400  0.29110  0.76890  Biso   1.000  H
  H134     1.0000 0.29600  0.29110  0.73110  Biso   1.000  H
  H135     1.0000 0.20400  0.79110  0.76890  Biso   1.000  H
  H136     1.0000 0.79600  0.79110  0.73110  Biso   1.000  H
  H137     1.0000 0.31360  0.80990  0.19870  Biso   1.000  H
  H138     1.0000 0.68640  0.80990  0.30130  Biso   1.000  H
  H139     1.0000 0.81360  0.30990  0.19870  Biso   1.000  H
  H140     1.0000 0.18640  0.30990  0.30130  Biso   1.000  H
  H141     1.0000 0.68640  0.19010  0.80130  Biso   1.000  H
  H142     1.0000 0.31360  0.19010  0.69870  Biso   1.000  H
  H143     1.0000 0.18640  0.69010  0.80130  Biso   1.000  H
  H144     1.0000 0.81360  0.69010  0.69870  Biso   1.000  H
  C209     1.0000 0.25250  0.88080  0.19760  Biso   1.000  C
  C210     1.0000 0.74750  0.88080  0.30240  Biso   1.000  C
  C211     1.0000 0.75250  0.38080  0.19760  Biso   1.000  C
  C212     1.0000 0.24750  0.38080  0.30240  Biso   1.000  C
  C213     1.0000 0.74750  0.11920  0.80240  Biso   1.000  C
  C214     1.0000 0.25250  0.11920  0.69760  Biso   1.000  C
  C215     1.0000 0.24750  0.61920  0.80240  Biso   1.000  C
  C216     1.0000 0.75250  0.61920  0.69760  Biso   1.000  C
  H145     1.0000 0.22560  0.84050  0.19950  Biso   1.000  H
  H146     1.0000 0.77440  0.84050  0.30050  Biso   1.000  H
  H147     1.0000 0.72560  0.34050  0.19950  Biso   1.000  H
  H148     1.0000 0.27440  0.34050  0.30050  Biso   1.000  H
  H149     1.0000 0.77440  0.15950  0.80050  Biso   1.000  H
  H150     1.0000 0.22560  0.15950  0.69950  Biso   1.000  H
  H151     1.0000 0.27440  0.65950  0.80050  Biso   1.000  H
  H152     1.0000 0.72560  0.65950  0.69950  Biso   1.000  H
  H153     1.0000 0.27200  0.93670  0.23450  Biso   1.000  H
  H154     1.0000 0.72800  0.93670  0.26550  Biso   1.000  H
  H155     1.0000 0.77200  0.43670  0.23450  Biso   1.000  H
  H156     1.0000 0.22800  0.43670  0.26550  Biso   1.000  H
  H157     1.0000 0.72800  0.06330  0.76550  Biso   1.000  H
  H158     1.0000 0.27200  0.06330  0.73450  Biso   1.000  H
  H159     1.0000 0.22800  0.56330  0.76550  Biso   1.000  H
  H160     1.0000 0.77200  0.56330  0.73450  Biso   1.000  H
  C217     1.0000 0.22220  0.58770  0.13700  Biso   1.000  C
  C218     1.0000 0.77780  0.58770  0.36300  Biso   1.000  C
  C219     1.0000 0.72220  0.08770  0.13700  Biso   1.000  C
  C220     1.0000 0.27780  0.08770  0.36300  Biso   1.000  C
  C221     1.0000 0.77780  0.41230  0.86300  Biso   1.000  C
  C222     1.0000 0.22220  0.41230  0.63700  Biso   1.000  C
  C223     1.0000 0.27780  0.91230  0.86300  Biso   1.000  C
  C224     1.0000 0.72220  0.91230  0.63700  Biso   1.000  C
  N25      1.0000 0.19471  0.51310  0.13667  Biso   1.000  N
  N26      1.0000 0.80529  0.51310  0.36333  Biso   1.000  N
  N27      1.0000 0.69471  0.01310  0.13667  Biso   1.000  N
  N28      1.0000 0.30529  0.01310  0.36333  Biso   1.000  N
  N29      1.0000 0.80529  0.48690  0.86333  Biso   1.000  N
  N30      1.0000 0.19471  0.48690  0.63667  Biso   1.000  N
  N31      1.0000 0.30529  0.98690  0.86333  Biso   1.000  N
  N32      1.0000 0.69471  0.98690  0.63667  Biso   1.000  N
  C225     1.0000 0.07240  0.04840  0.09990  Biso   1.000  C
  C226     1.0000 0.92760  0.04840  0.40010  Biso   1.000  C
  C227     1.0000 0.57240  0.54840  0.09990  Biso   1.000  C
  C228     1.0000 0.42760  0.54840  0.40010  Biso   1.000  C
  C229     1.0000 0.92760  0.95160  0.90010  Biso   1.000  C
  C230     1.0000 0.07240  0.95160  0.59990  Biso   1.000  C
  C231     1.0000 0.42760  0.45160  0.90010  Biso   1.000  C
  C232     1.0000 0.57240  0.45160  0.59990  Biso   1.000  C
  H161     1.0000 0.07530  0.08260  0.06590  Biso   1.000  H
  H162     1.0000 0.92470  0.08260  0.43410  Biso   1.000  H
  H163     1.0000 0.57530  0.58260  0.06590  Biso   1.000  H
  H164     1.0000 0.42470  0.58260  0.43410  Biso   1.000  H
  H165     1.0000 0.92470  0.91740  0.93410  Biso   1.000  H
  H166     1.0000 0.07530  0.91740  0.56590  Biso   1.000  H
  H167     1.0000 0.42470  0.41740  0.93410  Biso   1.000  H
  H168     1.0000 0.57530  0.41740  0.56590  Biso   1.000  H
  H169     1.0000 0.09180  0.10790  0.13540  Biso   1.000  H
  H170     1.0000 0.90820  0.10790  0.36460  Biso   1.000  H
  H171     1.0000 0.59180  0.60790  0.13540  Biso   1.000  H
  H172     1.0000 0.40820  0.60790  0.36460  Biso   1.000  H
  H173     1.0000 0.90820  0.89210  0.86460  Biso   1.000  H
  H174     1.0000 0.09180  0.89210  0.63540  Biso   1.000  H
  H175     1.0000 0.40820  0.39210  0.86460  Biso   1.000  H
  H176     1.0000 0.59180  0.39210  0.63540  Biso   1.000  H
  Cl1      1.0000 0.09709  0.88830  0.11870  Biso   1.000  Cl
  Cl2      1.0000 0.90291  0.88830  0.38130  Biso   1.000  Cl
  Cl3      1.0000 0.59709  0.38830  0.11870  Biso   1.000  Cl
  Cl4      1.0000 0.40291  0.38830  0.38130  Biso   1.000  Cl
  Cl5      1.0000 0.90291  0.11170  0.88130  Biso   1.000  Cl
  Cl6      1.0000 0.09709  0.11170  0.61870  Biso   1.000  Cl
  Cl7      1.0000 0.40291  0.61170  0.88130  Biso   1.000  Cl
  Cl8      1.0000 0.59709  0.61170  0.61870  Biso   1.000  Cl
  Cl9      1.0000 0.01121  0.05800  0.07809  Biso   1.000  Cl
  Cl10     1.0000 0.98879  0.05800  0.42191  Biso   1.000  Cl
  Cl11     1.0000 0.51121  0.55800  0.07809  Biso   1.000  Cl
  Cl12     1.0000 0.48879  0.55800  0.42191  Biso   1.000  Cl
  Cl13     1.0000 0.98879  0.94200  0.92191  Biso   1.000  Cl
  Cl14     1.0000 0.01121  0.94200  0.57809  Biso   1.000  Cl
  Cl15     1.0000 0.48879  0.44200  0.92191  Biso   1.000  Cl
  Cl16     1.0000 0.51121  0.44200  0.57809  Biso   1.000  Cl
