data_image0
_cell_length_a       11.04
_cell_length_b       11.797
_cell_length_c       21.356
_cell_angle_alpha    90
_cell_angle_beta     102.53
_cell_angle_gamma    90

_symmetry_space_group_name_H-M    "P 1"
_symmetry_int_tables_number       1

loop_
  _symmetry_equiv_pos_as_xyz
  'x, y, z'

loop_
  _atom_site_label
  _atom_site_occupancy
  _atom_site_fract_x
  _atom_site_fract_y
  _atom_site_fract_z
  _atom_site_thermal_displace_type
  _atom_site_B_iso_or_equiv
  _atom_site_type_symbol
  Cu1      1.0000 0.82194  0.51872  0.01254  Biso   1.000  Cu
  Cu2      1.0000 0.67806  0.01872  0.48746  Biso   1.000  Cu
  Cu3      1.0000 0.17806  0.48128  0.98746  Biso   1.000  Cu
  Cu4      1.0000 0.32194  0.98128  0.51254  Biso   1.000  Cu
  C1       1.0000 0.73180  0.66370  0.87237  Biso   1.000  C
  C2       1.0000 0.76820  0.16370  0.62763  Biso   1.000  C
  C3       1.0000 0.26820  0.33630  0.12763  Biso   1.000  C
  C4       1.0000 0.23180  0.83630  0.37237  Biso   1.000  C
  C5       1.0000 0.68420  0.67780  0.80676  Biso   1.000  C
  C6       1.0000 0.81580  0.17780  0.69324  Biso   1.000  C
  C7       1.0000 0.31580  0.32220  0.19324  Biso   1.000  C
  C8       1.0000 0.18420  0.82220  0.30676  Biso   1.000  C
  H1       1.0000 0.68520  0.61760  0.77870  Biso   1.000  H
  H2       1.0000 0.81480  0.11760  0.72130  Biso   1.000  H
  H3       1.0000 0.31480  0.38240  0.22130  Biso   1.000  H
  H4       1.0000 0.18520  0.88240  0.27870  Biso   1.000  H
  C9       1.0000 0.63530  0.78190  0.78338  Biso   1.000  C
  C10      1.0000 0.86470  0.28190  0.71662  Biso   1.000  C
  C11      1.0000 0.36470  0.21810  0.21662  Biso   1.000  C
  C12      1.0000 0.13530  0.71810  0.28338  Biso   1.000  C
  H5       1.0000 0.60330  0.79130  0.73970  Biso   1.000  H
  H6       1.0000 0.89670  0.29130  0.76030  Biso   1.000  H
  H7       1.0000 0.39670  0.20870  0.26030  Biso   1.000  H
  H8       1.0000 0.10330  0.70870  0.23970  Biso   1.000  H
  C13      1.0000 0.63410  0.87090  0.82475  Biso   1.000  C
  C14      1.0000 0.86590  0.37090  0.67525  Biso   1.000  C
  C15      1.0000 0.36590  0.12910  0.17525  Biso   1.000  C
  C16      1.0000 0.13410  0.62910  0.32475  Biso   1.000  C
  H9       1.0000 0.60130  0.94040  0.80890  Biso   1.000  H
  H10      1.0000 0.89870  0.44040  0.69110  Biso   1.000  H
  H11      1.0000 0.39870  0.05960  0.19110  Biso   1.000  H
  H12      1.0000 0.10130  0.55960  0.30890  Biso   1.000  H
  C17      1.0000 0.68090  0.85810  0.88917  Biso   1.000  C
  C18      1.0000 0.81910  0.35810  0.61083  Biso   1.000  C
  C19      1.0000 0.31910  0.14190  0.11083  Biso   1.000  C
  C20      1.0000 0.18090  0.64190  0.38917  Biso   1.000  C
  H13      1.0000 0.67980  0.91870  0.91690  Biso   1.000  H
  H14      1.0000 0.82020  0.41870  0.58310  Biso   1.000  H
  H15      1.0000 0.32020  0.08130  0.08310  Biso   1.000  H
  H16      1.0000 0.17980  0.58130  0.41690  Biso   1.000  H
  C21      1.0000 0.73000  0.75480  0.91299  Biso   1.000  C
  C22      1.0000 0.77000  0.25480  0.58701  Biso   1.000  C
  C23      1.0000 0.27000  0.24520  0.08701  Biso   1.000  C
  C24      1.0000 0.23000  0.74520  0.41299  Biso   1.000  C
  H17      1.0000 0.76220  0.74660  0.95680  Biso   1.000  H
  H18      1.0000 0.73780  0.24660  0.54320  Biso   1.000  H
  H19      1.0000 0.23780  0.25340  0.04320  Biso   1.000  H
  H20      1.0000 0.26220  0.75340  0.45680  Biso   1.000  H
  C25      1.0000 0.93100  0.51570  0.86183  Biso   1.000  C
  C26      1.0000 0.56900  0.01570  0.63817  Biso   1.000  C
  C27      1.0000 0.06900  0.48430  0.13817  Biso   1.000  C
  C28      1.0000 0.43100  0.98430  0.36183  Biso   1.000  C
  H21      1.0000 0.94370  0.43550  0.85560  Biso   1.000  H
  H22      1.0000 0.55630  0.93550  0.64440  Biso   1.000  H
  H23      1.0000 0.05630  0.56450  0.14440  Biso   1.000  H
  H24      1.0000 0.44370  0.06450  0.35560  Biso   1.000  H
  H25      1.0000 0.90400  0.54960  0.81970  Biso   1.000  H
  H26      1.0000 0.59600  0.04960  0.68030  Biso   1.000  H
  H27      1.0000 0.09600  0.45040  0.18030  Biso   1.000  H
  H28      1.0000 0.40400  0.95040  0.31970  Biso   1.000  H
  C29      1.0000 0.57200  0.43540  0.85032  Biso   1.000  C
  C30      1.0000 0.92800  0.93540  0.64968  Biso   1.000  C
  C31      1.0000 0.42800  0.56460  0.14968  Biso   1.000  C
  C32      1.0000 0.07200  0.06460  0.35032  Biso   1.000  C
  H29      1.0000 0.53890  0.50770  0.85100  Biso   1.000  H
  H30      1.0000 0.96110  0.00770  0.64900  Biso   1.000  H
  H31      1.0000 0.46110  0.49230  0.14900  Biso   1.000  H
  H32      1.0000 0.03890  0.99230  0.35100  Biso   1.000  H
  C33      1.0000 0.49420  0.34270  0.83018  Biso   1.000  C
  C34      1.0000 0.00580  0.84270  0.66982  Biso   1.000  C
  C35      1.0000 0.50580  0.65730  0.16982  Biso   1.000  C
  C36      1.0000 0.99420  0.15730  0.33018  Biso   1.000  C
  H33      1.0000 0.40910  0.35410  0.81750  Biso   1.000  H
  H34      1.0000 0.09090  0.85410  0.68250  Biso   1.000  H
  H35      1.0000 0.59090  0.64590  0.18250  Biso   1.000  H
  H36      1.0000 0.90910  0.14590  0.31750  Biso   1.000  H
  C37      1.0000 0.54090  0.23610  0.82875  Biso   1.000  C
  C38      1.0000 0.95910  0.73610  0.67125  Biso   1.000  C
  C39      1.0000 0.45910  0.76390  0.17125  Biso   1.000  C
  C40      1.0000 0.04090  0.26390  0.32875  Biso   1.000  C
  H37      1.0000 0.48800  0.17550  0.81500  Biso   1.000  H
  H38      1.0000 0.01200  0.67550  0.68500  Biso   1.000  H
  H39      1.0000 0.51200  0.82450  0.18500  Biso   1.000  H
  H40      1.0000 0.98800  0.32450  0.31500  Biso   1.000  H
  C41      1.0000 0.66690  0.21860  0.84780  Biso   1.000  C
  C42      1.0000 0.83310  0.71860  0.65220  Biso   1.000  C
  C43      1.0000 0.33310  0.78140  0.15220  Biso   1.000  C
  C44      1.0000 0.16690  0.28140  0.34780  Biso   1.000  C
  H41      1.0000 0.69910  0.14590  0.84680  Biso   1.000  H
  H42      1.0000 0.80090  0.64590  0.65320  Biso   1.000  H
  H43      1.0000 0.30090  0.85410  0.15320  Biso   1.000  H
  H44      1.0000 0.19910  0.35410  0.34680  Biso   1.000  H
  C45      1.0000 0.74580  0.30870  0.86836  Biso   1.000  C
  C46      1.0000 0.75420  0.80870  0.63164  Biso   1.000  C
  C47      1.0000 0.25420  0.69130  0.13164  Biso   1.000  C
  C48      1.0000 0.24580  0.19130  0.36836  Biso   1.000  C
  H45      1.0000 0.83060  0.29580  0.88170  Biso   1.000  H
  H46      1.0000 0.66940  0.79580  0.61830  Biso   1.000  H
  H47      1.0000 0.16940  0.70420  0.11830  Biso   1.000  H
  H48      1.0000 0.33060  0.20420  0.38170  Biso   1.000  H
  C49      1.0000 0.69960  0.41830  0.86937  Biso   1.000  C
  C50      1.0000 0.80040  0.91830  0.63063  Biso   1.000  C
  C51      1.0000 0.30040  0.58170  0.13063  Biso   1.000  C
  C52      1.0000 0.19960  0.08170  0.36937  Biso   1.000  C
  C53      1.0000 0.83650  0.42790  0.16543  Biso   1.000  C
  C54      1.0000 0.66350  0.92790  0.33457  Biso   1.000  C
  C55      1.0000 0.16350  0.57210  0.83457  Biso   1.000  C
  C56      1.0000 0.33650  0.07210  0.66543  Biso   1.000  C
  C57      1.0000 0.85420  0.51540  0.20931  Biso   1.000  C
  C58      1.0000 0.64580  0.01540  0.29069  Biso   1.000  C
  C59      1.0000 0.14580  0.48460  0.79069  Biso   1.000  C
  C60      1.0000 0.35420  0.98460  0.70931  Biso   1.000  C
  H49      1.0000 0.90820  0.57410  0.20530  Biso   1.000  H
  H50      1.0000 0.59180  0.07410  0.29470  Biso   1.000  H
  H51      1.0000 0.09180  0.42590  0.79470  Biso   1.000  H
  H52      1.0000 0.40820  0.92590  0.70530  Biso   1.000  H
  C61      1.0000 0.79230  0.51690  0.25943  Biso   1.000  C
  C62      1.0000 0.70770  0.01690  0.24057  Biso   1.000  C
  C63      1.0000 0.20770  0.48310  0.74057  Biso   1.000  C
  C64      1.0000 0.29230  0.98310  0.75943  Biso   1.000  C
  H53      1.0000 0.80610  0.57610  0.28890  Biso   1.000  H
  H54      1.0000 0.69390  0.07610  0.21110  Biso   1.000  H
  H55      1.0000 0.19390  0.42390  0.71110  Biso   1.000  H
  H56      1.0000 0.30610  0.92390  0.78890  Biso   1.000  H
  C65      1.0000 0.71150  0.43250  0.26593  Biso   1.000  C
  C66      1.0000 0.78850  0.93250  0.23407  Biso   1.000  C
  C67      1.0000 0.28850  0.56750  0.73407  Biso   1.000  C
  C68      1.0000 0.21150  0.06750  0.76593  Biso   1.000  C
  H57      1.0000 0.67150  0.43300  0.30000  Biso   1.000  H
  H58      1.0000 0.82850  0.93300  0.20000  Biso   1.000  H
  H59      1.0000 0.32850  0.56700  0.70000  Biso   1.000  H
  H60      1.0000 0.17150  0.06700  0.80000  Biso   1.000  H
  C69      1.0000 0.69020  0.34770  0.22192  Biso   1.000  C
  C70      1.0000 0.80980  0.84770  0.27808  Biso   1.000  C
  C71      1.0000 0.30980  0.65230  0.77808  Biso   1.000  C
  C72      1.0000 0.19020  0.15230  0.72192  Biso   1.000  C
  H61      1.0000 0.63370  0.29090  0.22560  Biso   1.000  H
  H62      1.0000 0.86630  0.79090  0.27440  Biso   1.000  H
  H63      1.0000 0.36630  0.70910  0.77440  Biso   1.000  H
  H64      1.0000 0.13370  0.20910  0.72560  Biso   1.000  H
  C73      1.0000 0.75150  0.34440  0.17136  Biso   1.000  C
  C74      1.0000 0.74850  0.84440  0.32864  Biso   1.000  C
  C75      1.0000 0.24850  0.65560  0.82864  Biso   1.000  C
  C76      1.0000 0.25150  0.15560  0.67136  Biso   1.000  C
  H65      1.0000 0.73530  0.28590  0.14150  Biso   1.000  H
  H66      1.0000 0.76470  0.78590  0.35850  Biso   1.000  H
  H67      1.0000 0.26470  0.71410  0.85850  Biso   1.000  H
  H68      1.0000 0.23530  0.21410  0.64150  Biso   1.000  H
  C77      1.0000 0.94640  0.27000  0.09590  Biso   1.000  C
  C78      1.0000 0.55360  0.77000  0.40410  Biso   1.000  C
  C79      1.0000 0.05360  0.73000  0.90410  Biso   1.000  C
  C80      1.0000 0.44640  0.23000  0.59590  Biso   1.000  C
  C81      1.0000 0.00120  0.20780  0.14998  Biso   1.000  C
  C82      1.0000 0.49880  0.70780  0.35002  Biso   1.000  C
  C83      1.0000 0.99880  0.79220  0.85002  Biso   1.000  C
  C84      1.0000 0.50120  0.29220  0.64998  Biso   1.000  C
  H69      1.0000 0.03050  0.24440  0.18890  Biso   1.000  H
  H70      1.0000 0.46950  0.74440  0.31110  Biso   1.000  H
  H71      1.0000 0.96950  0.75560  0.81110  Biso   1.000  H
  H72      1.0000 0.53050  0.25560  0.68890  Biso   1.000  H
  C85      1.0000 0.01190  0.09140  0.14570  Biso   1.000  C
  C86      1.0000 0.48810  0.59140  0.35430  Biso   1.000  C
  C87      1.0000 0.98810  0.90860  0.85430  Biso   1.000  C
  C88      1.0000 0.51190  0.40860  0.64570  Biso   1.000  C
  H73      1.0000 0.04950  0.05000  0.18180  Biso   1.000  H
  H74      1.0000 0.45050  0.55000  0.31820  Biso   1.000  H
  H75      1.0000 0.95050  0.95000  0.81820  Biso   1.000  H
  H76      1.0000 0.54950  0.45000  0.68180  Biso   1.000  H
  C89      1.0000 0.96830  0.03770  0.08960  Biso   1.000  C
  C90      1.0000 0.53170  0.53770  0.41040  Biso   1.000  C
  C91      1.0000 0.03170  0.96230  0.91040  Biso   1.000  C
  C92      1.0000 0.46830  0.46230  0.58960  Biso   1.000  C
  H77      1.0000 0.97480  0.95920  0.08740  Biso   1.000  H
  H78      1.0000 0.52520  0.45920  0.41260  Biso   1.000  H
  H79      1.0000 0.02520  0.04080  0.91260  Biso   1.000  H
  H80      1.0000 0.47480  0.54080  0.58740  Biso   1.000  H
  C93      1.0000 0.91490  0.09690  0.03630  Biso   1.000  C
  C94      1.0000 0.58510  0.59690  0.46370  Biso   1.000  C
  C95      1.0000 0.08510  0.90310  0.96370  Biso   1.000  C
  C96      1.0000 0.41490  0.40310  0.53630  Biso   1.000  C
  H81      1.0000 0.88580  0.05890  0.99780  Biso   1.000  H
  H82      1.0000 0.61420  0.55890  0.50220  Biso   1.000  H
  H83      1.0000 0.11420  0.94110  0.00220  Biso   1.000  H
  H84      1.0000 0.38580  0.44110  0.49780  Biso   1.000  H
  C97      1.0000 0.90340  0.21430  0.03864  Biso   1.000  C
  C98      1.0000 0.59660  0.71430  0.46136  Biso   1.000  C
  C99      1.0000 0.09660  0.78570  0.96136  Biso   1.000  C
  C100     1.0000 0.40340  0.28570  0.53864  Biso   1.000  C
  H85      1.0000 0.86700  0.25470  0.00200  Biso   1.000  H
  H86      1.0000 0.63300  0.75470  0.49800  Biso   1.000  H
  H87      1.0000 0.13300  0.74530  0.99800  Biso   1.000  H
  H88      1.0000 0.36700  0.24530  0.50200  Biso   1.000  H
  C101     1.0000 0.55530  0.60060  0.00742  Biso   1.000  C
  C102     1.0000 0.94470  0.10060  0.49258  Biso   1.000  C
  C103     1.0000 0.44470  0.39940  0.99258  Biso   1.000  C
  C104     1.0000 0.05530  0.89940  0.50742  Biso   1.000  C
  H89      1.0000 0.59040  0.67260  0.01220  Biso   1.000  H
  H90      1.0000 0.90960  0.17260  0.48780  Biso   1.000  H
  H91      1.0000 0.40960  0.32740  0.98780  Biso   1.000  H
  H92      1.0000 0.09040  0.82740  0.51220  Biso   1.000  H
  C105     1.0000 0.57260  0.41030  0.00329  Biso   1.000  C
  C106     1.0000 0.92740  0.91030  0.49671  Biso   1.000  C
  C107     1.0000 0.42740  0.58970  0.99671  Biso   1.000  C
  C108     1.0000 0.07260  0.08970  0.50329  Biso   1.000  C
  H93      1.0000 0.62070  0.34510  0.00520  Biso   1.000  H
  H94      1.0000 0.87930  0.84510  0.49480  Biso   1.000  H
  H95      1.0000 0.37930  0.65490  0.99480  Biso   1.000  H
  H96      1.0000 0.12070  0.15490  0.50520  Biso   1.000  H
  C109     1.0000 0.45480  0.07380  0.95710  Biso   1.000  C
  C110     1.0000 0.04520  0.57380  0.54290  Biso   1.000  C
  C111     1.0000 0.54520  0.92620  0.04290  Biso   1.000  C
  C112     1.0000 0.95480  0.42620  0.45710  Biso   1.000  C
  H97      1.0000 0.41890  0.12650  0.92620  Biso   1.000  H
  H98      1.0000 0.08110  0.62650  0.57380  Biso   1.000  H
  H99      1.0000 0.58110  0.87350  0.07380  Biso   1.000  H
  H100     1.0000 0.91890  0.37350  0.42620  Biso   1.000  H
  C113     1.0000 0.55360  0.10620  0.00110  Biso   1.000  C
  C114     1.0000 0.94640  0.60620  0.49890  Biso   1.000  C
  C115     1.0000 0.44640  0.89380  0.99890  Biso   1.000  C
  C116     1.0000 0.05360  0.39380  0.50110  Biso   1.000  C
  H101     1.0000 0.58820  0.17770  0.99950  Biso   1.000  H
  H102     1.0000 0.91180  0.67770  0.50050  Biso   1.000  H
  H103     1.0000 0.41180  0.82230  0.00050  Biso   1.000  H
  H104     1.0000 0.08820  0.32230  0.49950  Biso   1.000  H
  N1       1.0000 0.87270  0.73768  0.09739  Biso   1.000  N
  N2       1.0000 0.62730  0.23768  0.40261  Biso   1.000  N
  N3       1.0000 0.12730  0.26232  0.90261  Biso   1.000  N
  N4       1.0000 0.37270  0.76232  0.59739  Biso   1.000  N
  N5       1.0000 0.62893  0.51026  0.01096  Biso   1.000  N
  N6       1.0000 0.87107  0.01026  0.48904  Biso   1.000  N
  N7       1.0000 0.37107  0.48974  0.98904  Biso   1.000  N
  N8       1.0000 0.12893  0.98974  0.51096  Biso   1.000  N
  N9       1.0000 0.40020  0.96380  0.95420  Biso   1.000  N
  N10      1.0000 0.09980  0.46380  0.54580  Biso   1.000  N
  N11      1.0000 0.59980  0.03620  0.04580  Biso   1.000  N
  N12      1.0000 0.90020  0.53620  0.45420  Biso   1.000  N
  O1       1.0000 0.90680  0.67908  0.05582  Biso   1.000  O
  O2       1.0000 0.59320  0.17908  0.44418  Biso   1.000  O
  O3       1.0000 0.09320  0.32092  0.94418  Biso   1.000  O
  O4       1.0000 0.40680  0.82092  0.55582  Biso   1.000  O
  O5       1.0000 0.95040  0.77150  0.14317  Biso   1.000  O
  O6       1.0000 0.54960  0.27150  0.35683  Biso   1.000  O
  O7       1.0000 0.04960  0.22850  0.85683  Biso   1.000  O
  O8       1.0000 0.45040  0.72850  0.64317  Biso   1.000  O
  O9       1.0000 0.76610  0.76070  0.09240  Biso   1.000  O
  O10      1.0000 0.73390  0.26070  0.40760  Biso   1.000  O
  O11      1.0000 0.23390  0.23930  0.90760  Biso   1.000  O
  O12      1.0000 0.26610  0.73930  0.59240  Biso   1.000  O
  P1       1.0000 0.80544  0.53158  0.90566  Biso   1.000  P
  P2       1.0000 0.69456  0.03158  0.59434  Biso   1.000  P
  P3       1.0000 0.19456  0.46842  0.09434  Biso   1.000  P
  P4       1.0000 0.30544  0.96842  0.40566  Biso   1.000  P
  P5       1.0000 0.91961  0.42136  0.09973  Biso   1.000  P
  P6       1.0000 0.58039  0.92136  0.40027  Biso   1.000  P
  P7       1.0000 0.08039  0.57864  0.90027  Biso   1.000  P
  P8       1.0000 0.41961  0.07864  0.59973  Biso   1.000  P
