data_image0
_cell_length_a       10.693
_cell_length_b       13.32
_cell_length_c       3.6804
_cell_angle_alpha    90
_cell_angle_beta     100.605
_cell_angle_gamma    90

_symmetry_space_group_name_H-M    "P 1"
_symmetry_int_tables_number       1

loop_
  _symmetry_equiv_pos_as_xyz
  'x, y, z'

loop_
  _atom_site_label
  _atom_site_occupancy
  _atom_site_fract_x
  _atom_site_fract_y
  _atom_site_fract_z
  _atom_site_thermal_displace_type
  _atom_site_B_iso_or_equiv
  _atom_site_type_symbol
  Cu1      1.0000 0.00000  0.29009  0.50000  Biso   1.000  Cu
  Cu2      1.0000 0.50000  0.79009  0.50000  Biso   1.000  Cu
  Cu3      1.0000 0.00000  0.70991  0.50000  Biso   1.000  Cu
  Cu4      1.0000 0.50000  0.20991  0.50000  Biso   1.000  Cu
  Cl1      1.0000 0.00000  0.18765  0.00000  Biso   1.000  Cl
  Cl2      1.0000 0.50000  0.68765  0.00000  Biso   1.000  Cl
  Cl3      1.0000 0.00000  0.81235  0.00000  Biso   1.000  Cl
  Cl4      1.0000 0.50000  0.31235  0.00000  Biso   1.000  Cl
  N1       1.0000 0.12039  0.41018  0.44100  Biso   1.000  N
  N2       1.0000 0.87961  0.41018  0.55900  Biso   1.000  N
  N3       1.0000 0.62039  0.91018  0.44100  Biso   1.000  N
  N4       1.0000 0.37961  0.91018  0.55900  Biso   1.000  N
  N5       1.0000 0.87961  0.58982  0.55900  Biso   1.000  N
  N6       1.0000 0.12039  0.58982  0.44100  Biso   1.000  N
  N7       1.0000 0.37961  0.08982  0.55900  Biso   1.000  N
  N8       1.0000 0.62039  0.08982  0.44100  Biso   1.000  N
  C1       1.0000 0.30125  0.50000  0.32020  Biso   1.000  C
  C2       1.0000 0.69875  0.50000  0.67980  Biso   1.000  C
  C3       1.0000 0.80125  0.00000  0.32020  Biso   1.000  C
  C4       1.0000 0.19875  0.00000  0.67980  Biso   1.000  C
  H1       1.0000 0.38400  0.50000  0.26080  Biso   1.000  H
  H2       1.0000 0.61600  0.50000  0.73920  Biso   1.000  H
  H3       1.0000 0.88400  0.00000  0.26080  Biso   1.000  H
  H4       1.0000 0.11600  0.00000  0.73920  Biso   1.000  H
  C5       1.0000 0.23889  0.41094  0.36500  Biso   1.000  C
  C6       1.0000 0.76111  0.41094  0.63500  Biso   1.000  C
  C7       1.0000 0.73889  0.91094  0.36500  Biso   1.000  C
  C8       1.0000 0.26111  0.91094  0.63500  Biso   1.000  C
  C9       1.0000 0.76111  0.58906  0.63500  Biso   1.000  C
  C10      1.0000 0.23889  0.58906  0.36500  Biso   1.000  C
  C11      1.0000 0.26111  0.08906  0.63500  Biso   1.000  C
  C12      1.0000 0.73889  0.08906  0.36500  Biso   1.000  C
  H5       1.0000 0.28070  0.34900  0.34150  Biso   1.000  H
  H6       1.0000 0.71930  0.34900  0.65850  Biso   1.000  H
  H7       1.0000 0.78070  0.84900  0.34150  Biso   1.000  H
  H8       1.0000 0.21930  0.84900  0.65850  Biso   1.000  H
  H9       1.0000 0.71930  0.65100  0.65850  Biso   1.000  H
  H10      1.0000 0.28070  0.65100  0.34150  Biso   1.000  H
  H11      1.0000 0.21930  0.15100  0.65850  Biso   1.000  H
  H12      1.0000 0.78070  0.15100  0.34150  Biso   1.000  H
  C13      1.0000 0.06652  0.50000  0.46740  Biso   1.000  C
  C14      1.0000 0.93348  0.50000  0.53260  Biso   1.000  C
  C15      1.0000 0.56652  0.00000  0.46740  Biso   1.000  C
  C16      1.0000 0.43348  0.00000  0.53260  Biso   1.000  C
