data_image0
_cell_length_a       7.596
_cell_length_b       7.33
_cell_length_c       14.259
_cell_angle_alpha    90
_cell_angle_beta     90
_cell_angle_gamma    97.59

_symmetry_space_group_name_H-M    "P 1"
_symmetry_int_tables_number       1

loop_
  _symmetry_equiv_pos_as_xyz
  'x, y, z'

loop_
  _atom_site_label
  _atom_site_occupancy
  _atom_site_fract_x
  _atom_site_fract_y
  _atom_site_fract_z
  _atom_site_thermal_displace_type
  _atom_site_B_iso_or_equiv
  _atom_site_type_symbol
  Cu1      1.0000 0.07980  0.21040  0.47210  Biso   1.000  Cu
  Cu2      1.0000 0.92020  0.28960  0.97210  Biso   1.000  Cu
  Cu3      1.0000 0.92020  0.78960  0.52790  Biso   1.000  Cu
  Cu4      1.0000 0.07980  0.71040  0.02790  Biso   1.000  Cu
  Cu5      1.0000 0.81080  0.00620  0.71420  Biso   1.000  Cu
  Cu6      1.0000 0.18920  0.49380  0.21420  Biso   1.000  Cu
  Cu7      1.0000 0.18920  0.99380  0.28580  Biso   1.000  Cu
  Cu8      1.0000 0.81080  0.50620  0.78580  Biso   1.000  Cu
  Br1      1.0000 0.79930  0.12550  0.54980  Biso   1.000  Br
  Br2      1.0000 0.20070  0.37450  0.04980  Biso   1.000  Br
  Br3      1.0000 0.20070  0.87450  0.45020  Biso   1.000  Br
  Br4      1.0000 0.79930  0.62550  0.95020  Biso   1.000  Br
  Br5      1.0000 0.00050  0.25640  0.30760  Biso   1.000  Br
  Br6      1.0000 0.99950  0.24360  0.80760  Biso   1.000  Br
  Br7      1.0000 0.99950  0.74360  0.69240  Biso   1.000  Br
  Br8      1.0000 0.00050  0.75640  0.19240  Biso   1.000  Br
  C1       1.0000 0.31460  0.88550  0.01400  Biso   1.000  C
  C2       1.0000 0.68540  0.61450  0.51400  Biso   1.000  C
  C3       1.0000 0.68540  0.11450  0.98600  Biso   1.000  C
  C4       1.0000 0.31460  0.38550  0.48600  Biso   1.000  C
  C5       1.0000 0.26420  0.84380  0.92890  Biso   1.000  C
  C6       1.0000 0.73580  0.65620  0.42890  Biso   1.000  C
  C7       1.0000 0.73580  0.15620  0.07110  Biso   1.000  C
  C8       1.0000 0.26420  0.34380  0.57110  Biso   1.000  C
  C9       1.0000 0.33580  0.70990  0.86640  Biso   1.000  C
  C10      1.0000 0.66420  0.79010  0.36640  Biso   1.000  C
  C11      1.0000 0.66420  0.29010  0.13360  Biso   1.000  C
  C12      1.0000 0.33580  0.20990  0.63360  Biso   1.000  C
  C13      1.0000 0.47150  0.81290  0.80640  Biso   1.000  C
  C14      1.0000 0.52850  0.68710  0.30640  Biso   1.000  C
  C15      1.0000 0.52850  0.18710  0.19360  Biso   1.000  C
  C16      1.0000 0.47150  0.31290  0.69360  Biso   1.000  C
  N1       1.0000 0.57870  0.89250  0.76230  Biso   1.000  N
  N2       1.0000 0.42130  0.60750  0.26230  Biso   1.000  N
  N3       1.0000 0.42130  0.10750  0.23770  Biso   1.000  N
  N4       1.0000 0.57870  0.39250  0.73770  Biso   1.000  N
