data_image0
_cell_length_a       15.365
_cell_length_b       13.283
_cell_length_c       7.056
_cell_angle_alpha    90
_cell_angle_beta     90
_cell_angle_gamma    90

_symmetry_space_group_name_H-M    "P 1"
_symmetry_int_tables_number       1

loop_
  _symmetry_equiv_pos_as_xyz
  'x, y, z'

loop_
  _atom_site_label
  _atom_site_occupancy
  _atom_site_fract_x
  _atom_site_fract_y
  _atom_site_fract_z
  _atom_site_thermal_displace_type
  _atom_site_B_iso_or_equiv
  _atom_site_type_symbol
  Cu1      1.0000 0.08554  0.20332  0.18870  Biso   1.000  Cu
  Cu2      1.0000 0.41446  0.20332  0.68870  Biso   1.000  Cu
  Cu3      1.0000 0.58554  0.29668  0.18870  Biso   1.000  Cu
  Cu4      1.0000 0.91446  0.29668  0.68870  Biso   1.000  Cu
  Cu5      1.0000 0.91446  0.79668  0.81130  Biso   1.000  Cu
  Cu6      1.0000 0.58554  0.79668  0.31130  Biso   1.000  Cu
  Cu7      1.0000 0.41446  0.70332  0.81130  Biso   1.000  Cu
  Cu8      1.0000 0.08554  0.70332  0.31130  Biso   1.000  Cu
  Cu9      1.0000 0.95013  0.94903  0.21470  Biso   1.000  Cu
  Cu10     1.0000 0.54987  0.94903  0.71470  Biso   1.000  Cu
  Cu11     1.0000 0.45013  0.55097  0.21470  Biso   1.000  Cu
  Cu12     1.0000 0.04987  0.55097  0.71470  Biso   1.000  Cu
  Cu13     1.0000 0.04987  0.05097  0.78530  Biso   1.000  Cu
  Cu14     1.0000 0.45013  0.05097  0.28530  Biso   1.000  Cu
  Cu15     1.0000 0.54987  0.44903  0.78530  Biso   1.000  Cu
  Cu16     1.0000 0.95013  0.44903  0.28530  Biso   1.000  Cu
  Cl1      1.0000 0.07832  0.03084  0.22930  Biso   1.000  Cl
  Cl2      1.0000 0.42168  0.03084  0.72930  Biso   1.000  Cl
  Cl3      1.0000 0.57832  0.46916  0.22930  Biso   1.000  Cl
  Cl4      1.0000 0.92168  0.46916  0.72930  Biso   1.000  Cl
  Cl5      1.0000 0.92168  0.96916  0.77070  Biso   1.000  Cl
  Cl6      1.0000 0.57832  0.96916  0.27070  Biso   1.000  Cl
  Cl7      1.0000 0.42168  0.53084  0.77070  Biso   1.000  Cl
  Cl8      1.0000 0.07832  0.53084  0.27070  Biso   1.000  Cl
  Cl9      1.0000 0.02502  0.21495  0.85970  Biso   1.000  Cl
  Cl10     1.0000 0.47498  0.21495  0.35970  Biso   1.000  Cl
  Cl11     1.0000 0.52502  0.28505  0.85970  Biso   1.000  Cl
  Cl12     1.0000 0.97498  0.28505  0.35970  Biso   1.000  Cl
  Cl13     1.0000 0.97498  0.78505  0.14030  Biso   1.000  Cl
  Cl14     1.0000 0.52502  0.78505  0.64030  Biso   1.000  Cl
  Cl15     1.0000 0.47498  0.71495  0.14030  Biso   1.000  Cl
  Cl16     1.0000 0.02502  0.71495  0.64030  Biso   1.000  Cl
  N1       1.0000 0.19640  0.27120  0.18210  Biso   1.000  N
  N2       1.0000 0.30360  0.27120  0.68210  Biso   1.000  N
  N3       1.0000 0.69640  0.22880  0.18210  Biso   1.000  N
  N4       1.0000 0.80360  0.22880  0.68210  Biso   1.000  N
  N5       1.0000 0.80360  0.72880  0.81790  Biso   1.000  N
  N6       1.0000 0.69640  0.72880  0.31790  Biso   1.000  N
  N7       1.0000 0.30360  0.77120  0.81790  Biso   1.000  N
  N8       1.0000 0.19640  0.77120  0.31790  Biso   1.000  N
  C1       1.0000 0.25730  0.31790  0.15920  Biso   1.000  C
  C2       1.0000 0.24270  0.31790  0.65920  Biso   1.000  C
  C3       1.0000 0.75730  0.18210  0.15920  Biso   1.000  C
  C4       1.0000 0.74270  0.18210  0.65920  Biso   1.000  C
  C5       1.0000 0.74270  0.68210  0.84080  Biso   1.000  C
  C6       1.0000 0.75730  0.68210  0.34080  Biso   1.000  C
  C7       1.0000 0.24270  0.81790  0.84080  Biso   1.000  C
  C8       1.0000 0.25730  0.81790  0.34080  Biso   1.000  C
  C9       1.0000 0.33560  0.38030  0.12460  Biso   1.000  C
  C10      1.0000 0.16440  0.38030  0.62460  Biso   1.000  C
  C11      1.0000 0.83560  0.11970  0.12460  Biso   1.000  C
  C12      1.0000 0.66440  0.11970  0.62460  Biso   1.000  C
  C13      1.0000 0.66440  0.61970  0.87540  Biso   1.000  C
  C14      1.0000 0.83560  0.61970  0.37540  Biso   1.000  C
  C15      1.0000 0.16440  0.88030  0.87540  Biso   1.000  C
  C16      1.0000 0.33560  0.88030  0.37540  Biso   1.000  C
  C17      1.0000 0.35220  0.45180  0.28900  Biso   1.000  C
  C18      1.0000 0.14780  0.45180  0.78900  Biso   1.000  C
  C19      1.0000 0.85220  0.04820  0.28900  Biso   1.000  C
  C20      1.0000 0.64780  0.04820  0.78900  Biso   1.000  C
  C21      1.0000 0.64780  0.54820  0.71100  Biso   1.000  C
  C22      1.0000 0.85220  0.54820  0.21100  Biso   1.000  C
  C23      1.0000 0.14780  0.95180  0.71100  Biso   1.000  C
  C24      1.0000 0.35220  0.95180  0.21100  Biso   1.000  C
  C25      1.0000 0.32200  0.54940  0.29130  Biso   1.000  C
  C26      1.0000 0.17800  0.54940  0.79130  Biso   1.000  C
  C27      1.0000 0.82200  0.95060  0.29130  Biso   1.000  C
  C28      1.0000 0.67800  0.95060  0.79130  Biso   1.000  C
  C29      1.0000 0.67800  0.45060  0.70870  Biso   1.000  C
  C30      1.0000 0.82200  0.45060  0.20870  Biso   1.000  C
  C31      1.0000 0.17800  0.04940  0.70870  Biso   1.000  C
  C32      1.0000 0.32200  0.04940  0.20870  Biso   1.000  C
  H1       1.0000 0.33100  0.41100  0.00300  Biso   1.000  H
  H2       1.0000 0.16900  0.41100  0.50300  Biso   1.000  H
  H3       1.0000 0.83100  0.08900  0.00300  Biso   1.000  H
  H4       1.0000 0.66900  0.08900  0.50300  Biso   1.000  H
  H5       1.0000 0.66900  0.58900  0.99700  Biso   1.000  H
  H6       1.0000 0.83100  0.58900  0.49700  Biso   1.000  H
  H7       1.0000 0.16900  0.91100  0.99700  Biso   1.000  H
  H8       1.0000 0.33100  0.91100  0.49700  Biso   1.000  H
  H9       1.0000 0.38600  0.34400  0.10100  Biso   1.000  H
  H10      1.0000 0.11400  0.34400  0.60100  Biso   1.000  H
  H11      1.0000 0.88600  0.15600  0.10100  Biso   1.000  H
  H12      1.0000 0.61400  0.15600  0.60100  Biso   1.000  H
  H13      1.0000 0.61400  0.65600  0.89900  Biso   1.000  H
  H14      1.0000 0.88600  0.65600  0.39900  Biso   1.000  H
  H15      1.0000 0.11400  0.84400  0.89900  Biso   1.000  H
  H16      1.0000 0.38600  0.84400  0.39900  Biso   1.000  H
  H17      1.0000 0.36700  0.42800  0.41400  Biso   1.000  H
  H18      1.0000 0.13300  0.42800  0.91400  Biso   1.000  H
  H19      1.0000 0.86700  0.07200  0.41400  Biso   1.000  H
  H20      1.0000 0.63300  0.07200  0.91400  Biso   1.000  H
  H21      1.0000 0.63300  0.57200  0.58600  Biso   1.000  H
  H22      1.0000 0.86700  0.57200  0.08600  Biso   1.000  H
  H23      1.0000 0.13300  0.92800  0.58600  Biso   1.000  H
  H24      1.0000 0.36700  0.92800  0.08600  Biso   1.000  H
  H25      1.0000 0.28800  0.57900  0.17400  Biso   1.000  H
  H26      1.0000 0.21200  0.57900  0.67400  Biso   1.000  H
  H27      1.0000 0.78800  0.92100  0.17400  Biso   1.000  H
  H28      1.0000 0.71200  0.92100  0.67400  Biso   1.000  H
  H29      1.0000 0.71200  0.42100  0.82600  Biso   1.000  H
  H30      1.0000 0.78800  0.42100  0.32600  Biso   1.000  H
  H31      1.0000 0.21200  0.07900  0.82600  Biso   1.000  H
  H32      1.0000 0.28800  0.07900  0.32600  Biso   1.000  H
  H33      1.0000 0.32000  0.57800  0.40400  Biso   1.000  H
  H34      1.0000 0.18000  0.57800  0.90400  Biso   1.000  H
  H35      1.0000 0.82000  0.92200  0.40400  Biso   1.000  H
  H36      1.0000 0.68000  0.92200  0.90400  Biso   1.000  H
  H37      1.0000 0.68000  0.42200  0.59600  Biso   1.000  H
  H38      1.0000 0.82000  0.42200  0.09600  Biso   1.000  H
  H39      1.0000 0.18000  0.07800  0.59600  Biso   1.000  H
  H40      1.0000 0.32000  0.07800  0.09600  Biso   1.000  H
