data_image0
_cell_length_a       8.358
_cell_length_b       7.457
_cell_length_c       11.851
_cell_angle_alpha    90
_cell_angle_beta     90
_cell_angle_gamma    98.77

_symmetry_space_group_name_H-M    "P 1"
_symmetry_int_tables_number       1

loop_
  _symmetry_equiv_pos_as_xyz
  'x, y, z'

loop_
  _atom_site_label
  _atom_site_occupancy
  _atom_site_fract_x
  _atom_site_fract_y
  _atom_site_fract_z
  _atom_site_thermal_displace_type
  _atom_site_B_iso_or_equiv
  _atom_site_type_symbol
  Cu1      1.0000 0.39290  0.30360  0.05910  Biso   1.000  Cu
  Cu2      1.0000 0.60710  0.19640  0.55910  Biso   1.000  Cu
  Cu3      1.0000 0.60710  0.69640  0.94090  Biso   1.000  Cu
  Cu4      1.0000 0.39290  0.80360  0.44090  Biso   1.000  Cu
  Cu5      1.0000 0.76060  0.37920  0.83360  Biso   1.000  Cu
  Cu6      1.0000 0.23940  0.12080  0.33360  Biso   1.000  Cu
  Cu7      1.0000 0.23940  0.62080  0.16640  Biso   1.000  Cu
  Cu8      1.0000 0.76060  0.87920  0.66640  Biso   1.000  Cu
  Cl1      1.0000 0.66340  0.35510  0.02190  Biso   1.000  Cl
  Cl2      1.0000 0.33660  0.14490  0.52190  Biso   1.000  Cl
  Cl3      1.0000 0.33660  0.64490  0.97810  Biso   1.000  Cl
  Cl4      1.0000 0.66340  0.85510  0.47810  Biso   1.000  Cl
  Cl5      1.0000 0.62130  0.59810  0.75680  Biso   1.000  Cl
  Cl6      1.0000 0.37870  0.90190  0.25680  Biso   1.000  Cl
  Cl7      1.0000 0.37870  0.40190  0.24320  Biso   1.000  Cl
  Cl8      1.0000 0.62130  0.09810  0.74320  Biso   1.000  Cl
  C1       1.0000 0.82090  0.86830  0.97920  Biso   1.000  C
  C2       1.0000 0.17910  0.63170  0.47920  Biso   1.000  C
  C3       1.0000 0.17910  0.13170  0.02080  Biso   1.000  C
  C4       1.0000 0.82090  0.36830  0.52080  Biso   1.000  C
  C5       1.0000 0.71730  0.86150  0.06900  Biso   1.000  C
  C6       1.0000 0.28270  0.63850  0.56900  Biso   1.000  C
  C7       1.0000 0.28270  0.13850  0.93100  Biso   1.000  C
  C8       1.0000 0.71730  0.36150  0.43100  Biso   1.000  C
  C9       1.0000 0.73530  0.75500  0.17650  Biso   1.000  C
  C10      1.0000 0.26470  0.74500  0.67650  Biso   1.000  C
  C11      1.0000 0.26470  0.24500  0.82350  Biso   1.000  C
  C12      1.0000 0.73530  0.25500  0.32350  Biso   1.000  C
  C13      1.0000 0.89160  0.68390  0.17990  Biso   1.000  C
  C14      1.0000 0.10840  0.81610  0.67990  Biso   1.000  C
  C15      1.0000 0.10840  0.31610  0.82010  Biso   1.000  C
  C16      1.0000 0.89160  0.18390  0.32010  Biso   1.000  C
  N1       1.0000 0.01470  0.64500  0.18320  Biso   1.000  N
  N2       1.0000 0.98530  0.85500  0.68320  Biso   1.000  N
  N3       1.0000 0.98530  0.35500  0.81680  Biso   1.000  N
  N4       1.0000 0.01470  0.14500  0.31680  Biso   1.000  N
