data_image0
_cell_length_a       10.654
_cell_length_b       8.736
_cell_length_c       14.654
_cell_angle_alpha    90
_cell_angle_beta     109.01
_cell_angle_gamma    90

_symmetry_space_group_name_H-M    "P 1"
_symmetry_int_tables_number       1

loop_
  _symmetry_equiv_pos_as_xyz
  'x, y, z'

loop_
  _atom_site_label
  _atom_site_occupancy
  _atom_site_fract_x
  _atom_site_fract_y
  _atom_site_fract_z
  _atom_site_thermal_displace_type
  _atom_site_B_iso_or_equiv
  _atom_site_type_symbol
  Cu1      1.0000 0.06521  0.69886  0.65528  Biso   1.000  Cu
  Cu2      1.0000 0.56521  0.80114  0.15528  Biso   1.000  Cu
  Cu3      1.0000 0.93479  0.30114  0.34472  Biso   1.000  Cu
  Cu4      1.0000 0.43479  0.19886  0.84472  Biso   1.000  Cu
  O1       1.0000 0.54460  0.78810  0.59500  Biso   1.000  O
  O2       1.0000 0.04460  0.71190  0.09500  Biso   1.000  O
  O3       1.0000 0.45540  0.21190  0.40500  Biso   1.000  O
  O4       1.0000 0.95540  0.28810  0.90500  Biso   1.000  O
  N1       1.0000 0.07200  0.47630  0.66460  Biso   1.000  N
  N2       1.0000 0.57200  0.02370  0.16460  Biso   1.000  N
  N3       1.0000 0.92800  0.52370  0.33540  Biso   1.000  N
  N4       1.0000 0.42800  0.97630  0.83540  Biso   1.000  N
  N5       1.0000 0.09320  0.79600  0.78540  Biso   1.000  N
  N6       1.0000 0.59320  0.70400  0.28540  Biso   1.000  N
  N7       1.0000 0.90680  0.20400  0.21460  Biso   1.000  N
  N8       1.0000 0.40680  0.29600  0.71460  Biso   1.000  N
  N9       1.0000 0.10770  0.21230  0.42820  Biso   1.000  N
  N10      1.0000 0.60770  0.28770  0.92820  Biso   1.000  N
  N11      1.0000 0.89230  0.78770  0.57180  Biso   1.000  N
  N12      1.0000 0.39230  0.71230  0.07180  Biso   1.000  N
  N13      1.0000 0.18900  0.80800  0.60200  Biso   1.000  N
  N14      1.0000 0.68900  0.69200  0.10200  Biso   1.000  N
  N15      1.0000 0.81100  0.19200  0.39800  Biso   1.000  N
  N16      1.0000 0.31100  0.30800  0.89800  Biso   1.000  N
  C1       1.0000 0.18670  0.12300  0.46580  Biso   1.000  C
  C2       1.0000 0.68670  0.37700  0.96580  Biso   1.000  C
  C3       1.0000 0.81330  0.87700  0.53420  Biso   1.000  C
  C4       1.0000 0.31330  0.62300  0.03420  Biso   1.000  C
  C5       1.0000 0.23350  0.89620  0.56310  Biso   1.000  C
  C6       1.0000 0.73350  0.60380  0.06310  Biso   1.000  C
  C7       1.0000 0.76650  0.10380  0.43690  Biso   1.000  C
  C8       1.0000 0.26650  0.39620  0.93690  Biso   1.000  C
  C9       1.0000 0.27950  0.01040  0.51300  Biso   1.000  C
  C10      1.0000 0.77950  0.48960  0.01300  Biso   1.000  C
  C11      1.0000 0.72050  0.98960  0.48700  Biso   1.000  C
  C12      1.0000 0.22050  0.51040  0.98700  Biso   1.000  C
  C13      1.0000 0.40660  0.00440  0.50570  Biso   1.000  C
  C14      1.0000 0.90660  0.49560  0.00570  Biso   1.000  C
  C15      1.0000 0.59340  0.99560  0.49430  Biso   1.000  C
  C16      1.0000 0.09340  0.50440  0.99430  Biso   1.000  C
  C17      1.0000 0.51990  0.90290  0.54300  Biso   1.000  C
  C18      1.0000 0.01990  0.59710  0.04300  Biso   1.000  C
  C19      1.0000 0.48010  0.09710  0.45700  Biso   1.000  C
  C20      1.0000 0.98010  0.40290  0.95700  Biso   1.000  C
  C21      1.0000 0.06690  0.34840  0.67460  Biso   1.000  C
  C22      1.0000 0.56690  0.15160  0.17460  Biso   1.000  C
  C23      1.0000 0.93310  0.65160  0.32540  Biso   1.000  C
  C24      1.0000 0.43310  0.84840  0.82540  Biso   1.000  C
  C25      1.0000 0.05900  0.18470  0.68830  Biso   1.000  C
  C26      1.0000 0.55900  0.31530  0.18830  Biso   1.000  C
  C27      1.0000 0.94100  0.81530  0.31170  Biso   1.000  C
  C28      1.0000 0.44100  0.68470  0.81170  Biso   1.000  C
  C29      1.0000 0.11110  0.86730  0.85370  Biso   1.000  C
  C30      1.0000 0.61110  0.63270  0.35370  Biso   1.000  C
  C31      1.0000 0.88890  0.13270  0.14630  Biso   1.000  C
  C32      1.0000 0.38890  0.36730  0.64630  Biso   1.000  C
  C33      1.0000 0.13560  0.95850  0.94010  Biso   1.000  C
  C34      1.0000 0.63560  0.54150  0.44010  Biso   1.000  C
  C35      1.0000 0.86440  0.04150  0.05990  Biso   1.000  C
  C36      1.0000 0.36440  0.45850  0.55990  Biso   1.000  C
  H1       1.0000 0.04500  0.17500  0.73300  Biso   1.000  H
  H2       1.0000 0.54500  0.32500  0.23300  Biso   1.000  H
  H3       1.0000 0.95500  0.82500  0.26700  Biso   1.000  H
  H4       1.0000 0.45500  0.67500  0.76700  Biso   1.000  H
  H5       1.0000 0.01200  0.13900  0.63600  Biso   1.000  H
  H6       1.0000 0.51200  0.36100  0.13600  Biso   1.000  H
  H7       1.0000 0.98800  0.86100  0.36400  Biso   1.000  H
  H8       1.0000 0.48800  0.63900  0.86400  Biso   1.000  H
  H9       1.0000 0.13900  0.14600  0.70400  Biso   1.000  H
  H10      1.0000 0.63900  0.35400  0.20400  Biso   1.000  H
  H11      1.0000 0.86100  0.85400  0.29600  Biso   1.000  H
  H12      1.0000 0.36100  0.64600  0.79600  Biso   1.000  H
  H13      1.0000 0.11900  0.90600  0.99100  Biso   1.000  H
  H14      1.0000 0.61900  0.59400  0.49100  Biso   1.000  H
  H15      1.0000 0.88100  0.09400  0.00900  Biso   1.000  H
  H16      1.0000 0.38100  0.40600  0.50900  Biso   1.000  H
  H17      1.0000 0.21800  0.98300  0.96900  Biso   1.000  H
  H18      1.0000 0.71800  0.51700  0.46900  Biso   1.000  H
  H19      1.0000 0.78200  0.01700  0.03100  Biso   1.000  H
  H20      1.0000 0.28200  0.48300  0.53100  Biso   1.000  H
  H21      1.0000 0.08970  0.05960  0.92270  Biso   1.000  H
  H22      1.0000 0.58970  0.44040  0.42270  Biso   1.000  H
  H23      1.0000 0.91030  0.94040  0.07730  Biso   1.000  H
  H24      1.0000 0.41030  0.55960  0.57730  Biso   1.000  H
  N17      1.0000 0.26810  0.69030  0.37970  Biso   1.000  N
  N18      1.0000 0.76810  0.80970  0.87970  Biso   1.000  N
  N19      1.0000 0.73190  0.30970  0.62030  Biso   1.000  N
  N20      1.0000 0.23190  0.19030  0.12030  Biso   1.000  N
  C37      1.0000 0.25320  0.58860  0.32900  Biso   1.000  C
  C38      1.0000 0.75320  0.91140  0.82900  Biso   1.000  C
  C39      1.0000 0.74680  0.41140  0.67100  Biso   1.000  C
  C40      1.0000 0.24680  0.08860  0.17100  Biso   1.000  C
  C41      1.0000 0.23480  0.45710  0.26690  Biso   1.000  C
  C42      1.0000 0.73480  0.04290  0.76690  Biso   1.000  C
  C43      1.0000 0.76520  0.54290  0.73310  Biso   1.000  C
  C44      1.0000 0.26520  0.95710  0.23310  Biso   1.000  C
  H25      1.0000 0.29400  0.38000  0.29900  Biso   1.000  H
  H26      1.0000 0.79400  0.12000  0.79900  Biso   1.000  H
  H27      1.0000 0.70600  0.62000  0.70100  Biso   1.000  H
  H28      1.0000 0.20600  0.88000  0.20100  Biso   1.000  H
  H29      1.0000 0.16700  0.44400  0.24600  Biso   1.000  H
  H30      1.0000 0.66700  0.05600  0.74600  Biso   1.000  H
  H31      1.0000 0.83300  0.55600  0.75400  Biso   1.000  H
  H32      1.0000 0.33300  0.94400  0.25400  Biso   1.000  H
  H33      1.0000 0.26500  0.48500  0.21600  Biso   1.000  H
  H34      1.0000 0.76500  0.01500  0.71600  Biso   1.000  H
  H35      1.0000 0.73500  0.51500  0.78400  Biso   1.000  H
  H36      1.0000 0.23500  0.98500  0.28400  Biso   1.000  H
