data_image0
_cell_length_a       28.4958
_cell_length_b       10.2352
_cell_length_c       14.806
_cell_angle_alpha    90
_cell_angle_beta     117.203
_cell_angle_gamma    90

_symmetry_space_group_name_H-M    "P 1"
_symmetry_int_tables_number       1

loop_
  _symmetry_equiv_pos_as_xyz
  'x, y, z'

loop_
  _atom_site_label
  _atom_site_occupancy
  _atom_site_fract_x
  _atom_site_fract_y
  _atom_site_fract_z
  _atom_site_thermal_displace_type
  _atom_site_B_iso_or_equiv
  _atom_site_type_symbol
  Cu1      1.0000 0.83709  0.45323  0.32241  Biso   1.000  Cu
  Cu2      1.0000 0.33709  0.95323  0.32241  Biso   1.000  Cu
  Cu3      1.0000 0.83709  0.54677  0.82241  Biso   1.000  Cu
  Cu4      1.0000 0.33709  0.04677  0.82241  Biso   1.000  Cu
  Cu5      1.0000 0.16291  0.54677  0.67759  Biso   1.000  Cu
  Cu6      1.0000 0.66291  0.04677  0.67759  Biso   1.000  Cu
  Cu7      1.0000 0.16291  0.45323  0.17759  Biso   1.000  Cu
  Cu8      1.0000 0.66291  0.95323  0.17759  Biso   1.000  Cu
  O1       1.0000 0.72300  0.31840  0.27570  Biso   1.000  O
  O2       1.0000 0.22300  0.81840  0.27570  Biso   1.000  O
  O3       1.0000 0.72300  0.68160  0.77570  Biso   1.000  O
  O4       1.0000 0.22300  0.18160  0.77570  Biso   1.000  O
  O5       1.0000 0.27700  0.68160  0.72430  Biso   1.000  O
  O6       1.0000 0.77700  0.18160  0.72430  Biso   1.000  O
  O7       1.0000 0.27700  0.31840  0.22430  Biso   1.000  O
  O8       1.0000 0.77700  0.81840  0.22430  Biso   1.000  O
  O9       1.0000 0.70780  0.52900  0.29270  Biso   1.000  O
  O10      1.0000 0.20780  0.02900  0.29270  Biso   1.000  O
  O11      1.0000 0.70780  0.47100  0.79270  Biso   1.000  O
  O12      1.0000 0.20780  0.97100  0.79270  Biso   1.000  O
  O13      1.0000 0.29220  0.47100  0.70730  Biso   1.000  O
  O14      1.0000 0.79220  0.97100  0.70730  Biso   1.000  O
  O15      1.0000 0.29220  0.52900  0.20730  Biso   1.000  O
  O16      1.0000 0.79220  0.02900  0.20730  Biso   1.000  O
  H1       1.0000 0.69020  0.49850  0.31860  Biso   1.000  H
  H2       1.0000 0.19020  0.99850  0.31860  Biso   1.000  H
  H3       1.0000 0.69020  0.50150  0.81860  Biso   1.000  H
  H4       1.0000 0.19020  0.00150  0.81860  Biso   1.000  H
  H5       1.0000 0.30980  0.50150  0.68140  Biso   1.000  H
  H6       1.0000 0.80980  0.00150  0.68140  Biso   1.000  H
  H7       1.0000 0.30980  0.49850  0.18140  Biso   1.000  H
  H8       1.0000 0.80980  0.99850  0.18140  Biso   1.000  H
  N1       1.0000 0.89480  0.31880  0.35880  Biso   1.000  N
  N2       1.0000 0.39480  0.81880  0.35880  Biso   1.000  N
  N3       1.0000 0.89480  0.68120  0.85880  Biso   1.000  N
  N4       1.0000 0.39480  0.18120  0.85880  Biso   1.000  N
  N5       1.0000 0.10520  0.68120  0.64120  Biso   1.000  N
  N6       1.0000 0.60520  0.18120  0.64120  Biso   1.000  N
  N7       1.0000 0.10520  0.31880  0.14120  Biso   1.000  N
  N8       1.0000 0.60520  0.81880  0.14120  Biso   1.000  N
  N9       1.0000 0.89990  0.57730  0.32640  Biso   1.000  N
  N10      1.0000 0.39990  0.07730  0.32640  Biso   1.000  N
  N11      1.0000 0.89990  0.42270  0.82640  Biso   1.000  N
  N12      1.0000 0.39990  0.92270  0.82640  Biso   1.000  N
  N13      1.0000 0.10010  0.42270  0.67360  Biso   1.000  N
  N14      1.0000 0.60010  0.92270  0.67360  Biso   1.000  N
  N15      1.0000 0.10010  0.57730  0.17360  Biso   1.000  N
  N16      1.0000 0.60010  0.07730  0.17360  Biso   1.000  N
  N17      1.0000 0.83190  0.50870  0.94880  Biso   1.000  N
  N18      1.0000 0.33190  0.00870  0.94880  Biso   1.000  N
  N19      1.0000 0.83190  0.49130  0.44880  Biso   1.000  N
  N20      1.0000 0.33190  0.99130  0.44880  Biso   1.000  N
  N21      1.0000 0.16810  0.49130  0.05120  Biso   1.000  N
  N22      1.0000 0.66810  0.99130  0.05120  Biso   1.000  N
  N23      1.0000 0.16810  0.50870  0.55120  Biso   1.000  N
  N24      1.0000 0.66810  0.00870  0.55120  Biso   1.000  N
  B1       1.0000 0.87460  0.01150  0.57530  Biso   1.000  B
  B2       1.0000 0.37460  0.51150  0.57530  Biso   1.000  B
  B3       1.0000 0.87460  0.98850  0.07530  Biso   1.000  B
  B4       1.0000 0.37460  0.48850  0.07530  Biso   1.000  B
  B5       1.0000 0.12540  0.98850  0.42470  Biso   1.000  B
  B6       1.0000 0.62540  0.48850  0.42470  Biso   1.000  B
  B7       1.0000 0.12540  0.01150  0.92470  Biso   1.000  B
  B8       1.0000 0.62540  0.51150  0.92470  Biso   1.000  B
  F1       1.0000 0.91060  0.09570  0.59260  Biso   1.000  F
  F2       1.0000 0.41060  0.59570  0.59260  Biso   1.000  F
  F3       1.0000 0.91060  0.90430  0.09260  Biso   1.000  F
  F4       1.0000 0.41060  0.40430  0.09260  Biso   1.000  F
  F5       1.0000 0.08940  0.90430  0.40740  Biso   1.000  F
  F6       1.0000 0.58940  0.40430  0.40740  Biso   1.000  F
  F7       1.0000 0.08940  0.09570  0.90740  Biso   1.000  F
  F8       1.0000 0.58940  0.59570  0.90740  Biso   1.000  F
  F9       1.0000 0.83170  0.07300  0.55100  Biso   1.000  F
  F10      1.0000 0.33170  0.57300  0.55100  Biso   1.000  F
  F11      1.0000 0.83170  0.92700  0.05100  Biso   1.000  F
  F12      1.0000 0.33170  0.42700  0.05100  Biso   1.000  F
  F13      1.0000 0.16830  0.92700  0.44900  Biso   1.000  F
  F14      1.0000 0.66830  0.42700  0.44900  Biso   1.000  F
  F15      1.0000 0.16830  0.07300  0.94900  Biso   1.000  F
  F16      1.0000 0.66830  0.57300  0.94900  Biso   1.000  F
  F17      1.0000 0.87760  0.94320  0.64930  Biso   1.000  F
  F18      1.0000 0.37760  0.44320  0.64930  Biso   1.000  F
  F19      1.0000 0.87760  0.05680  0.14930  Biso   1.000  F
  F20      1.0000 0.37760  0.55680  0.14930  Biso   1.000  F
  F21      1.0000 0.12240  0.05680  0.35070  Biso   1.000  F
  F22      1.0000 0.62240  0.55680  0.35070  Biso   1.000  F
  F23      1.0000 0.12240  0.94320  0.85070  Biso   1.000  F
  F24      1.0000 0.62240  0.44320  0.85070  Biso   1.000  F
  F25      1.0000 0.86620  0.93650  0.49470  Biso   1.000  F
  F26      1.0000 0.36620  0.43650  0.49470  Biso   1.000  F
  F27      1.0000 0.86620  0.06350  0.99470  Biso   1.000  F
  F28      1.0000 0.36620  0.56350  0.99470  Biso   1.000  F
  F29      1.0000 0.13380  0.06350  0.50530  Biso   1.000  F
  F30      1.0000 0.63380  0.56350  0.50530  Biso   1.000  F
  F31      1.0000 0.13380  0.93650  0.00530  Biso   1.000  F
  F32      1.0000 0.63380  0.43650  0.00530  Biso   1.000  F
  C1       1.0000 0.89190  0.19240  0.37380  Biso   1.000  C
  C2       1.0000 0.39190  0.69240  0.37380  Biso   1.000  C
  C3       1.0000 0.89190  0.80760  0.87380  Biso   1.000  C
  C4       1.0000 0.39190  0.30760  0.87380  Biso   1.000  C
  C5       1.0000 0.10810  0.80760  0.62620  Biso   1.000  C
  C6       1.0000 0.60810  0.30760  0.62620  Biso   1.000  C
  C7       1.0000 0.10810  0.19240  0.12620  Biso   1.000  C
  C8       1.0000 0.60810  0.69240  0.12620  Biso   1.000  C
  H9       1.0000 0.86060  0.15940  0.36950  Biso   1.000  H
  H10      1.0000 0.36060  0.65940  0.36950  Biso   1.000  H
  H11      1.0000 0.86060  0.84060  0.86950  Biso   1.000  H
  H12      1.0000 0.36060  0.34060  0.86950  Biso   1.000  H
  H13      1.0000 0.13940  0.84060  0.63050  Biso   1.000  H
  H14      1.0000 0.63940  0.34060  0.63050  Biso   1.000  H
  H15      1.0000 0.13940  0.15940  0.13050  Biso   1.000  H
  H16      1.0000 0.63940  0.65940  0.13050  Biso   1.000  H
  C9       1.0000 0.93330  0.10680  0.39570  Biso   1.000  C
  C10      1.0000 0.43330  0.60680  0.39570  Biso   1.000  C
  C11      1.0000 0.93330  0.89320  0.89570  Biso   1.000  C
  C12      1.0000 0.43330  0.39320  0.89570  Biso   1.000  C
  C13      1.0000 0.06670  0.89320  0.60430  Biso   1.000  C
  C14      1.0000 0.56670  0.39320  0.60430  Biso   1.000  C
  C15      1.0000 0.06670  0.10680  0.10430  Biso   1.000  C
  C16      1.0000 0.56670  0.60680  0.10430  Biso   1.000  C
  H17      1.0000 0.92960  0.01880  0.40700  Biso   1.000  H
  H18      1.0000 0.42960  0.51880  0.40700  Biso   1.000  H
  H19      1.0000 0.92960  0.98120  0.90700  Biso   1.000  H
  H20      1.0000 0.42960  0.48120  0.90700  Biso   1.000  H
  H21      1.0000 0.07040  0.98120  0.59300  Biso   1.000  H
  H22      1.0000 0.57040  0.48120  0.59300  Biso   1.000  H
  H23      1.0000 0.07040  0.01880  0.09300  Biso   1.000  H
  H24      1.0000 0.57040  0.51880  0.09300  Biso   1.000  H
  C17      1.0000 0.97980  0.15190  0.40090  Biso   1.000  C
  C18      1.0000 0.47980  0.65190  0.40090  Biso   1.000  C
  C19      1.0000 0.97980  0.84810  0.90090  Biso   1.000  C
  C20      1.0000 0.47980  0.34810  0.90090  Biso   1.000  C
  C21      1.0000 0.02020  0.84810  0.59910  Biso   1.000  C
  C22      1.0000 0.52020  0.34810  0.59910  Biso   1.000  C
  C23      1.0000 0.02020  0.15190  0.09910  Biso   1.000  C
  C24      1.0000 0.52020  0.65190  0.09910  Biso   1.000  C
  H25      1.0000 0.00740  0.09460  0.41320  Biso   1.000  H
  H26      1.0000 0.50740  0.59460  0.41320  Biso   1.000  H
  H27      1.0000 0.00740  0.90540  0.91320  Biso   1.000  H
  H28      1.0000 0.50740  0.40540  0.91320  Biso   1.000  H
  H29      1.0000 0.99260  0.90540  0.58680  Biso   1.000  H
  H30      1.0000 0.49260  0.40540  0.58680  Biso   1.000  H
  H31      1.0000 0.99260  0.09460  0.08680  Biso   1.000  H
  H32      1.0000 0.49260  0.59460  0.08680  Biso   1.000  H
  C25      1.0000 0.98510  0.28650  0.38730  Biso   1.000  C
  C26      1.0000 0.48510  0.78650  0.38730  Biso   1.000  C
  C27      1.0000 0.98510  0.71350  0.88730  Biso   1.000  C
  C28      1.0000 0.48510  0.21350  0.88730  Biso   1.000  C
  C29      1.0000 0.01490  0.71350  0.61270  Biso   1.000  C
  C30      1.0000 0.51490  0.21350  0.61270  Biso   1.000  C
  C31      1.0000 0.01490  0.28650  0.11270  Biso   1.000  C
  C32      1.0000 0.51490  0.78650  0.11270  Biso   1.000  C
  C33      1.0000 0.03190  0.34410  0.39360  Biso   1.000  C
  C34      1.0000 0.53190  0.84410  0.39360  Biso   1.000  C
  C35      1.0000 0.03190  0.65590  0.89360  Biso   1.000  C
  C36      1.0000 0.53190  0.15590  0.89360  Biso   1.000  C
  C37      1.0000 0.96810  0.65590  0.60640  Biso   1.000  C
  C38      1.0000 0.46810  0.15590  0.60640  Biso   1.000  C
  C39      1.0000 0.96810  0.34410  0.10640  Biso   1.000  C
  C40      1.0000 0.46810  0.84410  0.10640  Biso   1.000  C
  H33      1.0000 0.06060  0.29120  0.40480  Biso   1.000  H
  H34      1.0000 0.56060  0.79120  0.40480  Biso   1.000  H
  H35      1.0000 0.06060  0.70880  0.90480  Biso   1.000  H
  H36      1.0000 0.56060  0.20880  0.90480  Biso   1.000  H
  H37      1.0000 0.93940  0.70880  0.59520  Biso   1.000  H
  H38      1.0000 0.43940  0.20880  0.59520  Biso   1.000  H
  H39      1.0000 0.93940  0.29120  0.09520  Biso   1.000  H
  H40      1.0000 0.43940  0.79120  0.09520  Biso   1.000  H
  C41      1.0000 0.03550  0.47500  0.38350  Biso   1.000  C
  C42      1.0000 0.53550  0.97500  0.38350  Biso   1.000  C
  C43      1.0000 0.03550  0.52500  0.88350  Biso   1.000  C
  C44      1.0000 0.53550  0.02500  0.88350  Biso   1.000  C
  C45      1.0000 0.96450  0.52500  0.61650  Biso   1.000  C
  C46      1.0000 0.46450  0.02500  0.61650  Biso   1.000  C
  C47      1.0000 0.96450  0.47500  0.11650  Biso   1.000  C
  C48      1.0000 0.46450  0.97500  0.11650  Biso   1.000  C
  H41      1.0000 0.06690  0.51040  0.38990  Biso   1.000  H
  H42      1.0000 0.56690  0.01040  0.38990  Biso   1.000  H
  H43      1.0000 0.06690  0.48960  0.88990  Biso   1.000  H
  H44      1.0000 0.56690  0.98960  0.88990  Biso   1.000  H
  H45      1.0000 0.93310  0.48960  0.61010  Biso   1.000  H
  H46      1.0000 0.43310  0.98960  0.61010  Biso   1.000  H
  H47      1.0000 0.93310  0.51040  0.11010  Biso   1.000  H
  H48      1.0000 0.43310  0.01040  0.11010  Biso   1.000  H
  C49      1.0000 0.99180  0.55960  0.36310  Biso   1.000  C
  C50      1.0000 0.49180  0.05960  0.36310  Biso   1.000  C
  C51      1.0000 0.99180  0.44040  0.86310  Biso   1.000  C
  C52      1.0000 0.49180  0.94040  0.86310  Biso   1.000  C
  C53      1.0000 0.00820  0.44040  0.63690  Biso   1.000  C
  C54      1.0000 0.50820  0.94040  0.63690  Biso   1.000  C
  C55      1.0000 0.00820  0.55960  0.13690  Biso   1.000  C
  C56      1.0000 0.50820  0.05960  0.13690  Biso   1.000  C
  C57      1.0000 0.99370  0.69460  0.35160  Biso   1.000  C
  C58      1.0000 0.49370  0.19460  0.35160  Biso   1.000  C
  C59      1.0000 0.99370  0.30540  0.85160  Biso   1.000  C
  C60      1.0000 0.49370  0.80540  0.85160  Biso   1.000  C
  C61      1.0000 0.00630  0.30540  0.64840  Biso   1.000  C
  C62      1.0000 0.50630  0.80540  0.64840  Biso   1.000  C
  C63      1.0000 0.00630  0.69460  0.14840  Biso   1.000  C
  C64      1.0000 0.50630  0.19460  0.14840  Biso   1.000  C
  H49      1.0000 0.02510  0.73510  0.36260  Biso   1.000  H
  H50      1.0000 0.52510  0.23510  0.36260  Biso   1.000  H
  H51      1.0000 0.02510  0.26490  0.86260  Biso   1.000  H
  H52      1.0000 0.52510  0.76490  0.86260  Biso   1.000  H
  H53      1.0000 0.97490  0.26490  0.63740  Biso   1.000  H
  H54      1.0000 0.47490  0.76490  0.63740  Biso   1.000  H
  H55      1.0000 0.97490  0.73510  0.13740  Biso   1.000  H
  H56      1.0000 0.47490  0.23510  0.13740  Biso   1.000  H
  C65      1.0000 0.94860  0.76680  0.32380  Biso   1.000  C
  C66      1.0000 0.44860  0.26680  0.32380  Biso   1.000  C
  C67      1.0000 0.94860  0.23320  0.82380  Biso   1.000  C
  C68      1.0000 0.44860  0.73320  0.82380  Biso   1.000  C
  C69      1.0000 0.05140  0.23320  0.67620  Biso   1.000  C
  C70      1.0000 0.55140  0.73320  0.67620  Biso   1.000  C
  C71      1.0000 0.05140  0.76680  0.17620  Biso   1.000  C
  C72      1.0000 0.55140  0.26680  0.17620  Biso   1.000  C
  H57      1.0000 0.94860  0.85610  0.31230  Biso   1.000  H
  H58      1.0000 0.44860  0.35610  0.31230  Biso   1.000  H
  H59      1.0000 0.94860  0.14390  0.81230  Biso   1.000  H
  H60      1.0000 0.44860  0.64390  0.81230  Biso   1.000  H
  H61      1.0000 0.05140  0.14390  0.68770  Biso   1.000  H
  H62      1.0000 0.55140  0.64390  0.68770  Biso   1.000  H
  H63      1.0000 0.05140  0.85610  0.18770  Biso   1.000  H
  H64      1.0000 0.55140  0.35610  0.18770  Biso   1.000  H
  C73      1.0000 0.90270  0.70440  0.31290  Biso   1.000  C
  C74      1.0000 0.40270  0.20440  0.31290  Biso   1.000  C
  C75      1.0000 0.90270  0.29560  0.81290  Biso   1.000  C
  C76      1.0000 0.40270  0.79560  0.81290  Biso   1.000  C
  C77      1.0000 0.09730  0.29560  0.68710  Biso   1.000  C
  C78      1.0000 0.59730  0.79560  0.68710  Biso   1.000  C
  C79      1.0000 0.09730  0.70440  0.18710  Biso   1.000  C
  C80      1.0000 0.59730  0.20440  0.18710  Biso   1.000  C
  H65      1.0000 0.87260  0.75470  0.29540  Biso   1.000  H
  H66      1.0000 0.37260  0.25470  0.29540  Biso   1.000  H
  H67      1.0000 0.87260  0.24530  0.79540  Biso   1.000  H
  H68      1.0000 0.37260  0.74530  0.79540  Biso   1.000  H
  H69      1.0000 0.12740  0.24530  0.70460  Biso   1.000  H
  H70      1.0000 0.62740  0.74530  0.70460  Biso   1.000  H
  H71      1.0000 0.12740  0.75470  0.20460  Biso   1.000  H
  H72      1.0000 0.62740  0.25470  0.20460  Biso   1.000  H
  C81      1.0000 0.94390  0.50430  0.35220  Biso   1.000  C
  C82      1.0000 0.44390  0.00430  0.35220  Biso   1.000  C
  C83      1.0000 0.94390  0.49570  0.85220  Biso   1.000  C
  C84      1.0000 0.44390  0.99570  0.85220  Biso   1.000  C
  C85      1.0000 0.05610  0.49570  0.64780  Biso   1.000  C
  C86      1.0000 0.55610  0.99570  0.64780  Biso   1.000  C
  C87      1.0000 0.05610  0.50430  0.14780  Biso   1.000  C
  C88      1.0000 0.55610  0.00430  0.14780  Biso   1.000  C
  C89      1.0000 0.94090  0.36630  0.36340  Biso   1.000  C
  C90      1.0000 0.44090  0.86630  0.36340  Biso   1.000  C
  C91      1.0000 0.94090  0.63370  0.86340  Biso   1.000  C
  C92      1.0000 0.44090  0.13370  0.86340  Biso   1.000  C
  C93      1.0000 0.05910  0.63370  0.63660  Biso   1.000  C
  C94      1.0000 0.55910  0.13370  0.63660  Biso   1.000  C
  C95      1.0000 0.05910  0.36630  0.13660  Biso   1.000  C
  C96      1.0000 0.55910  0.86630  0.13660  Biso   1.000  C
  C97      1.0000 0.72850  0.43320  0.26330  Biso   1.000  C
  C98      1.0000 0.22850  0.93320  0.26330  Biso   1.000  C
  C99      1.0000 0.72850  0.56680  0.76330  Biso   1.000  C
  C100     1.0000 0.22850  0.06680  0.76330  Biso   1.000  C
  C101     1.0000 0.27150  0.56680  0.73670  Biso   1.000  C
  C102     1.0000 0.77150  0.06680  0.73670  Biso   1.000  C
  C103     1.0000 0.27150  0.43320  0.23670  Biso   1.000  C
  C104     1.0000 0.77150  0.93320  0.23670  Biso   1.000  C
  C105     1.0000 0.76110  0.48480  0.21520  Biso   1.000  C
  C106     1.0000 0.26110  0.98480  0.21520  Biso   1.000  C
  C107     1.0000 0.76110  0.51520  0.71520  Biso   1.000  C
  C108     1.0000 0.26110  0.01520  0.71520  Biso   1.000  C
  C109     1.0000 0.23890  0.51520  0.78480  Biso   1.000  C
  C110     1.0000 0.73890  0.01520  0.78480  Biso   1.000  C
  C111     1.0000 0.23890  0.48480  0.28480  Biso   1.000  C
  C112     1.0000 0.73890  0.98480  0.28480  Biso   1.000  C
  H73      1.0000 0.75260  0.57280  0.18610  Biso   1.000  H
  H74      1.0000 0.25260  0.07280  0.18610  Biso   1.000  H
  H75      1.0000 0.75260  0.42720  0.68610  Biso   1.000  H
  H76      1.0000 0.25260  0.92720  0.68610  Biso   1.000  H
  H77      1.0000 0.24740  0.42720  0.81390  Biso   1.000  H
  H78      1.0000 0.74740  0.92720  0.81390  Biso   1.000  H
  H79      1.0000 0.24740  0.57280  0.31390  Biso   1.000  H
  H80      1.0000 0.74740  0.07280  0.31390  Biso   1.000  H
  C113     1.0000 0.78360  0.40220  0.17420  Biso   1.000  C
  C114     1.0000 0.28360  0.90220  0.17420  Biso   1.000  C
  C115     1.0000 0.78360  0.59780  0.67420  Biso   1.000  C
  C116     1.0000 0.28360  0.09780  0.67420  Biso   1.000  C
  C117     1.0000 0.21640  0.59780  0.82580  Biso   1.000  C
  C118     1.0000 0.71640  0.09780  0.82580  Biso   1.000  C
  C119     1.0000 0.21640  0.40220  0.32580  Biso   1.000  C
  C120     1.0000 0.71640  0.90220  0.32580  Biso   1.000  C
  H81      1.0000 0.77080  0.31200  0.16720  Biso   1.000  H
  H82      1.0000 0.27080  0.81200  0.16720  Biso   1.000  H
  H83      1.0000 0.77080  0.68800  0.66720  Biso   1.000  H
  H84      1.0000 0.27080  0.18800  0.66720  Biso   1.000  H
  H85      1.0000 0.22920  0.68800  0.83280  Biso   1.000  H
  H86      1.0000 0.72920  0.18800  0.83280  Biso   1.000  H
  H87      1.0000 0.22920  0.31200  0.33280  Biso   1.000  H
  H88      1.0000 0.72920  0.81200  0.33280  Biso   1.000  H
  C121     1.0000 0.80230  0.43840  0.10080  Biso   1.000  C
  C122     1.0000 0.30230  0.93840  0.10080  Biso   1.000  C
  C123     1.0000 0.80230  0.56160  0.60080  Biso   1.000  C
  C124     1.0000 0.30230  0.06160  0.60080  Biso   1.000  C
  C125     1.0000 0.19770  0.56160  0.89920  Biso   1.000  C
  C126     1.0000 0.69770  0.06160  0.89920  Biso   1.000  C
  C127     1.0000 0.19770  0.43840  0.39920  Biso   1.000  C
  C128     1.0000 0.69770  0.93840  0.39920  Biso   1.000  C
  C129     1.0000 0.81380  0.34300  0.04790  Biso   1.000  C
  C130     1.0000 0.31380  0.84300  0.04790  Biso   1.000  C
  C131     1.0000 0.81380  0.65700  0.54790  Biso   1.000  C
  C132     1.0000 0.31380  0.15700  0.54790  Biso   1.000  C
  C133     1.0000 0.18620  0.65700  0.95210  Biso   1.000  C
  C134     1.0000 0.68620  0.15700  0.95210  Biso   1.000  C
  C135     1.0000 0.18620  0.34300  0.45210  Biso   1.000  C
  C136     1.0000 0.68620  0.84300  0.45210  Biso   1.000  C
  H89      1.0000 0.81230  0.25530  0.06290  Biso   1.000  H
  H90      1.0000 0.31230  0.75530  0.06290  Biso   1.000  H
  H91      1.0000 0.81230  0.74470  0.56290  Biso   1.000  H
  H92      1.0000 0.31230  0.24470  0.56290  Biso   1.000  H
  H93      1.0000 0.18770  0.74470  0.93710  Biso   1.000  H
  H94      1.0000 0.68770  0.24470  0.93710  Biso   1.000  H
  H95      1.0000 0.18770  0.25530  0.43710  Biso   1.000  H
  H96      1.0000 0.68770  0.75530  0.43710  Biso   1.000  H
  C137     1.0000 0.82750  0.37680  0.97330  Biso   1.000  C
  C138     1.0000 0.32750  0.87680  0.97330  Biso   1.000  C
  C139     1.0000 0.82750  0.62320  0.47330  Biso   1.000  C
  C140     1.0000 0.32750  0.12320  0.47330  Biso   1.000  C
  C141     1.0000 0.17250  0.62320  0.02670  Biso   1.000  C
  C142     1.0000 0.67250  0.12320  0.02670  Biso   1.000  C
  C143     1.0000 0.17250  0.37680  0.52670  Biso   1.000  C
  C144     1.0000 0.67250  0.87680  0.52670  Biso   1.000  C
  H97      1.0000 0.83420  0.31070  0.93750  Biso   1.000  H
  H98      1.0000 0.33420  0.81070  0.93750  Biso   1.000  H
  H99      1.0000 0.83420  0.68930  0.43750  Biso   1.000  H
  H100     1.0000 0.33420  0.18930  0.43750  Biso   1.000  H
  H101     1.0000 0.16580  0.68930  0.06250  Biso   1.000  H
  H102     1.0000 0.66580  0.18930  0.06250  Biso   1.000  H
  H103     1.0000 0.16580  0.31070  0.56250  Biso   1.000  H
  H104     1.0000 0.66580  0.81070  0.56250  Biso   1.000  H
  C145     1.0000 0.82030  0.59450  0.99930  Biso   1.000  C
  C146     1.0000 0.32030  0.09450  0.99930  Biso   1.000  C
  C147     1.0000 0.82030  0.40550  0.49930  Biso   1.000  C
  C148     1.0000 0.32030  0.90550  0.49930  Biso   1.000  C
  C149     1.0000 0.17970  0.40550  0.00070  Biso   1.000  C
  C150     1.0000 0.67970  0.90550  0.00070  Biso   1.000  C
  C151     1.0000 0.17970  0.59450  0.50070  Biso   1.000  C
  C152     1.0000 0.67970  0.09450  0.50070  Biso   1.000  C
  H105     1.0000 0.82150  0.68190  0.98340  Biso   1.000  H
  H106     1.0000 0.32150  0.18190  0.98340  Biso   1.000  H
  H107     1.0000 0.82150  0.31810  0.48340  Biso   1.000  H
  H108     1.0000 0.32150  0.81810  0.48340  Biso   1.000  H
  H109     1.0000 0.17850  0.31810  0.01660  Biso   1.000  H
  H110     1.0000 0.67850  0.81810  0.01660  Biso   1.000  H
  H111     1.0000 0.17850  0.68190  0.51660  Biso   1.000  H
  H112     1.0000 0.67850  0.18190  0.51660  Biso   1.000  H
  C153     1.0000 0.80620  0.56750  0.07510  Biso   1.000  C
  C154     1.0000 0.30620  0.06750  0.07510  Biso   1.000  C
  C155     1.0000 0.80620  0.43250  0.57510  Biso   1.000  C
  C156     1.0000 0.30620  0.93250  0.57510  Biso   1.000  C
  C157     1.0000 0.19380  0.43250  0.92490  Biso   1.000  C
  C158     1.0000 0.69380  0.93250  0.92490  Biso   1.000  C
  C159     1.0000 0.19380  0.56750  0.42490  Biso   1.000  C
  C160     1.0000 0.69380  0.06750  0.42490  Biso   1.000  C
  H113     1.0000 0.79930  0.63560  0.10890  Biso   1.000  H
  H114     1.0000 0.29930  0.13560  0.10890  Biso   1.000  H
  H115     1.0000 0.79930  0.36440  0.60890  Biso   1.000  H
  H116     1.0000 0.29930  0.86440  0.60890  Biso   1.000  H
  H117     1.0000 0.20070  0.36440  0.89110  Biso   1.000  H
  H118     1.0000 0.70070  0.86440  0.89110  Biso   1.000  H
  H119     1.0000 0.20070  0.63560  0.39110  Biso   1.000  H
  H120     1.0000 0.70070  0.13560  0.39110  Biso   1.000  H
