data_image0
_cell_length_a       7.005
_cell_length_b       19.8147
_cell_length_c       27.205
_cell_angle_alpha    90
_cell_angle_beta     90
_cell_angle_gamma    90

_symmetry_space_group_name_H-M    "P 1"
_symmetry_int_tables_number       1

loop_
  _symmetry_equiv_pos_as_xyz
  'x, y, z'

loop_
  _atom_site_label
  _atom_site_occupancy
  _atom_site_fract_x
  _atom_site_fract_y
  _atom_site_fract_z
  _atom_site_thermal_displace_type
  _atom_site_B_iso_or_equiv
  _atom_site_type_symbol
  Cu1      1.0000 0.41607  0.04353  0.61648  Biso   1.000  Cu
  Cu2      1.0000 0.91607  0.04353  0.88352  Biso   1.000  Cu
  Cu3      1.0000 0.41607  0.45647  0.11648  Biso   1.000  Cu
  Cu4      1.0000 0.08393  0.54353  0.61648  Biso   1.000  Cu
  Cu5      1.0000 0.58393  0.95647  0.38352  Biso   1.000  Cu
  Cu6      1.0000 0.08393  0.95647  0.11648  Biso   1.000  Cu
  Cu7      1.0000 0.58393  0.54353  0.88352  Biso   1.000  Cu
  Cu8      1.0000 0.91607  0.45647  0.38352  Biso   1.000  Cu
  O1       1.0000 0.58840  0.10110  0.50276  Biso   1.000  O
  O2       1.0000 0.08840  0.10110  0.99724  Biso   1.000  O
  O3       1.0000 0.58840  0.39890  0.00276  Biso   1.000  O
  O4       1.0000 0.91160  0.60110  0.50276  Biso   1.000  O
  O5       1.0000 0.41160  0.89890  0.49724  Biso   1.000  O
  O6       1.0000 0.91160  0.89890  0.00276  Biso   1.000  O
  O7       1.0000 0.41160  0.60110  0.99724  Biso   1.000  O
  O8       1.0000 0.08840  0.39890  0.49724  Biso   1.000  O
  H1       1.0000 0.66520  0.13220  0.50060  Biso   1.000  H
  H2       1.0000 0.16520  0.13220  0.99940  Biso   1.000  H
  H3       1.0000 0.66520  0.36780  0.00060  Biso   1.000  H
  H4       1.0000 0.83480  0.63220  0.50060  Biso   1.000  H
  H5       1.0000 0.33480  0.86780  0.49940  Biso   1.000  H
  H6       1.0000 0.83480  0.86780  0.00060  Biso   1.000  H
  H7       1.0000 0.33480  0.63220  0.99940  Biso   1.000  H
  H8       1.0000 0.16520  0.36780  0.49940  Biso   1.000  H
  O9       1.0000 0.42240  0.17590  0.54619  Biso   1.000  O
  O10      1.0000 0.92240  0.17590  0.95381  Biso   1.000  O
  O11      1.0000 0.42240  0.32410  0.04619  Biso   1.000  O
  O12      1.0000 0.07760  0.67590  0.54619  Biso   1.000  O
  O13      1.0000 0.57760  0.82410  0.45381  Biso   1.000  O
  O14      1.0000 0.07760  0.82410  0.04619  Biso   1.000  O
  O15      1.0000 0.57760  0.67590  0.95381  Biso   1.000  O
  O16      1.0000 0.92240  0.32410  0.45381  Biso   1.000  O
  N1       1.0000 0.34040  0.99394  0.68014  Biso   1.000  N
  N2       1.0000 0.84040  0.99394  0.81986  Biso   1.000  N
  N3       1.0000 0.34040  0.50606  0.18014  Biso   1.000  N
  N4       1.0000 0.15960  0.49394  0.68014  Biso   1.000  N
  N5       1.0000 0.65960  0.00606  0.31986  Biso   1.000  N
  N6       1.0000 0.15960  0.00606  0.18014  Biso   1.000  N
  N7       1.0000 0.65960  0.49394  0.81986  Biso   1.000  N
  N8       1.0000 0.84040  0.50606  0.31986  Biso   1.000  N
  N9       1.0000 0.45260  0.12109  0.66926  Biso   1.000  N
  N10      1.0000 0.95260  0.12109  0.83074  Biso   1.000  N
  N11      1.0000 0.45260  0.37891  0.16926  Biso   1.000  N
  N12      1.0000 0.04740  0.62109  0.66926  Biso   1.000  N
  N13      1.0000 0.54740  0.87891  0.33074  Biso   1.000  N
  N14      1.0000 0.04740  0.87891  0.16926  Biso   1.000  N
  N15      1.0000 0.54740  0.62109  0.83074  Biso   1.000  N
  N16      1.0000 0.95260  0.37891  0.33074  Biso   1.000  N
  N17      1.0000 0.67990  0.00686  0.60195  Biso   1.000  N
  N18      1.0000 0.17990  0.00686  0.89805  Biso   1.000  N
  N19      1.0000 0.67990  0.49314  0.10195  Biso   1.000  N
  N20      1.0000 0.82010  0.50686  0.60195  Biso   1.000  N
  N21      1.0000 0.32010  0.99314  0.39805  Biso   1.000  N
  N22      1.0000 0.82010  0.99314  0.10195  Biso   1.000  N
  N23      1.0000 0.32010  0.50686  0.89805  Biso   1.000  N
  N24      1.0000 0.17990  0.49314  0.39805  Biso   1.000  N
  C1       1.0000 0.29570  0.92790  0.68370  Biso   1.000  C
  C2       1.0000 0.79570  0.92790  0.81630  Biso   1.000  C
  C3       1.0000 0.29570  0.57210  0.18370  Biso   1.000  C
  C4       1.0000 0.20430  0.42790  0.68370  Biso   1.000  C
  C5       1.0000 0.70430  0.07210  0.31630  Biso   1.000  C
  C6       1.0000 0.20430  0.07210  0.18370  Biso   1.000  C
  C7       1.0000 0.70430  0.42790  0.81630  Biso   1.000  C
  C8       1.0000 0.79570  0.57210  0.31630  Biso   1.000  C
  H9       1.0000 0.28210  0.90290  0.65490  Biso   1.000  H
  H10      1.0000 0.78210  0.90290  0.84510  Biso   1.000  H
  H11      1.0000 0.28210  0.59710  0.15490  Biso   1.000  H
  H12      1.0000 0.21790  0.40290  0.65490  Biso   1.000  H
  H13      1.0000 0.71790  0.09710  0.34510  Biso   1.000  H
  H14      1.0000 0.21790  0.09710  0.15490  Biso   1.000  H
  H15      1.0000 0.71790  0.40290  0.84510  Biso   1.000  H
  H16      1.0000 0.78210  0.59710  0.34510  Biso   1.000  H
  C9       1.0000 0.26940  0.89590  0.72789  Biso   1.000  C
  C10      1.0000 0.76940  0.89590  0.77211  Biso   1.000  C
  C11      1.0000 0.26940  0.60410  0.22789  Biso   1.000  C
  C12      1.0000 0.23060  0.39590  0.72789  Biso   1.000  C
  C13      1.0000 0.73060  0.10410  0.27211  Biso   1.000  C
  C14      1.0000 0.23060  0.10410  0.22789  Biso   1.000  C
  C15      1.0000 0.73060  0.39590  0.77211  Biso   1.000  C
  C16      1.0000 0.76940  0.60410  0.27211  Biso   1.000  C
  H17      1.0000 0.24050  0.84850  0.72910  Biso   1.000  H
  H18      1.0000 0.74050  0.84850  0.77090  Biso   1.000  H
  H19      1.0000 0.24050  0.65150  0.22910  Biso   1.000  H
  H20      1.0000 0.25950  0.34850  0.72910  Biso   1.000  H
  H21      1.0000 0.75950  0.15150  0.27090  Biso   1.000  H
  H22      1.0000 0.25950  0.15150  0.22910  Biso   1.000  H
  H23      1.0000 0.75950  0.34850  0.77090  Biso   1.000  H
  H24      1.0000 0.74050  0.65150  0.27090  Biso   1.000  H
  C17      1.0000 0.28640  0.93240  0.77050  Biso   1.000  C
  C18      1.0000 0.78640  0.93240  0.72950  Biso   1.000  C
  C19      1.0000 0.28640  0.56760  0.27050  Biso   1.000  C
  C20      1.0000 0.21360  0.43240  0.77050  Biso   1.000  C
  C21      1.0000 0.71360  0.06760  0.22950  Biso   1.000  C
  C22      1.0000 0.21360  0.06760  0.27050  Biso   1.000  C
  C23      1.0000 0.71360  0.43240  0.72950  Biso   1.000  C
  C24      1.0000 0.78640  0.56760  0.22950  Biso   1.000  C
  H25      1.0000 0.26490  0.91130  0.80180  Biso   1.000  H
  H26      1.0000 0.76490  0.91130  0.69820  Biso   1.000  H
  H27      1.0000 0.26490  0.58870  0.30180  Biso   1.000  H
  H28      1.0000 0.23510  0.41130  0.80180  Biso   1.000  H
  H29      1.0000 0.73510  0.08870  0.19820  Biso   1.000  H
  H30      1.0000 0.23510  0.08870  0.30180  Biso   1.000  H
  H31      1.0000 0.73510  0.41130  0.69820  Biso   1.000  H
  H32      1.0000 0.76490  0.58870  0.19820  Biso   1.000  H
  C25      1.0000 0.33360  0.00000  0.76765  Biso   1.000  C
  C26      1.0000 0.83360  0.00000  0.73235  Biso   1.000  C
  C27      1.0000 0.33360  0.50000  0.26765  Biso   1.000  C
  C28      1.0000 0.16640  0.50000  0.76765  Biso   1.000  C
  C29      1.0000 0.66640  0.00000  0.23235  Biso   1.000  C
  C30      1.0000 0.16640  0.00000  0.26765  Biso   1.000  C
  C31      1.0000 0.66640  0.50000  0.73235  Biso   1.000  C
  C32      1.0000 0.83360  0.50000  0.23235  Biso   1.000  C
  H33      1.0000 0.34850  0.02650  0.79690  Biso   1.000  H
  H34      1.0000 0.84850  0.02650  0.70310  Biso   1.000  H
  H35      1.0000 0.34850  0.47350  0.29690  Biso   1.000  H
  H36      1.0000 0.15150  0.52650  0.79690  Biso   1.000  H
  H37      1.0000 0.65150  0.97350  0.20310  Biso   1.000  H
  H38      1.0000 0.15150  0.97350  0.29690  Biso   1.000  H
  H39      1.0000 0.65150  0.52650  0.70310  Biso   1.000  H
  H40      1.0000 0.84850  0.47350  0.20310  Biso   1.000  H
  C33      1.0000 0.36060  0.02980  0.72192  Biso   1.000  C
  C34      1.0000 0.86060  0.02980  0.77808  Biso   1.000  C
  C35      1.0000 0.36060  0.47020  0.22192  Biso   1.000  C
  C36      1.0000 0.13940  0.52980  0.72192  Biso   1.000  C
  C37      1.0000 0.63940  0.97020  0.27808  Biso   1.000  C
  C38      1.0000 0.13940  0.97020  0.22192  Biso   1.000  C
  C39      1.0000 0.63940  0.52980  0.77808  Biso   1.000  C
  C40      1.0000 0.86060  0.47020  0.27808  Biso   1.000  C
  C41      1.0000 0.41630  0.10140  0.71593  Biso   1.000  C
  C42      1.0000 0.91630  0.10140  0.78407  Biso   1.000  C
  C43      1.0000 0.41630  0.39860  0.21593  Biso   1.000  C
  C44      1.0000 0.08370  0.60140  0.71593  Biso   1.000  C
  C45      1.0000 0.58370  0.89860  0.28407  Biso   1.000  C
  C46      1.0000 0.08370  0.89860  0.21593  Biso   1.000  C
  C47      1.0000 0.58370  0.60140  0.78407  Biso   1.000  C
  C48      1.0000 0.91630  0.39860  0.28407  Biso   1.000  C
  C49      1.0000 0.42770  0.14650  0.75466  Biso   1.000  C
  C50      1.0000 0.92770  0.14650  0.74534  Biso   1.000  C
  C51      1.0000 0.42770  0.35350  0.25466  Biso   1.000  C
  C52      1.0000 0.07230  0.64650  0.75466  Biso   1.000  C
  C53      1.0000 0.57230  0.85350  0.24534  Biso   1.000  C
  C54      1.0000 0.07230  0.85350  0.25466  Biso   1.000  C
  C55      1.0000 0.57230  0.64650  0.74534  Biso   1.000  C
  C56      1.0000 0.92770  0.35350  0.24534  Biso   1.000  C
  H41      1.0000 0.40040  0.13170  0.78750  Biso   1.000  H
  H42      1.0000 0.90040  0.13170  0.71250  Biso   1.000  H
  H43      1.0000 0.40040  0.36830  0.28750  Biso   1.000  H
  H44      1.0000 0.09960  0.63170  0.78750  Biso   1.000  H
  H45      1.0000 0.59960  0.86830  0.21250  Biso   1.000  H
  H46      1.0000 0.09960  0.86830  0.28750  Biso   1.000  H
  H47      1.0000 0.59960  0.63170  0.71250  Biso   1.000  H
  H48      1.0000 0.90040  0.36830  0.21250  Biso   1.000  H
  C57      1.0000 0.47870  0.21180  0.74555  Biso   1.000  C
  C58      1.0000 0.97870  0.21180  0.75445  Biso   1.000  C
  C59      1.0000 0.47870  0.28820  0.24555  Biso   1.000  C
  C60      1.0000 0.02130  0.71180  0.74555  Biso   1.000  C
  C61      1.0000 0.52130  0.78820  0.25445  Biso   1.000  C
  C62      1.0000 0.02130  0.78820  0.24555  Biso   1.000  C
  C63      1.0000 0.52130  0.71180  0.75445  Biso   1.000  C
  C64      1.0000 0.97870  0.28820  0.25445  Biso   1.000  C
  H49      1.0000 0.48910  0.24350  0.77210  Biso   1.000  H
  H50      1.0000 0.98910  0.24350  0.72790  Biso   1.000  H
  H51      1.0000 0.48910  0.25650  0.27210  Biso   1.000  H
  H52      1.0000 0.01090  0.74350  0.77210  Biso   1.000  H
  H53      1.0000 0.51090  0.75650  0.22790  Biso   1.000  H
  H54      1.0000 0.01090  0.75650  0.27210  Biso   1.000  H
  H55      1.0000 0.51090  0.74350  0.72790  Biso   1.000  H
  H56      1.0000 0.98910  0.25650  0.22790  Biso   1.000  H
  C65      1.0000 0.51600  0.23240  0.69830  Biso   1.000  C
  C66      1.0000 0.01600  0.23240  0.80170  Biso   1.000  C
  C67      1.0000 0.51600  0.26760  0.19830  Biso   1.000  C
  C68      1.0000 0.98400  0.73240  0.69830  Biso   1.000  C
  C69      1.0000 0.48400  0.76760  0.30170  Biso   1.000  C
  C70      1.0000 0.98400  0.76760  0.19830  Biso   1.000  C
  C71      1.0000 0.48400  0.73240  0.80170  Biso   1.000  C
  C72      1.0000 0.01600  0.26760  0.30170  Biso   1.000  C
  H57      1.0000 0.55140  0.27830  0.69150  Biso   1.000  H
  H58      1.0000 0.05140  0.27830  0.80850  Biso   1.000  H
  H59      1.0000 0.55140  0.22170  0.19150  Biso   1.000  H
  H60      1.0000 0.94860  0.77830  0.69150  Biso   1.000  H
  H61      1.0000 0.44860  0.72170  0.30850  Biso   1.000  H
  H62      1.0000 0.94860  0.72170  0.19150  Biso   1.000  H
  H63      1.0000 0.44860  0.77830  0.80850  Biso   1.000  H
  H64      1.0000 0.05140  0.22170  0.30850  Biso   1.000  H
  C73      1.0000 0.50320  0.18510  0.66103  Biso   1.000  C
  C74      1.0000 0.00320  0.18510  0.83897  Biso   1.000  C
  C75      1.0000 0.50320  0.31490  0.16103  Biso   1.000  C
  C76      1.0000 0.99680  0.68510  0.66103  Biso   1.000  C
  C77      1.0000 0.49680  0.81490  0.33897  Biso   1.000  C
  C78      1.0000 0.99680  0.81490  0.16103  Biso   1.000  C
  C79      1.0000 0.49680  0.68510  0.83897  Biso   1.000  C
  C80      1.0000 0.00320  0.31490  0.33897  Biso   1.000  C
  H65      1.0000 0.52970  0.19920  0.62800  Biso   1.000  H
  H66      1.0000 0.02970  0.19920  0.87200  Biso   1.000  H
  H67      1.0000 0.52970  0.30080  0.12800  Biso   1.000  H
  H68      1.0000 0.97030  0.69920  0.62800  Biso   1.000  H
  H69      1.0000 0.47030  0.80080  0.37200  Biso   1.000  H
  H70      1.0000 0.97030  0.80080  0.12800  Biso   1.000  H
  H71      1.0000 0.47030  0.69920  0.87200  Biso   1.000  H
  H72      1.0000 0.02970  0.30080  0.37200  Biso   1.000  H
  C81      1.0000 0.69820  0.94134  0.59106  Biso   1.000  C
  C82      1.0000 0.19820  0.94134  0.90894  Biso   1.000  C
  C83      1.0000 0.69820  0.55866  0.09106  Biso   1.000  C
  C84      1.0000 0.80180  0.44134  0.59106  Biso   1.000  C
  C85      1.0000 0.30180  0.05866  0.40894  Biso   1.000  C
  C86      1.0000 0.80180  0.05866  0.09106  Biso   1.000  C
  C87      1.0000 0.30180  0.44134  0.90894  Biso   1.000  C
  C88      1.0000 0.19820  0.55866  0.40894  Biso   1.000  C
  H73      1.0000 0.58830  0.91270  0.59420  Biso   1.000  H
  H74      1.0000 0.08830  0.91270  0.90580  Biso   1.000  H
  H75      1.0000 0.58830  0.58730  0.09420  Biso   1.000  H
  H76      1.0000 0.91170  0.41270  0.59420  Biso   1.000  H
  H77      1.0000 0.41170  0.08730  0.40580  Biso   1.000  H
  H78      1.0000 0.91170  0.08730  0.09420  Biso   1.000  H
  H79      1.0000 0.41170  0.41270  0.90580  Biso   1.000  H
  H80      1.0000 0.08830  0.58730  0.40580  Biso   1.000  H
  C89      1.0000 0.86730  0.91390  0.57603  Biso   1.000  C
  C90      1.0000 0.36730  0.91390  0.92397  Biso   1.000  C
  C91      1.0000 0.86730  0.58610  0.07603  Biso   1.000  C
  C92      1.0000 0.63270  0.41390  0.57603  Biso   1.000  C
  C93      1.0000 0.13270  0.08610  0.42397  Biso   1.000  C
  C94      1.0000 0.63270  0.08610  0.07603  Biso   1.000  C
  C95      1.0000 0.13270  0.41390  0.92397  Biso   1.000  C
  C96      1.0000 0.36730  0.58610  0.42397  Biso   1.000  C
  H81      1.0000 0.87500  0.86670  0.56850  Biso   1.000  H
  H82      1.0000 0.37500  0.86670  0.93150  Biso   1.000  H
  H83      1.0000 0.87500  0.63330  0.06850  Biso   1.000  H
  H84      1.0000 0.62500  0.36670  0.56850  Biso   1.000  H
  H85      1.0000 0.12500  0.13330  0.43150  Biso   1.000  H
  H86      1.0000 0.62500  0.13330  0.06850  Biso   1.000  H
  H87      1.0000 0.12500  0.36670  0.93150  Biso   1.000  H
  H88      1.0000 0.37500  0.63330  0.43150  Biso   1.000  H
  C97      1.0000 0.02510  0.95430  0.57096  Biso   1.000  C
  C98      1.0000 0.52510  0.95430  0.92904  Biso   1.000  C
  C99      1.0000 0.02510  0.54570  0.07096  Biso   1.000  C
  C100     1.0000 0.47490  0.45430  0.57096  Biso   1.000  C
  C101     1.0000 0.97490  0.04570  0.42904  Biso   1.000  C
  C102     1.0000 0.47490  0.04570  0.07096  Biso   1.000  C
  C103     1.0000 0.97490  0.45430  0.92904  Biso   1.000  C
  C104     1.0000 0.52510  0.54570  0.42904  Biso   1.000  C
  H89      1.0000 0.14430  0.93540  0.56040  Biso   1.000  H
  H90      1.0000 0.64430  0.93540  0.93960  Biso   1.000  H
  H91      1.0000 0.14430  0.56460  0.06040  Biso   1.000  H
  H92      1.0000 0.35570  0.43540  0.56040  Biso   1.000  H
  H93      1.0000 0.85570  0.06460  0.43960  Biso   1.000  H
  H94      1.0000 0.35570  0.06460  0.06040  Biso   1.000  H
  H95      1.0000 0.85570  0.43540  0.93960  Biso   1.000  H
  H96      1.0000 0.64430  0.56460  0.43960  Biso   1.000  H
  C105     1.0000 0.01220  0.02268  0.58181  Biso   1.000  C
  C106     1.0000 0.51220  0.02268  0.91819  Biso   1.000  C
  C107     1.0000 0.01220  0.47732  0.08181  Biso   1.000  C
  C108     1.0000 0.48780  0.52268  0.58181  Biso   1.000  C
  C109     1.0000 0.98780  0.97732  0.41819  Biso   1.000  C
  C110     1.0000 0.48780  0.97732  0.08181  Biso   1.000  C
  C111     1.0000 0.98780  0.52268  0.91819  Biso   1.000  C
  C112     1.0000 0.51220  0.47732  0.41819  Biso   1.000  C
  C113     1.0000 0.83410  0.04620  0.59742  Biso   1.000  C
  C114     1.0000 0.33410  0.04620  0.90258  Biso   1.000  C
  C115     1.0000 0.83410  0.45380  0.09742  Biso   1.000  C
  C116     1.0000 0.66590  0.54620  0.59742  Biso   1.000  C
  C117     1.0000 0.16590  0.95380  0.40258  Biso   1.000  C
  C118     1.0000 0.66590  0.95380  0.09742  Biso   1.000  C
  C119     1.0000 0.16590  0.54620  0.90258  Biso   1.000  C
  C120     1.0000 0.33410  0.45380  0.40258  Biso   1.000  C
  H97      1.0000 0.82180  0.09320  0.60550  Biso   1.000  H
  H98      1.0000 0.32180  0.09320  0.89450  Biso   1.000  H
  H99      1.0000 0.82180  0.40680  0.10550  Biso   1.000  H
  H100     1.0000 0.67820  0.59320  0.60550  Biso   1.000  H
  H101     1.0000 0.17820  0.90680  0.39450  Biso   1.000  H
  H102     1.0000 0.67820  0.90680  0.10550  Biso   1.000  H
  H103     1.0000 0.17820  0.59320  0.89450  Biso   1.000  H
  H104     1.0000 0.32180  0.40680  0.39450  Biso   1.000  H
  C121     1.0000 0.32570  0.06118  0.54608  Biso   1.000  C
  C122     1.0000 0.82570  0.06118  0.95392  Biso   1.000  C
  C123     1.0000 0.32570  0.43882  0.04608  Biso   1.000  C
  C124     1.0000 0.17430  0.56118  0.54608  Biso   1.000  C
  C125     1.0000 0.67430  0.93882  0.45392  Biso   1.000  C
  C126     1.0000 0.17430  0.93882  0.04608  Biso   1.000  C
  C127     1.0000 0.67430  0.56118  0.95392  Biso   1.000  C
  C128     1.0000 0.82570  0.43882  0.45392  Biso   1.000  C
  H105     1.0000 0.32080  0.02350  0.52400  Biso   1.000  H
  H106     1.0000 0.82080  0.02350  0.97600  Biso   1.000  H
  H107     1.0000 0.32080  0.47650  0.02400  Biso   1.000  H
  H108     1.0000 0.17920  0.52350  0.52400  Biso   1.000  H
  H109     1.0000 0.67920  0.97650  0.47600  Biso   1.000  H
  H110     1.0000 0.17920  0.97650  0.02400  Biso   1.000  H
  H111     1.0000 0.67920  0.52350  0.97600  Biso   1.000  H
  H112     1.0000 0.82080  0.47650  0.47600  Biso   1.000  H
  C129     1.0000 0.44700  0.11900  0.53187  Biso   1.000  C
  C130     1.0000 0.94700  0.11900  0.96813  Biso   1.000  C
  C131     1.0000 0.44700  0.38100  0.03187  Biso   1.000  C
  C132     1.0000 0.05300  0.61900  0.53187  Biso   1.000  C
  C133     1.0000 0.55300  0.88100  0.46813  Biso   1.000  C
  C134     1.0000 0.05300  0.88100  0.03187  Biso   1.000  C
  C135     1.0000 0.55300  0.61900  0.96813  Biso   1.000  C
  C136     1.0000 0.94700  0.38100  0.46813  Biso   1.000  C
  C137     1.0000 0.16940  0.07138  0.57560  Biso   1.000  C
  C138     1.0000 0.66940  0.07138  0.92440  Biso   1.000  C
  C139     1.0000 0.16940  0.42862  0.07560  Biso   1.000  C
  C140     1.0000 0.33060  0.57138  0.57560  Biso   1.000  C
  C141     1.0000 0.83060  0.92862  0.42440  Biso   1.000  C
  C142     1.0000 0.33060  0.92862  0.07560  Biso   1.000  C
  C143     1.0000 0.83060  0.57138  0.92440  Biso   1.000  C
  C144     1.0000 0.66940  0.42862  0.42440  Biso   1.000  C
  H113     1.0000 0.16220  0.11180  0.59290  Biso   1.000  H
  H114     1.0000 0.66220  0.11180  0.90710  Biso   1.000  H
  H115     1.0000 0.16220  0.38820  0.09290  Biso   1.000  H
  H116     1.0000 0.33780  0.61180  0.59290  Biso   1.000  H
  H117     1.0000 0.83780  0.88820  0.40710  Biso   1.000  H
  H118     1.0000 0.33780  0.88820  0.09290  Biso   1.000  H
  H119     1.0000 0.83780  0.61180  0.90710  Biso   1.000  H
  H120     1.0000 0.66220  0.38820  0.40710  Biso   1.000  H
  F1       1.0000 0.39700  0.19224  0.34625  Biso   1.000  F
  F2       1.0000 0.89700  0.19224  0.15375  Biso   1.000  F
  F3       1.0000 0.39700  0.30776  0.84625  Biso   1.000  F
  F4       1.0000 0.10300  0.69224  0.34625  Biso   1.000  F
  F5       1.0000 0.60300  0.80776  0.65375  Biso   1.000  F
  F6       1.0000 0.10300  0.80776  0.84625  Biso   1.000  F
  F7       1.0000 0.60300  0.69224  0.15375  Biso   1.000  F
  F8       1.0000 0.89700  0.30776  0.65375  Biso   1.000  F
  F9       1.0000 0.66590  0.20540  0.38865  Biso   1.000  F
  F10      1.0000 0.16590  0.20540  0.11135  Biso   1.000  F
  F11      1.0000 0.66590  0.29460  0.88865  Biso   1.000  F
  F12      1.0000 0.83410  0.70540  0.38865  Biso   1.000  F
  F13      1.0000 0.33410  0.79460  0.61135  Biso   1.000  F
  F14      1.0000 0.83410  0.79460  0.88865  Biso   1.000  F
  F15      1.0000 0.33410  0.70540  0.11135  Biso   1.000  F
  F16      1.0000 0.16590  0.29460  0.61135  Biso   1.000  F
  F17      1.0000 0.39560  0.22810  0.42342  Biso   1.000  F
  F18      1.0000 0.89560  0.22810  0.07658  Biso   1.000  F
  F19      1.0000 0.39560  0.27190  0.92342  Biso   1.000  F
  F20      1.0000 0.10440  0.72810  0.42342  Biso   1.000  F
  F21      1.0000 0.60440  0.77190  0.57658  Biso   1.000  F
  F22      1.0000 0.10440  0.77190  0.92342  Biso   1.000  F
  F23      1.0000 0.60440  0.72810  0.07658  Biso   1.000  F
  F24      1.0000 0.89560  0.27190  0.57658  Biso   1.000  F
  O17      1.0000 0.85140  0.19237  0.49087  Biso   1.000  O
  O18      1.0000 0.35140  0.19237  0.00913  Biso   1.000  O
  O19      1.0000 0.85140  0.30763  0.99087  Biso   1.000  O
  O20      1.0000 0.64860  0.69237  0.49087  Biso   1.000  O
  O21      1.0000 0.14860  0.80763  0.50913  Biso   1.000  O
  O22      1.0000 0.64860  0.80763  0.99087  Biso   1.000  O
  O23      1.0000 0.14860  0.69237  0.00913  Biso   1.000  O
  O24      1.0000 0.35140  0.30763  0.50913  Biso   1.000  O
  H121     1.0000 0.71210  0.19810  0.48860  Biso   1.000  H
  H122     1.0000 0.21210  0.19810  0.01140  Biso   1.000  H
  H123     1.0000 0.71210  0.30190  0.98860  Biso   1.000  H
  H124     1.0000 0.78790  0.69810  0.48860  Biso   1.000  H
  H125     1.0000 0.28790  0.80190  0.51140  Biso   1.000  H
  H126     1.0000 0.78790  0.80190  0.98860  Biso   1.000  H
  H127     1.0000 0.28790  0.69810  0.01140  Biso   1.000  H
  H128     1.0000 0.21210  0.30190  0.51140  Biso   1.000  H
  H129     1.0000 0.88720  0.22360  0.51720  Biso   1.000  H
  H130     1.0000 0.38720  0.22360  0.98280  Biso   1.000  H
  H131     1.0000 0.88720  0.27640  0.01720  Biso   1.000  H
  H132     1.0000 0.61280  0.72360  0.51720  Biso   1.000  H
  H133     1.0000 0.11280  0.77640  0.48280  Biso   1.000  H
  H134     1.0000 0.61280  0.77640  0.01720  Biso   1.000  H
  H135     1.0000 0.11280  0.72360  0.98280  Biso   1.000  H
  H136     1.0000 0.38720  0.27640  0.48280  Biso   1.000  H
  F25      1.0000 0.50030  0.29643  0.36534  Biso   1.000  F
  F26      1.0000 0.00030  0.29643  0.13466  Biso   1.000  F
  F27      1.0000 0.50030  0.20357  0.86534  Biso   1.000  F
  F28      1.0000 0.99970  0.79643  0.36534  Biso   1.000  F
  F29      1.0000 0.49970  0.70357  0.63466  Biso   1.000  F
  F30      1.0000 0.99970  0.70357  0.86534  Biso   1.000  F
  F31      1.0000 0.49970  0.79643  0.13466  Biso   1.000  F
  F32      1.0000 0.00030  0.20357  0.63466  Biso   1.000  F
  B1       1.0000 0.48690  0.23170  0.38060  Biso   1.000  B
  B2       1.0000 0.98690  0.23170  0.11940  Biso   1.000  B
  B3       1.0000 0.48690  0.26830  0.88060  Biso   1.000  B
  B4       1.0000 0.01310  0.73170  0.38060  Biso   1.000  B
  B5       1.0000 0.51310  0.76830  0.61940  Biso   1.000  B
  B6       1.0000 0.01310  0.76830  0.88060  Biso   1.000  B
  B7       1.0000 0.51310  0.73170  0.11940  Biso   1.000  B
  B8       1.0000 0.98690  0.26830  0.61940  Biso   1.000  B
