data_image0
_cell_length_a       17.9734
_cell_length_b       17.2179
_cell_length_c       7.95298
_cell_angle_alpha    90
_cell_angle_beta     90
_cell_angle_gamma    90

_symmetry_space_group_name_H-M    "P 1"
_symmetry_int_tables_number       1

loop_
  _symmetry_equiv_pos_as_xyz
  'x, y, z'

loop_
  _atom_site_label
  _atom_site_occupancy
  _atom_site_fract_x
  _atom_site_fract_y
  _atom_site_fract_z
  _atom_site_thermal_displace_type
  _atom_site_B_iso_or_equiv
  _atom_site_type_symbol
  Cu1      1.0000 0.33724  0.71244  0.45245  Biso   1.000  Cu
  Cu2      1.0000 0.66276  0.21244  0.04755  Biso   1.000  Cu
  Cu3      1.0000 0.16276  0.28756  0.95245  Biso   1.000  Cu
  Cu4      1.0000 0.83724  0.78756  0.54755  Biso   1.000  Cu
  Cu5      1.0000 0.66276  0.28756  0.54755  Biso   1.000  Cu
  Cu6      1.0000 0.33724  0.78756  0.95245  Biso   1.000  Cu
  Cu7      1.0000 0.83724  0.71244  0.04755  Biso   1.000  Cu
  Cu8      1.0000 0.16276  0.21244  0.45245  Biso   1.000  Cu
  C1       1.0000 0.11748  0.91343  0.65058  Biso   1.000  C
  C2       1.0000 0.88252  0.41343  0.84942  Biso   1.000  C
  C3       1.0000 0.38252  0.08657  0.15058  Biso   1.000  C
  C4       1.0000 0.61748  0.58657  0.34942  Biso   1.000  C
  C5       1.0000 0.88252  0.08657  0.34942  Biso   1.000  C
  C6       1.0000 0.11748  0.58657  0.15058  Biso   1.000  C
  C7       1.0000 0.61748  0.91343  0.84942  Biso   1.000  C
  C8       1.0000 0.38252  0.41343  0.65058  Biso   1.000  C
  C9       1.0000 0.18055  0.87742  0.55476  Biso   1.000  C
  C10      1.0000 0.81945  0.37742  0.94524  Biso   1.000  C
  C11      1.0000 0.31945  0.12258  0.05476  Biso   1.000  C
  C12      1.0000 0.68055  0.62258  0.44524  Biso   1.000  C
  C13      1.0000 0.81945  0.12258  0.44524  Biso   1.000  C
  C14      1.0000 0.18055  0.62258  0.05476  Biso   1.000  C
  C15      1.0000 0.68055  0.87742  0.94524  Biso   1.000  C
  C16      1.0000 0.31945  0.37742  0.55476  Biso   1.000  C
  C17      1.0000 0.23461  0.91641  0.46996  Biso   1.000  C
  C18      1.0000 0.76539  0.41641  0.03004  Biso   1.000  C
  C19      1.0000 0.26539  0.08359  0.96996  Biso   1.000  C
  C20      1.0000 0.73461  0.58359  0.53004  Biso   1.000  C
  C21      1.0000 0.76539  0.08359  0.53004  Biso   1.000  C
  C22      1.0000 0.23461  0.58359  0.96996  Biso   1.000  C
  C23      1.0000 0.73461  0.91641  0.03004  Biso   1.000  C
  C24      1.0000 0.26539  0.41641  0.46996  Biso   1.000  C
  H1       1.0000 0.11968  0.89434  0.78248  Biso   1.000  H
  H2       1.0000 0.88032  0.39434  0.71752  Biso   1.000  H
  H3       1.0000 0.38032  0.10566  0.28248  Biso   1.000  H
  H4       1.0000 0.61968  0.60566  0.21752  Biso   1.000  H
  H5       1.0000 0.88032  0.10566  0.21752  Biso   1.000  H
  H6       1.0000 0.11968  0.60566  0.28248  Biso   1.000  H
  H7       1.0000 0.61968  0.89434  0.71752  Biso   1.000  H
  H8       1.0000 0.38032  0.39434  0.78248  Biso   1.000  H
  H9       1.0000 0.11319  0.97535  0.61797  Biso   1.000  H
  H10      1.0000 0.88681  0.47535  0.88203  Biso   1.000  H
  H11      1.0000 0.38681  0.02465  0.11797  Biso   1.000  H
  H12      1.0000 0.61319  0.52465  0.38203  Biso   1.000  H
  H13      1.0000 0.88681  0.02465  0.38203  Biso   1.000  H
  H14      1.0000 0.11319  0.52465  0.11797  Biso   1.000  H
  H15      1.0000 0.61319  0.97535  0.88203  Biso   1.000  H
  H16      1.0000 0.38681  0.47535  0.61797  Biso   1.000  H
  C25      1.0000 0.24140  0.00009  0.45629  Biso   1.000  C
  C26      1.0000 0.75860  0.50009  0.04371  Biso   1.000  C
  C27      1.0000 0.25860  0.99991  0.95629  Biso   1.000  C
  C28      1.0000 0.74140  0.49991  0.54371  Biso   1.000  C
  C29      1.0000 0.75860  0.99991  0.54371  Biso   1.000  C
  C30      1.0000 0.24140  0.49991  0.95629  Biso   1.000  C
  C31      1.0000 0.74140  0.00009  0.04371  Biso   1.000  C
  C32      1.0000 0.25860  0.50009  0.45629  Biso   1.000  C
  H17      1.0000 0.21474  0.02772  0.56550  Biso   1.000  H
  H18      1.0000 0.78526  0.52772  0.93450  Biso   1.000  H
  H19      1.0000 0.28526  0.97228  0.06550  Biso   1.000  H
  H20      1.0000 0.71474  0.47228  0.43450  Biso   1.000  H
  H21      1.0000 0.78526  0.97228  0.43450  Biso   1.000  H
  H22      1.0000 0.21474  0.47228  0.06550  Biso   1.000  H
  H23      1.0000 0.71474  0.02772  0.93450  Biso   1.000  H
  H24      1.0000 0.28526  0.52772  0.56550  Biso   1.000  H
  H25      1.0000 0.30060  0.01619  0.45269  Biso   1.000  H
  H26      1.0000 0.69940  0.51619  0.04731  Biso   1.000  H
  H27      1.0000 0.19940  0.98381  0.95269  Biso   1.000  H
  H28      1.0000 0.80060  0.48381  0.54731  Biso   1.000  H
  H29      1.0000 0.69940  0.98381  0.54731  Biso   1.000  H
  H30      1.0000 0.30060  0.48381  0.95269  Biso   1.000  H
  H31      1.0000 0.80060  0.01619  0.04731  Biso   1.000  H
  H32      1.0000 0.19940  0.51619  0.45269  Biso   1.000  H
  H33      1.0000 0.21400  0.01993  0.34031  Biso   1.000  H
  H34      1.0000 0.78600  0.51993  0.15969  Biso   1.000  H
  H35      1.0000 0.28600  0.98007  0.84031  Biso   1.000  H
  H36      1.0000 0.71400  0.48007  0.65969  Biso   1.000  H
  H37      1.0000 0.78600  0.98007  0.65969  Biso   1.000  H
  H38      1.0000 0.21400  0.48007  0.84031  Biso   1.000  H
  H39      1.0000 0.71400  0.01993  0.15969  Biso   1.000  H
  H40      1.0000 0.28600  0.51993  0.34031  Biso   1.000  H
  N1       1.0000 0.28118  0.86314  0.40023  Biso   1.000  N
  N2       1.0000 0.71882  0.36314  0.09977  Biso   1.000  N
  N3       1.0000 0.21882  0.13686  0.90023  Biso   1.000  N
  N4       1.0000 0.78118  0.63686  0.59977  Biso   1.000  N
  N5       1.0000 0.71882  0.13686  0.59977  Biso   1.000  N
  N6       1.0000 0.28118  0.63686  0.90023  Biso   1.000  N
  N7       1.0000 0.78118  0.86314  0.09977  Biso   1.000  N
  N8       1.0000 0.21882  0.36314  0.40023  Biso   1.000  N
  N9       1.0000 0.25590  0.79122  0.44193  Biso   1.000  N
  N10      1.0000 0.74410  0.29122  0.05807  Biso   1.000  N
  N11      1.0000 0.24410  0.20878  0.94193  Biso   1.000  N
  N12      1.0000 0.75590  0.70878  0.55807  Biso   1.000  N
  N13      1.0000 0.74410  0.20878  0.55807  Biso   1.000  N
  N14      1.0000 0.25590  0.70878  0.94193  Biso   1.000  N
  N15      1.0000 0.75590  0.79122  0.05807  Biso   1.000  N
  N16      1.0000 0.24410  0.29122  0.44193  Biso   1.000  N
  C33      1.0000 0.19371  0.80005  0.53744  Biso   1.000  C
  C34      1.0000 0.80629  0.30005  0.96256  Biso   1.000  C
  C35      1.0000 0.30629  0.19995  0.03744  Biso   1.000  C
  C36      1.0000 0.69371  0.69995  0.46256  Biso   1.000  C
  C37      1.0000 0.80629  0.19995  0.46256  Biso   1.000  C
  C38      1.0000 0.19371  0.69995  0.03744  Biso   1.000  C
  C39      1.0000 0.69371  0.80005  0.96256  Biso   1.000  C
  C40      1.0000 0.30629  0.30005  0.53744  Biso   1.000  C
  C41      1.0000 0.14924  0.73789  0.60835  Biso   1.000  C
  C42      1.0000 0.85076  0.23789  0.89165  Biso   1.000  C
  C43      1.0000 0.35076  0.26211  0.10835  Biso   1.000  C
  C44      1.0000 0.64924  0.76211  0.39165  Biso   1.000  C
  C45      1.0000 0.85076  0.26211  0.39165  Biso   1.000  C
  C46      1.0000 0.14924  0.76211  0.10835  Biso   1.000  C
  C47      1.0000 0.64924  0.73789  0.89165  Biso   1.000  C
  C48      1.0000 0.35076  0.23789  0.60835  Biso   1.000  C
  H41      1.0000 0.15105  0.68715  0.52439  Biso   1.000  H
  H42      1.0000 0.84895  0.18715  0.97561  Biso   1.000  H
  H43      1.0000 0.34895  0.31285  0.02439  Biso   1.000  H
  H44      1.0000 0.65105  0.81285  0.47561  Biso   1.000  H
  H45      1.0000 0.84895  0.31285  0.47561  Biso   1.000  H
  H46      1.0000 0.15105  0.81285  0.02439  Biso   1.000  H
  H47      1.0000 0.65105  0.68715  0.97561  Biso   1.000  H
  H48      1.0000 0.34895  0.18715  0.52439  Biso   1.000  H
  H49      1.0000 0.17157  0.72176  0.73232  Biso   1.000  H
  H50      1.0000 0.82843  0.22176  0.76768  Biso   1.000  H
  H51      1.0000 0.32843  0.27824  0.23232  Biso   1.000  H
  H52      1.0000 0.67157  0.77824  0.26768  Biso   1.000  H
  H53      1.0000 0.82843  0.27824  0.26768  Biso   1.000  H
  H54      1.0000 0.17157  0.77824  0.23232  Biso   1.000  H
  H55      1.0000 0.67157  0.72176  0.76768  Biso   1.000  H
  H56      1.0000 0.32843  0.22176  0.73232  Biso   1.000  H
  H57      1.0000 0.09133  0.75751  0.62222  Biso   1.000  H
  H58      1.0000 0.90867  0.25751  0.87778  Biso   1.000  H
  H59      1.0000 0.40867  0.24249  0.12222  Biso   1.000  H
  H60      1.0000 0.59133  0.74249  0.37778  Biso   1.000  H
  H61      1.0000 0.90867  0.24249  0.37778  Biso   1.000  H
  H62      1.0000 0.09133  0.74249  0.12222  Biso   1.000  H
  H63      1.0000 0.59133  0.75751  0.87778  Biso   1.000  H
  H64      1.0000 0.40867  0.25751  0.62222  Biso   1.000  H
  C49      1.0000 0.04435  0.88941  0.57606  Biso   1.000  C
  C50      1.0000 0.95565  0.38941  0.92394  Biso   1.000  C
  C51      1.0000 0.45565  0.11059  0.07606  Biso   1.000  C
  C52      1.0000 0.54435  0.61059  0.42394  Biso   1.000  C
  C53      1.0000 0.95565  0.11059  0.42394  Biso   1.000  C
  C54      1.0000 0.04435  0.61059  0.07606  Biso   1.000  C
  C55      1.0000 0.54435  0.88941  0.92394  Biso   1.000  C
  C56      1.0000 0.45565  0.38941  0.57606  Biso   1.000  C
  C57      1.0000 0.02406  0.89685  0.41210  Biso   1.000  C
  C58      1.0000 0.97594  0.39685  0.08790  Biso   1.000  C
  C59      1.0000 0.47594  0.10315  0.91210  Biso   1.000  C
  C60      1.0000 0.52406  0.60315  0.58790  Biso   1.000  C
  C61      1.0000 0.97594  0.10315  0.58790  Biso   1.000  C
  C62      1.0000 0.02406  0.60315  0.91210  Biso   1.000  C
  C63      1.0000 0.52406  0.89685  0.08790  Biso   1.000  C
  C64      1.0000 0.47594  0.39685  0.41210  Biso   1.000  C
  N17      1.0000 0.95387  0.86840  0.39530  Biso   1.000  N
  N18      1.0000 0.04613  0.36840  0.10470  Biso   1.000  N
  N19      1.0000 0.54613  0.13160  0.89530  Biso   1.000  N
  N20      1.0000 0.45387  0.63160  0.60470  Biso   1.000  N
  N21      1.0000 0.04613  0.13160  0.60470  Biso   1.000  N
  N22      1.0000 0.95387  0.63160  0.89530  Biso   1.000  N
  N23      1.0000 0.45387  0.86840  0.10470  Biso   1.000  N
  N24      1.0000 0.54613  0.36840  0.39530  Biso   1.000  N
  N25      1.0000 0.93077  0.84338  0.54887  Biso   1.000  N
  N26      1.0000 0.06923  0.34338  0.95113  Biso   1.000  N
  N27      1.0000 0.56923  0.15662  0.04887  Biso   1.000  N
  N28      1.0000 0.43077  0.65662  0.45113  Biso   1.000  N
  N29      1.0000 0.06923  0.15662  0.45113  Biso   1.000  N
  N30      1.0000 0.93077  0.65662  0.04887  Biso   1.000  N
  N31      1.0000 0.43077  0.84338  0.95113  Biso   1.000  N
  N32      1.0000 0.56923  0.34338  0.54887  Biso   1.000  N
  C65      1.0000 0.98669  0.85636  0.66058  Biso   1.000  C
  C66      1.0000 0.01331  0.35636  0.83942  Biso   1.000  C
  C67      1.0000 0.51331  0.14364  0.16058  Biso   1.000  C
  C68      1.0000 0.48669  0.64364  0.33942  Biso   1.000  C
  C69      1.0000 0.01331  0.14364  0.33942  Biso   1.000  C
  C70      1.0000 0.98669  0.64364  0.16058  Biso   1.000  C
  C71      1.0000 0.48669  0.85636  0.83942  Biso   1.000  C
  C72      1.0000 0.51331  0.35636  0.66058  Biso   1.000  C
  C73      1.0000 0.06933  0.92939  0.27864  Biso   1.000  C
  C74      1.0000 0.93067  0.42939  0.22136  Biso   1.000  C
  C75      1.0000 0.43067  0.07061  0.77864  Biso   1.000  C
  C76      1.0000 0.56933  0.57061  0.72136  Biso   1.000  C
  C77      1.0000 0.93067  0.07061  0.72136  Biso   1.000  C
  C78      1.0000 0.06933  0.57061  0.77864  Biso   1.000  C
  C79      1.0000 0.56933  0.92939  0.22136  Biso   1.000  C
  C80      1.0000 0.43067  0.42939  0.27864  Biso   1.000  C
  H65      1.0000 0.04528  0.91376  0.15604  Biso   1.000  H
  H66      1.0000 0.95472  0.41376  0.34396  Biso   1.000  H
  H67      1.0000 0.45472  0.08624  0.65604  Biso   1.000  H
  H68      1.0000 0.54528  0.58624  0.84396  Biso   1.000  H
  H69      1.0000 0.95472  0.08624  0.84396  Biso   1.000  H
  H70      1.0000 0.04528  0.58624  0.65604  Biso   1.000  H
  H71      1.0000 0.54528  0.91376  0.34396  Biso   1.000  H
  H72      1.0000 0.45472  0.41376  0.15604  Biso   1.000  H
  H73      1.0000 0.07089  0.99300  0.29099  Biso   1.000  H
  H74      1.0000 0.92911  0.49300  0.20901  Biso   1.000  H
  H75      1.0000 0.42911  0.00700  0.79099  Biso   1.000  H
  H76      1.0000 0.57089  0.50700  0.70901  Biso   1.000  H
  H77      1.0000 0.92911  0.00700  0.70901  Biso   1.000  H
  H78      1.0000 0.07089  0.50700  0.79099  Biso   1.000  H
  H79      1.0000 0.57089  0.99300  0.20901  Biso   1.000  H
  H80      1.0000 0.42911  0.49300  0.29099  Biso   1.000  H
  H81      1.0000 0.12620  0.90614  0.28751  Biso   1.000  H
  H82      1.0000 0.87380  0.40614  0.21249  Biso   1.000  H
  H83      1.0000 0.37380  0.09386  0.78751  Biso   1.000  H
  H84      1.0000 0.62620  0.59386  0.71249  Biso   1.000  H
  H85      1.0000 0.87380  0.09386  0.71249  Biso   1.000  H
  H86      1.0000 0.12620  0.59386  0.78751  Biso   1.000  H
  H87      1.0000 0.62620  0.90614  0.21249  Biso   1.000  H
  H88      1.0000 0.37380  0.40614  0.28751  Biso   1.000  H
  C81      1.0000 0.98512  0.83817  0.83857  Biso   1.000  C
  C82      1.0000 0.01488  0.33817  0.66143  Biso   1.000  C
  C83      1.0000 0.51488  0.16183  0.33857  Biso   1.000  C
  C84      1.0000 0.48512  0.66183  0.16143  Biso   1.000  C
  C85      1.0000 0.01488  0.16183  0.16143  Biso   1.000  C
  C86      1.0000 0.98512  0.66183  0.33857  Biso   1.000  C
  C87      1.0000 0.48512  0.83817  0.66143  Biso   1.000  C
  C88      1.0000 0.51488  0.33817  0.83857  Biso   1.000  C
  H89      1.0000 0.92935  0.81730  0.87334  Biso   1.000  H
  H90      1.0000 0.07065  0.31730  0.62666  Biso   1.000  H
  H91      1.0000 0.57065  0.18270  0.37334  Biso   1.000  H
  H92      1.0000 0.42935  0.68270  0.12666  Biso   1.000  H
  H93      1.0000 0.07065  0.18270  0.12666  Biso   1.000  H
  H94      1.0000 0.92935  0.68270  0.37334  Biso   1.000  H
  H95      1.0000 0.42935  0.81730  0.62666  Biso   1.000  H
  H96      1.0000 0.57065  0.31730  0.87334  Biso   1.000  H
  H97      1.0000 0.02642  0.79275  0.86597  Biso   1.000  H
  H98      1.0000 0.97358  0.29275  0.63403  Biso   1.000  H
  H99      1.0000 0.47358  0.20725  0.36597  Biso   1.000  H
  H100     1.0000 0.52642  0.70725  0.13403  Biso   1.000  H
  H101     1.0000 0.97358  0.20725  0.13403  Biso   1.000  H
  H102     1.0000 0.02642  0.70725  0.36597  Biso   1.000  H
  H103     1.0000 0.52642  0.79275  0.63403  Biso   1.000  H
  H104     1.0000 0.47358  0.29275  0.86597  Biso   1.000  H
  H105     1.0000 0.99838  0.89062  0.91160  Biso   1.000  H
  H106     1.0000 0.00162  0.39062  0.58840  Biso   1.000  H
  H107     1.0000 0.50162  0.10938  0.41160  Biso   1.000  H
  H108     1.0000 0.49838  0.60938  0.08840  Biso   1.000  H
  H109     1.0000 0.00162  0.10938  0.08840  Biso   1.000  H
  H110     1.0000 0.99838  0.60938  0.41160  Biso   1.000  H
  H111     1.0000 0.49838  0.89062  0.58840  Biso   1.000  H
  H112     1.0000 0.50162  0.39062  0.91160  Biso   1.000  H
  Cu9      1.0000 0.37253  0.87241  0.28513  Biso   1.000  Cu
  Cu10     1.0000 0.62747  0.37241  0.21487  Biso   1.000  Cu
  Cu11     1.0000 0.12747  0.12759  0.78513  Biso   1.000  Cu
  Cu12     1.0000 0.87253  0.62759  0.71487  Biso   1.000  Cu
  Cu13     1.0000 0.62747  0.12759  0.71487  Biso   1.000  Cu
  Cu14     1.0000 0.37253  0.62759  0.78513  Biso   1.000  Cu
  Cu15     1.0000 0.87253  0.87241  0.21487  Biso   1.000  Cu
  Cu16     1.0000 0.12747  0.37241  0.28513  Biso   1.000  Cu
