data_image0
_cell_length_a       10.598
_cell_length_b       18.552
_cell_length_c       15.212
_cell_angle_alpha    90
_cell_angle_beta     108.835
_cell_angle_gamma    90

_symmetry_space_group_name_H-M    "P 1"
_symmetry_int_tables_number       1

loop_
  _symmetry_equiv_pos_as_xyz
  'x, y, z'

loop_
  _atom_site_label
  _atom_site_occupancy
  _atom_site_fract_x
  _atom_site_fract_y
  _atom_site_fract_z
  _atom_site_thermal_displace_type
  _atom_site_B_iso_or_equiv
  _atom_site_type_symbol
  Cu1      1.0000 0.29363  0.27588  0.15749  Biso   1.000  Cu
  Cu2      1.0000 0.70637  0.77588  0.34251  Biso   1.000  Cu
  Cu3      1.0000 0.70637  0.72412  0.84251  Biso   1.000  Cu
  Cu4      1.0000 0.29363  0.22412  0.65749  Biso   1.000  Cu
  Cu5      1.0000 0.48636  0.28270  0.03403  Biso   1.000  Cu
  Cu6      1.0000 0.51364  0.78270  0.46597  Biso   1.000  Cu
  Cu7      1.0000 0.51364  0.71730  0.96597  Biso   1.000  Cu
  Cu8      1.0000 0.48636  0.21730  0.53403  Biso   1.000  Cu
  N1       1.0000 0.32250  0.25990  0.93780  Biso   1.000  N
  N2       1.0000 0.67750  0.75990  0.56220  Biso   1.000  N
  N3       1.0000 0.67750  0.74010  0.06220  Biso   1.000  N
  N4       1.0000 0.32250  0.24010  0.43780  Biso   1.000  N
  C1       1.0000 0.06630  0.24250  0.80690  Biso   1.000  C
  C2       1.0000 0.93370  0.74250  0.69310  Biso   1.000  C
  C3       1.0000 0.93370  0.75750  0.19310  Biso   1.000  C
  C4       1.0000 0.06630  0.25750  0.30690  Biso   1.000  C
  C5       1.0000 0.92300  0.18800  0.00320  Biso   1.000  C
  C6       1.0000 0.07700  0.68800  0.49680  Biso   1.000  C
  C7       1.0000 0.07700  0.81200  0.99680  Biso   1.000  C
  C8       1.0000 0.92300  0.31200  0.50320  Biso   1.000  C
  H1       1.0000 0.88520  0.14220  0.99280  Biso   1.000  H
  H2       1.0000 0.11480  0.64220  0.50720  Biso   1.000  H
  H3       1.0000 0.11480  0.85780  0.00720  Biso   1.000  H
  H4       1.0000 0.88520  0.35780  0.49280  Biso   1.000  H
  C9       1.0000 0.13980  0.51190  0.20230  Biso   1.000  C
  C10      1.0000 0.86020  0.01190  0.29770  Biso   1.000  C
  C11      1.0000 0.86020  0.48810  0.79770  Biso   1.000  C
  C12      1.0000 0.13980  0.98810  0.70230  Biso   1.000  C
  C13      1.0000 0.84890  0.24770  0.95940  Biso   1.000  C
  C14      1.0000 0.15110  0.74770  0.54060  Biso   1.000  C
  C15      1.0000 0.15110  0.75230  0.04060  Biso   1.000  C
  C16      1.0000 0.84890  0.25230  0.45940  Biso   1.000  C
  C17      1.0000 0.25910  0.31410  0.88240  Biso   1.000  C
  C18      1.0000 0.74090  0.81410  0.61760  Biso   1.000  C
  C19      1.0000 0.74090  0.68590  0.11760  Biso   1.000  C
  C20      1.0000 0.25910  0.18590  0.38240  Biso   1.000  C
  H5       1.0000 0.30190  0.35840  0.88820  Biso   1.000  H
  H6       1.0000 0.69810  0.85840  0.61180  Biso   1.000  H
  H7       1.0000 0.69810  0.64160  0.11180  Biso   1.000  H
  H8       1.0000 0.30190  0.14160  0.38820  Biso   1.000  H
  C21      1.0000 0.04130  0.31810  0.03740  Biso   1.000  C
  C22      1.0000 0.95870  0.81810  0.46260  Biso   1.000  C
  C23      1.0000 0.95870  0.68190  0.96260  Biso   1.000  C
  C24      1.0000 0.04130  0.18190  0.53740  Biso   1.000  C
  H9       1.0000 0.08150  0.36320  0.04860  Biso   1.000  H
  H10      1.0000 0.91850  0.86320  0.45140  Biso   1.000  H
  H11      1.0000 0.91850  0.63680  0.95140  Biso   1.000  H
  H12      1.0000 0.08150  0.13680  0.54860  Biso   1.000  H
  C25      1.0000 0.91260  0.31350  0.97960  Biso   1.000  C
  C26      1.0000 0.08740  0.81350  0.52040  Biso   1.000  C
  C27      1.0000 0.08740  0.68650  0.02040  Biso   1.000  C
  C28      1.0000 0.91260  0.18650  0.47960  Biso   1.000  C
  H13      1.0000 0.86730  0.35530  0.95350  Biso   1.000  H
  H14      1.0000 0.13270  0.85530  0.54650  Biso   1.000  H
  H15      1.0000 0.13270  0.64470  0.04650  Biso   1.000  H
  H16      1.0000 0.86730  0.14470  0.45350  Biso   1.000  H
  C29      1.0000 0.05130  0.19660  0.06130  Biso   1.000  C
  C30      1.0000 0.94870  0.69660  0.43870  Biso   1.000  C
  C31      1.0000 0.94870  0.80340  0.93870  Biso   1.000  C
  C32      1.0000 0.05130  0.30340  0.56130  Biso   1.000  C
  H17      1.0000 0.09790  0.15590  0.09000  Biso   1.000  H
  H18      1.0000 0.90210  0.65590  0.41000  Biso   1.000  H
  H19      1.0000 0.90210  0.84410  0.91000  Biso   1.000  H
  H20      1.0000 0.09790  0.34410  0.59000  Biso   1.000  H
  C33      1.0000 0.25910  0.19640  0.92470  Biso   1.000  C
  C34      1.0000 0.74090  0.69640  0.57530  Biso   1.000  C
  C35      1.0000 0.74090  0.80360  0.07530  Biso   1.000  C
  C36      1.0000 0.25910  0.30360  0.42470  Biso   1.000  C
  H21      1.0000 0.30240  0.15710  0.95960  Biso   1.000  H
  H22      1.0000 0.69760  0.65710  0.54040  Biso   1.000  H
  H23      1.0000 0.69760  0.84290  0.04040  Biso   1.000  H
  H24      1.0000 0.30240  0.34290  0.45960  Biso   1.000  H
  C37      1.0000 0.13310  0.18610  0.86230  Biso   1.000  C
  C38      1.0000 0.86690  0.68610  0.63770  Biso   1.000  C
  C39      1.0000 0.86690  0.81390  0.13770  Biso   1.000  C
  C40      1.0000 0.13310  0.31390  0.36230  Biso   1.000  C
  H25      1.0000 0.09280  0.14110  0.85750  Biso   1.000  H
  H26      1.0000 0.90720  0.64110  0.64250  Biso   1.000  H
  H27      1.0000 0.90720  0.85890  0.14250  Biso   1.000  H
  H28      1.0000 0.09280  0.35890  0.35750  Biso   1.000  H
  C41      1.0000 0.25700  0.51610  0.18100  Biso   1.000  C
  C42      1.0000 0.74300  0.01610  0.31900  Biso   1.000  C
  C43      1.0000 0.74300  0.48390  0.81900  Biso   1.000  C
  C44      1.0000 0.25700  0.98390  0.68100  Biso   1.000  C
  C45      1.0000 0.37750  0.51710  0.25240  Biso   1.000  C
  C46      1.0000 0.62250  0.01710  0.24760  Biso   1.000  C
  C47      1.0000 0.62250  0.48290  0.74760  Biso   1.000  C
  C48      1.0000 0.37750  0.98290  0.75240  Biso   1.000  C
  H29      1.0000 0.45690  0.52010  0.23900  Biso   1.000  H
  H30      1.0000 0.54310  0.02010  0.26100  Biso   1.000  H
  H31      1.0000 0.54310  0.47990  0.76100  Biso   1.000  H
  H32      1.0000 0.45690  0.97990  0.73900  Biso   1.000  H
  C49      1.0000 0.35480  0.50040  0.05940  Biso   1.000  C
  C50      1.0000 0.64520  0.00040  0.44060  Biso   1.000  C
  C51      1.0000 0.64520  0.49960  0.94060  Biso   1.000  C
  C52      1.0000 0.35480  0.99960  0.55940  Biso   1.000  C
  H33      1.0000 0.43400  0.52630  0.09560  Biso   1.000  H
  H34      1.0000 0.56600  0.02630  0.40440  Biso   1.000  H
  H35      1.0000 0.56600  0.47370  0.90440  Biso   1.000  H
  H36      1.0000 0.43400  0.97370  0.59560  Biso   1.000  H
  H37      1.0000 0.33640  0.51350  0.99470  Biso   1.000  H
  H38      1.0000 0.66360  0.01350  0.50530  Biso   1.000  H
  H39      1.0000 0.66360  0.48650  0.00530  Biso   1.000  H
  H40      1.0000 0.33640  0.98650  0.49470  Biso   1.000  H
  C53      1.0000 0.26140  0.50980  0.36270  Biso   1.000  C
  C54      1.0000 0.73860  0.00980  0.13730  Biso   1.000  C
  C55      1.0000 0.73860  0.49020  0.63730  Biso   1.000  C
  C56      1.0000 0.26140  0.99020  0.86270  Biso   1.000  C
  C57      1.0000 0.13900  0.50890  0.29280  Biso   1.000  C
  C58      1.0000 0.86100  0.00890  0.20720  Biso   1.000  C
  C59      1.0000 0.86100  0.49110  0.70720  Biso   1.000  C
  C60      1.0000 0.13900  0.99110  0.79280  Biso   1.000  C
  H41      1.0000 0.05960  0.50630  0.30630  Biso   1.000  H
  H42      1.0000 0.94040  0.00630  0.19370  Biso   1.000  H
  H43      1.0000 0.94040  0.49370  0.69370  Biso   1.000  H
  H44      1.0000 0.05960  0.99370  0.80630  Biso   1.000  H
  C61      1.0000 0.37960  0.51380  0.34320  Biso   1.000  C
  C62      1.0000 0.62040  0.01380  0.15680  Biso   1.000  C
  C63      1.0000 0.62040  0.48620  0.65680  Biso   1.000  C
  C64      1.0000 0.37960  0.98620  0.84320  Biso   1.000  C
  H45      1.0000 0.46040  0.51430  0.39130  Biso   1.000  H
  H46      1.0000 0.53960  0.01430  0.10870  Biso   1.000  H
  H47      1.0000 0.53960  0.48570  0.60870  Biso   1.000  H
  H48      1.0000 0.46040  0.98570  0.89130  Biso   1.000  H
  N5       1.0000 0.11270  0.26020  0.07890  Biso   1.000  N
  N6       1.0000 0.88730  0.76020  0.42110  Biso   1.000  N
  N7       1.0000 0.88730  0.73980  0.92110  Biso   1.000  N
  N8       1.0000 0.11270  0.23980  0.57890  Biso   1.000  N
  C65      1.0000 0.38190  0.41990  0.07020  Biso   1.000  C
  C66      1.0000 0.61810  0.91990  0.42980  Biso   1.000  C
  C67      1.0000 0.61810  0.58010  0.92980  Biso   1.000  C
  C68      1.0000 0.38190  0.08010  0.57020  Biso   1.000  C
  O1       1.0000 0.31500  0.38364  0.10690  Biso   1.000  O
  O2       1.0000 0.68500  0.88364  0.39310  Biso   1.000  O
  O3       1.0000 0.68500  0.61636  0.89310  Biso   1.000  O
  O4       1.0000 0.31500  0.11636  0.60690  Biso   1.000  O
  O5       1.0000 0.24400  0.52203  0.08880  Biso   1.000  O
  O6       1.0000 0.75600  0.02203  0.41120  Biso   1.000  O
  O7       1.0000 0.75600  0.47797  0.91120  Biso   1.000  O
  O8       1.0000 0.24400  0.97797  0.58880  Biso   1.000  O
  Cl1      1.0000 0.98802  0.51063  0.11418  Biso   1.000  Cl
  Cl2      1.0000 0.01198  0.01063  0.38582  Biso   1.000  Cl
  Cl3      1.0000 0.01198  0.48937  0.88582  Biso   1.000  Cl
  Cl4      1.0000 0.98802  0.98937  0.61418  Biso   1.000  Cl
  Cl5      1.0000 0.25990  0.50305  0.47790  Biso   1.000  Cl
  Cl6      1.0000 0.74010  0.00305  0.02210  Biso   1.000  Cl
  Cl7      1.0000 0.74010  0.49695  0.52210  Biso   1.000  Cl
  Cl8      1.0000 0.25990  0.99695  0.97790  Biso   1.000  Cl
  O9       1.0000 0.47070  0.39830  0.03960  Biso   1.000  O
  O10      1.0000 0.52930  0.89830  0.46040  Biso   1.000  O
  O11      1.0000 0.52930  0.60170  0.96040  Biso   1.000  O
  O12      1.0000 0.47070  0.10170  0.53960  Biso   1.000  O
  C69      1.0000 0.13470  0.30770  0.81760  Biso   1.000  C
  C70      1.0000 0.86530  0.80770  0.68240  Biso   1.000  C
  C71      1.0000 0.86530  0.69230  0.18240  Biso   1.000  C
  C72      1.0000 0.13470  0.19230  0.31760  Biso   1.000  C
  H49      1.0000 0.09600  0.34700  0.78080  Biso   1.000  H
  H50      1.0000 0.90400  0.84700  0.71920  Biso   1.000  H
  H51      1.0000 0.90400  0.65300  0.21920  Biso   1.000  H
  H52      1.0000 0.09600  0.15300  0.28080  Biso   1.000  H
  C73      1.0000 0.92800  0.23590  0.74220  Biso   1.000  C
  C74      1.0000 0.07200  0.73590  0.75780  Biso   1.000  C
  C75      1.0000 0.07200  0.76410  0.25780  Biso   1.000  C
  C76      1.0000 0.92800  0.26410  0.24220  Biso   1.000  C
  C77      1.0000 0.71120  0.24140  0.89330  Biso   1.000  C
  C78      1.0000 0.28880  0.74140  0.60670  Biso   1.000  C
  C79      1.0000 0.28880  0.75860  0.10670  Biso   1.000  C
  C80      1.0000 0.71120  0.25860  0.39330  Biso   1.000  C
  C81      1.0000 0.87010  0.17080  0.70980  Biso   1.000  C
  C82      1.0000 0.12990  0.67080  0.79020  Biso   1.000  C
  C83      1.0000 0.12990  0.82920  0.29020  Biso   1.000  C
  C84      1.0000 0.87010  0.32920  0.20980  Biso   1.000  C
  H53      1.0000 0.91830  0.12840  0.72820  Biso   1.000  H
  H54      1.0000 0.08170  0.62840  0.77180  Biso   1.000  H
  H55      1.0000 0.08170  0.87160  0.27180  Biso   1.000  H
  H56      1.0000 0.91830  0.37160  0.22820  Biso   1.000  H
  C85      1.0000 0.62990  0.30110  0.86460  Biso   1.000  C
  C86      1.0000 0.37010  0.80110  0.63540  Biso   1.000  C
  C87      1.0000 0.37010  0.69890  0.13540  Biso   1.000  C
  C88      1.0000 0.62990  0.19890  0.36460  Biso   1.000  C
  H57      1.0000 0.65850  0.34580  0.89150  Biso   1.000  H
  H58      1.0000 0.34150  0.84580  0.60850  Biso   1.000  H
  H59      1.0000 0.34150  0.65420  0.10850  Biso   1.000  H
  H60      1.0000 0.65850  0.15420  0.39150  Biso   1.000  H
  C89      1.0000 0.65810  0.17660  0.85560  Biso   1.000  C
  C90      1.0000 0.34190  0.67660  0.64440  Biso   1.000  C
  C91      1.0000 0.34190  0.82340  0.14440  Biso   1.000  C
  C92      1.0000 0.65810  0.32340  0.35560  Biso   1.000  C
  H61      1.0000 0.70640  0.13430  0.87460  Biso   1.000  H
  H62      1.0000 0.29360  0.63430  0.62540  Biso   1.000  H
  H63      1.0000 0.29360  0.86570  0.12540  Biso   1.000  H
  H64      1.0000 0.70640  0.36570  0.37460  Biso   1.000  H
  C93      1.0000 0.84780  0.29600  0.71320  Biso   1.000  C
  C94      1.0000 0.15220  0.79600  0.78680  Biso   1.000  C
  C95      1.0000 0.15220  0.70400  0.28680  Biso   1.000  C
  C96      1.0000 0.84780  0.20400  0.21320  Biso   1.000  C
  H65      1.0000 0.88070  0.34140  0.73480  Biso   1.000  H
  H66      1.0000 0.11930  0.84140  0.76520  Biso   1.000  H
  H67      1.0000 0.11930  0.65860  0.26520  Biso   1.000  H
  H68      1.0000 0.88070  0.15860  0.23480  Biso   1.000  H
  C97      1.0000 0.50740  0.29530  0.79700  Biso   1.000  C
  C98      1.0000 0.49260  0.79530  0.70300  Biso   1.000  C
  C99      1.0000 0.49260  0.70470  0.20300  Biso   1.000  C
  C100     1.0000 0.50740  0.20470  0.29700  Biso   1.000  C
  H69      1.0000 0.45670  0.33680  0.77790  Biso   1.000  H
  H70      1.0000 0.54330  0.83680  0.72210  Biso   1.000  H
  H71      1.0000 0.54330  0.66320  0.22210  Biso   1.000  H
  H72      1.0000 0.45670  0.16320  0.27790  Biso   1.000  H
  C101     1.0000 0.53340  0.17390  0.78940  Biso   1.000  C
  C102     1.0000 0.46660  0.67390  0.71060  Biso   1.000  C
  C103     1.0000 0.46660  0.82610  0.21060  Biso   1.000  C
  C104     1.0000 0.53340  0.32610  0.28940  Biso   1.000  C
  H73      1.0000 0.49980  0.12920  0.76570  Biso   1.000  H
  H74      1.0000 0.50020  0.62920  0.73430  Biso   1.000  H
  H75      1.0000 0.50020  0.87080  0.23430  Biso   1.000  H
  H76      1.0000 0.49980  0.37080  0.26570  Biso   1.000  H
  C105     1.0000 0.74070  0.16780  0.64980  Biso   1.000  C
  C106     1.0000 0.25930  0.66780  0.85020  Biso   1.000  C
  C107     1.0000 0.25930  0.83220  0.35020  Biso   1.000  C
  C108     1.0000 0.74070  0.33220  0.14980  Biso   1.000  C
  H77      1.0000 0.70410  0.12290  0.62920  Biso   1.000  H
  H78      1.0000 0.29590  0.62290  0.87080  Biso   1.000  H
  H79      1.0000 0.29590  0.87710  0.37080  Biso   1.000  H
  H80      1.0000 0.70410  0.37710  0.12920  Biso   1.000  H
  C109     1.0000 0.72050  0.28930  0.65300  Biso   1.000  C
  C110     1.0000 0.27950  0.78930  0.84700  Biso   1.000  C
  C111     1.0000 0.27950  0.71070  0.34700  Biso   1.000  C
  C112     1.0000 0.72050  0.21070  0.15300  Biso   1.000  C
  H81      1.0000 0.67010  0.33090  0.63430  Biso   1.000  H
  H82      1.0000 0.32990  0.83090  0.86570  Biso   1.000  H
  H83      1.0000 0.32990  0.66910  0.36570  Biso   1.000  H
  H84      1.0000 0.67010  0.16910  0.13430  Biso   1.000  H
  N9       1.0000 0.45800  0.23224  0.75750  Biso   1.000  N
  N10      1.0000 0.54200  0.73224  0.74250  Biso   1.000  N
  N11      1.0000 0.54200  0.76776  0.24250  Biso   1.000  N
  N12      1.0000 0.45800  0.26776  0.25750  Biso   1.000  N
  N13      1.0000 0.66520  0.22657  0.61990  Biso   1.000  N
  N14      1.0000 0.33480  0.72657  0.88010  Biso   1.000  N
  N15      1.0000 0.33480  0.77343  0.38010  Biso   1.000  N
  N16      1.0000 0.66520  0.27343  0.11990  Biso   1.000  N
  N17      1.0000 0.25060  0.47730  0.71320  Biso   1.000  N
  N18      1.0000 0.74940  0.97730  0.78680  Biso   1.000  N
  N19      1.0000 0.74940  0.52270  0.28680  Biso   1.000  N
  N20      1.0000 0.25060  0.02270  0.21320  Biso   1.000  N
  O13      1.0000 0.27750  0.42030  0.68980  Biso   1.000  O
  O14      1.0000 0.72250  0.92030  0.81020  Biso   1.000  O
  O15      1.0000 0.72250  0.57970  0.31020  Biso   1.000  O
  O16      1.0000 0.27750  0.07970  0.18980  Biso   1.000  O
  O17      1.0000 0.15380  0.50550  0.66590  Biso   1.000  O
  O18      1.0000 0.84620  0.00550  0.83410  Biso   1.000  O
  O19      1.0000 0.84620  0.49450  0.33410  Biso   1.000  O
  O20      1.0000 0.15380  0.99450  0.16590  Biso   1.000  O
  O21      1.0000 0.31680  0.50190  0.77630  Biso   1.000  O
  O22      1.0000 0.68320  0.00190  0.72370  Biso   1.000  O
  O23      1.0000 0.68320  0.49810  0.22370  Biso   1.000  O
  O24      1.0000 0.31680  0.99810  0.27630  Biso   1.000  O
