data_image0
_cell_length_a       5.864
_cell_length_b       18.51
_cell_length_c       6.3993
_cell_angle_alpha    90
_cell_angle_beta     104.42
_cell_angle_gamma    90

_symmetry_space_group_name_H-M    "P 1"
_symmetry_int_tables_number       1

loop_
  _symmetry_equiv_pos_as_xyz
  'x, y, z'

loop_
  _atom_site_label
  _atom_site_occupancy
  _atom_site_fract_x
  _atom_site_fract_y
  _atom_site_fract_z
  _atom_site_thermal_displace_type
  _atom_site_B_iso_or_equiv
  _atom_site_type_symbol
  Cu1      1.0000 0.49110  0.25000  0.55805  Biso   1.000  Cu
  Cu2      1.0000 0.50890  0.75000  0.44195  Biso   1.000  Cu
  S1       1.0000 0.16569  0.25000  0.28188  Biso   1.000  S
  S2       1.0000 0.83431  0.75000  0.71812  Biso   1.000  S
  N1       1.0000 0.48630  0.16473  0.77350  Biso   1.000  N
  N2       1.0000 0.51370  0.66473  0.22650  Biso   1.000  N
  N3       1.0000 0.51370  0.83527  0.22650  Biso   1.000  N
  N4       1.0000 0.48630  0.33527  0.77350  Biso   1.000  N
  N5       1.0000 0.79320  0.25000  0.48310  Biso   1.000  N
  N6       1.0000 0.20680  0.75000  0.51690  Biso   1.000  N
  N7       1.0000 0.29670  0.00418  0.34250  Biso   1.000  N
  N8       1.0000 0.70330  0.50418  0.65750  Biso   1.000  N
  N9       1.0000 0.70330  0.99582  0.65750  Biso   1.000  N
  N10      1.0000 0.29670  0.49582  0.34250  Biso   1.000  N
  N11      1.0000 0.69940  0.03426  0.48280  Biso   1.000  N
  N12      1.0000 0.30060  0.53426  0.51720  Biso   1.000  N
  N13      1.0000 0.30060  0.96574  0.51720  Biso   1.000  N
  N14      1.0000 0.69940  0.46574  0.48280  Biso   1.000  N
  C1       1.0000 0.29360  0.12996  0.79580  Biso   1.000  C
  C2       1.0000 0.70640  0.62996  0.20420  Biso   1.000  C
  C3       1.0000 0.70640  0.87004  0.20420  Biso   1.000  C
  C4       1.0000 0.29360  0.37004  0.79580  Biso   1.000  C
  H1       1.0000 0.15590  0.13460  0.68690  Biso   1.000  H
  H2       1.0000 0.84410  0.63460  0.31310  Biso   1.000  H
  H3       1.0000 0.84410  0.86540  0.31310  Biso   1.000  H
  H4       1.0000 0.15590  0.36540  0.68690  Biso   1.000  H
  C5       1.0000 0.49190  0.07992  0.13480  Biso   1.000  C
  C6       1.0000 0.50810  0.57992  0.86520  Biso   1.000  C
  C7       1.0000 0.50810  0.92008  0.86520  Biso   1.000  C
  C8       1.0000 0.49190  0.42008  0.13480  Biso   1.000  C
  C9       1.0000 0.28820  0.08763  0.97140  Biso   1.000  C
  C10      1.0000 0.71180  0.58763  0.02860  Biso   1.000  C
  C11      1.0000 0.71180  0.91237  0.02860  Biso   1.000  C
  C12      1.0000 0.28820  0.41237  0.97140  Biso   1.000  C
  H5       1.0000 0.15000  0.06460  0.98020  Biso   1.000  H
  H6       1.0000 0.85000  0.56460  0.01980  Biso   1.000  H
  H7       1.0000 0.85000  0.93540  0.01980  Biso   1.000  H
  H8       1.0000 0.15000  0.43540  0.98020  Biso   1.000  H
  C13      1.0000 0.49490  0.03705  0.33020  Biso   1.000  C
  C14      1.0000 0.50510  0.53705  0.66980  Biso   1.000  C
  C15      1.0000 0.50510  0.96295  0.66980  Biso   1.000  C
  C16      1.0000 0.49490  0.46295  0.33020  Biso   1.000  C
  C17      1.0000 0.68340  0.15430  0.92840  Biso   1.000  C
  C18      1.0000 0.31660  0.65430  0.07160  Biso   1.000  C
  C19      1.0000 0.31660  0.84570  0.07160  Biso   1.000  C
  C20      1.0000 0.68340  0.34570  0.92840  Biso   1.000  C
  H9       1.0000 0.82110  0.17610  0.91290  Biso   1.000  H
  H10      1.0000 0.17890  0.67610  0.08710  Biso   1.000  H
  H11      1.0000 0.17890  0.82390  0.08710  Biso   1.000  H
  H12      1.0000 0.82110  0.32390  0.91290  Biso   1.000  H
  C21      1.0000 0.69420  0.11312  0.10920  Biso   1.000  C
  C22      1.0000 0.30580  0.61312  0.89080  Biso   1.000  C
  C23      1.0000 0.30580  0.88688  0.89080  Biso   1.000  C
  C24      1.0000 0.69420  0.38688  0.10920  Biso   1.000  C
  H13      1.0000 0.83570  0.10770  0.21290  Biso   1.000  H
  H14      1.0000 0.16430  0.60770  0.78710  Biso   1.000  H
  H15      1.0000 0.16430  0.89230  0.78710  Biso   1.000  H
  H16      1.0000 0.83570  0.39230  0.21290  Biso   1.000  H
  C25      1.0000 0.94970  0.25000  0.40470  Biso   1.000  C
  C26      1.0000 0.05030  0.75000  0.59530  Biso   1.000  C
