data_image0
_cell_length_a       16.9489
_cell_length_b       12.4998
_cell_length_c       17.1316
_cell_angle_alpha    90
_cell_angle_beta     90
_cell_angle_gamma    90

_symmetry_space_group_name_H-M    "P 1"
_symmetry_int_tables_number       1

loop_
  _symmetry_equiv_pos_as_xyz
  'x, y, z'

loop_
  _atom_site_label
  _atom_site_occupancy
  _atom_site_fract_x
  _atom_site_fract_y
  _atom_site_fract_z
  _atom_site_thermal_displace_type
  _atom_site_B_iso_or_equiv
  _atom_site_type_symbol
  Br1      1.0000 0.42061  0.48832  0.99570  Biso   1.000  Br
  Br2      1.0000 0.57939  0.51168  0.49570  Biso   1.000  Br
  Br3      1.0000 0.92061  0.01168  0.99570  Biso   1.000  Br
  Br4      1.0000 0.07939  0.98832  0.49570  Biso   1.000  Br
  Cu1      1.0000 0.55787  0.51224  0.00870  Biso   1.000  Cu
  Cu2      1.0000 0.44213  0.48776  0.50870  Biso   1.000  Cu
  Cu3      1.0000 0.05787  0.98776  0.00870  Biso   1.000  Cu
  Cu4      1.0000 0.94213  0.01224  0.50870  Biso   1.000  Cu
  P1       1.0000 0.59794  0.67306  0.05224  Biso   1.000  P
  P2       1.0000 0.40206  0.32694  0.55224  Biso   1.000  P
  P3       1.0000 0.09794  0.82694  0.05224  Biso   1.000  P
  P4       1.0000 0.90206  0.17306  0.55224  Biso   1.000  P
  P5       1.0000 0.36666  0.62957  0.47660  Biso   1.000  P
  P6       1.0000 0.63334  0.37043  0.97660  Biso   1.000  P
  P7       1.0000 0.86666  0.87043  0.47660  Biso   1.000  P
  P8       1.0000 0.13334  0.12957  0.97660  Biso   1.000  P
  N1       1.0000 0.48190  0.50910  0.25610  Biso   1.000  N
  N2       1.0000 0.51810  0.49090  0.75610  Biso   1.000  N
  N3       1.0000 0.98190  0.99090  0.25610  Biso   1.000  N
  N4       1.0000 0.01810  0.00910  0.75610  Biso   1.000  N
  C1       1.0000 0.66870  0.74070  0.99140  Biso   1.000  C
  C2       1.0000 0.33130  0.25930  0.49140  Biso   1.000  C
  C3       1.0000 0.16870  0.75930  0.99140  Biso   1.000  C
  C4       1.0000 0.83130  0.24070  0.49140  Biso   1.000  C
  C5       1.0000 0.71160  0.68180  0.93590  Biso   1.000  C
  C6       1.0000 0.28840  0.31820  0.43590  Biso   1.000  C
  C7       1.0000 0.21160  0.81820  0.93590  Biso   1.000  C
  C8       1.0000 0.78840  0.18180  0.43590  Biso   1.000  C
  H1       1.0000 0.70430  0.60660  0.93280  Biso   1.000  H
  H2       1.0000 0.29570  0.39340  0.43280  Biso   1.000  H
  H3       1.0000 0.20430  0.89340  0.93280  Biso   1.000  H
  H4       1.0000 0.79570  0.10660  0.43280  Biso   1.000  H
  C9       1.0000 0.76490  0.73140  0.88520  Biso   1.000  C
  C10      1.0000 0.23510  0.26860  0.38520  Biso   1.000  C
  C11      1.0000 0.26490  0.76860  0.88520  Biso   1.000  C
  C12      1.0000 0.73510  0.23140  0.38520  Biso   1.000  C
  H5       1.0000 0.79160  0.68990  0.84700  Biso   1.000  H
  H6       1.0000 0.20840  0.31010  0.34700  Biso   1.000  H
  H7       1.0000 0.29160  0.81010  0.84700  Biso   1.000  H
  H8       1.0000 0.70840  0.18990  0.34700  Biso   1.000  H
  C13      1.0000 0.77870  0.83750  0.88980  Biso   1.000  C
  C14      1.0000 0.22130  0.16250  0.38980  Biso   1.000  C
  C15      1.0000 0.27870  0.66250  0.88980  Biso   1.000  C
  C16      1.0000 0.72130  0.33750  0.38980  Biso   1.000  C
  H9       1.0000 0.81680  0.87010  0.85690  Biso   1.000  H
  H10      1.0000 0.18320  0.12990  0.35690  Biso   1.000  H
  H11      1.0000 0.31680  0.62990  0.85690  Biso   1.000  H
  H12      1.0000 0.68320  0.37010  0.35690  Biso   1.000  H
  C17      1.0000 0.73690  0.89820  0.94290  Biso   1.000  C
  C18      1.0000 0.26310  0.10180  0.44290  Biso   1.000  C
  C19      1.0000 0.23690  0.60180  0.94290  Biso   1.000  C
  C20      1.0000 0.76310  0.39820  0.44290  Biso   1.000  C
  H13      1.0000 0.74520  0.97340  0.94450  Biso   1.000  H
  H14      1.0000 0.25480  0.02660  0.44450  Biso   1.000  H
  H15      1.0000 0.24520  0.52660  0.94450  Biso   1.000  H
  H16      1.0000 0.75480  0.47340  0.44450  Biso   1.000  H
  C21      1.0000 0.68330  0.85270  0.99380  Biso   1.000  C
  C22      1.0000 0.31670  0.14730  0.49380  Biso   1.000  C
  C23      1.0000 0.18330  0.64730  0.99380  Biso   1.000  C
  C24      1.0000 0.81670  0.35270  0.49380  Biso   1.000  C
  H17      1.0000 0.65620  0.89630  0.03040  Biso   1.000  H
  H18      1.0000 0.34380  0.10370  0.53040  Biso   1.000  H
  H19      1.0000 0.15620  0.60370  0.03040  Biso   1.000  H
  H20      1.0000 0.84380  0.39630  0.53040  Biso   1.000  H
  C25      1.0000 0.52280  0.77440  0.07160  Biso   1.000  C
  C26      1.0000 0.47720  0.22560  0.57160  Biso   1.000  C
  C27      1.0000 0.02280  0.72560  0.07160  Biso   1.000  C
  C28      1.0000 0.97720  0.27440  0.57160  Biso   1.000  C
  C29      1.0000 0.45510  0.77490  0.02790  Biso   1.000  C
  C30      1.0000 0.54490  0.22510  0.52790  Biso   1.000  C
  C31      1.0000 0.95510  0.72510  0.02790  Biso   1.000  C
  C32      1.0000 0.04490  0.27490  0.52790  Biso   1.000  C
  H21      1.0000 0.44820  0.72400  0.98730  Biso   1.000  H
  H22      1.0000 0.55180  0.27600  0.48730  Biso   1.000  H
  H23      1.0000 0.94820  0.77600  0.98730  Biso   1.000  H
  H24      1.0000 0.05180  0.22400  0.48730  Biso   1.000  H
  C33      1.0000 0.39720  0.84890  0.04290  Biso   1.000  C
  C34      1.0000 0.60280  0.15110  0.54290  Biso   1.000  C
  C35      1.0000 0.89720  0.65110  0.04290  Biso   1.000  C
  C36      1.0000 0.10280  0.34890  0.54290  Biso   1.000  C
  H25      1.0000 0.35150  0.85140  0.01090  Biso   1.000  H
  H26      1.0000 0.64850  0.14860  0.51090  Biso   1.000  H
  H27      1.0000 0.85150  0.64860  0.01090  Biso   1.000  H
  H28      1.0000 0.14850  0.35140  0.51090  Biso   1.000  H
  C37      1.0000 0.40510  0.91890  0.10340  Biso   1.000  C
  C38      1.0000 0.59490  0.08110  0.60340  Biso   1.000  C
  C39      1.0000 0.90510  0.58110  0.10340  Biso   1.000  C
  C40      1.0000 0.09490  0.41890  0.60340  Biso   1.000  C
  H29      1.0000 0.36360  0.96740  0.11480  Biso   1.000  H
  H30      1.0000 0.63640  0.03260  0.61480  Biso   1.000  H
  H31      1.0000 0.86360  0.53260  0.11480  Biso   1.000  H
  H32      1.0000 0.13640  0.46740  0.61480  Biso   1.000  H
  C41      1.0000 0.47150  0.92000  0.14770  Biso   1.000  C
  C42      1.0000 0.52850  0.08000  0.64770  Biso   1.000  C
  C43      1.0000 0.97150  0.58000  0.14770  Biso   1.000  C
  C44      1.0000 0.02850  0.42000  0.64770  Biso   1.000  C
  H33      1.0000 0.47650  0.97030  0.18900  Biso   1.000  H
  H34      1.0000 0.52350  0.02970  0.68900  Biso   1.000  H
  H35      1.0000 0.97650  0.52970  0.18900  Biso   1.000  H
  H36      1.0000 0.02350  0.47030  0.68900  Biso   1.000  H
  C45      1.0000 0.53150  0.84870  0.13290  Biso   1.000  C
  C46      1.0000 0.46850  0.15130  0.63290  Biso   1.000  C
  C47      1.0000 0.03150  0.65130  0.13290  Biso   1.000  C
  C48      1.0000 0.96850  0.34870  0.63290  Biso   1.000  C
  H37      1.0000 0.57810  0.84950  0.16370  Biso   1.000  H
  H38      1.0000 0.42190  0.15050  0.66370  Biso   1.000  H
  H39      1.0000 0.07810  0.65050  0.16370  Biso   1.000  H
  H40      1.0000 0.92190  0.34950  0.66370  Biso   1.000  H
  C49      1.0000 0.64430  0.65850  0.14770  Biso   1.000  C
  C50      1.0000 0.35570  0.34150  0.64770  Biso   1.000  C
  C51      1.0000 0.14430  0.84150  0.14770  Biso   1.000  C
  C52      1.0000 0.85570  0.15850  0.64770  Biso   1.000  C
  C53      1.0000 0.72050  0.68920  0.16070  Biso   1.000  C
  C54      1.0000 0.27950  0.31080  0.66070  Biso   1.000  C
  C55      1.0000 0.22050  0.81080  0.16070  Biso   1.000  C
  C56      1.0000 0.77950  0.18920  0.66070  Biso   1.000  C
  H41      1.0000 0.74920  0.72300  0.12000  Biso   1.000  H
  H42      1.0000 0.25080  0.27700  0.62000  Biso   1.000  H
  H43      1.0000 0.24920  0.77700  0.12000  Biso   1.000  H
  H44      1.0000 0.75080  0.22300  0.62000  Biso   1.000  H
  C57      1.0000 0.75710  0.67200  0.23260  Biso   1.000  C
  C58      1.0000 0.24290  0.32800  0.73260  Biso   1.000  C
  C59      1.0000 0.25710  0.82800  0.23260  Biso   1.000  C
  C60      1.0000 0.74290  0.17200  0.73260  Biso   1.000  C
  H45      1.0000 0.81010  0.69370  0.24110  Biso   1.000  H
  H46      1.0000 0.18990  0.30630  0.74110  Biso   1.000  H
  H47      1.0000 0.31010  0.80630  0.24110  Biso   1.000  H
  H48      1.0000 0.68990  0.19370  0.74110  Biso   1.000  H
  C61      1.0000 0.71490  0.62300  0.29060  Biso   1.000  C
  C62      1.0000 0.28510  0.37700  0.79060  Biso   1.000  C
  C63      1.0000 0.21490  0.87700  0.29060  Biso   1.000  C
  C64      1.0000 0.78510  0.12300  0.79060  Biso   1.000  C
  H49      1.0000 0.73950  0.61040  0.33960  Biso   1.000  H
  H50      1.0000 0.26050  0.38960  0.83960  Biso   1.000  H
  H51      1.0000 0.23950  0.88960  0.33960  Biso   1.000  H
  H52      1.0000 0.76050  0.11040  0.83960  Biso   1.000  H
  C65      1.0000 0.63810  0.59160  0.28000  Biso   1.000  C
  C66      1.0000 0.36190  0.40840  0.78000  Biso   1.000  C
  C67      1.0000 0.13810  0.90840  0.28000  Biso   1.000  C
  C68      1.0000 0.86190  0.09160  0.78000  Biso   1.000  C
  H53      1.0000 0.61000  0.55880  0.32160  Biso   1.000  H
  H54      1.0000 0.39000  0.44120  0.82160  Biso   1.000  H
  H55      1.0000 0.11000  0.94120  0.32160  Biso   1.000  H
  H56      1.0000 0.89000  0.05880  0.82160  Biso   1.000  H
  C69      1.0000 0.60150  0.60770  0.20860  Biso   1.000  C
  C70      1.0000 0.39850  0.39230  0.70860  Biso   1.000  C
  C71      1.0000 0.10150  0.89230  0.20860  Biso   1.000  C
  C72      1.0000 0.89850  0.10770  0.70860  Biso   1.000  C
  C73      1.0000 0.51680  0.57360  0.19490  Biso   1.000  C
  C74      1.0000 0.48320  0.42640  0.69490  Biso   1.000  C
  C75      1.0000 0.01680  0.92640  0.19490  Biso   1.000  C
  C76      1.0000 0.98320  0.07360  0.69490  Biso   1.000  C
  H57      1.0000 0.48420  0.63870  0.18810  Biso   1.000  H
  H58      1.0000 0.51580  0.36130  0.68810  Biso   1.000  H
  H59      1.0000 0.98420  0.86130  0.18810  Biso   1.000  H
  H60      1.0000 0.01580  0.13870  0.68810  Biso   1.000  H
  H61      1.0000 0.51440  0.53280  0.14550  Biso   1.000  H
  H62      1.0000 0.48560  0.46720  0.64550  Biso   1.000  H
  H63      1.0000 0.01440  0.96720  0.14550  Biso   1.000  H
  H64      1.0000 0.98560  0.03280  0.64550  Biso   1.000  H
  C77      1.0000 0.49720  0.40000  0.26300  Biso   1.000  C
  C78      1.0000 0.50280  0.60000  0.76300  Biso   1.000  C
  C79      1.0000 0.99720  0.10000  0.26300  Biso   1.000  C
  C80      1.0000 0.00280  0.90000  0.76300  Biso   1.000  C
  C81      1.0000 0.54860  0.34910  0.21280  Biso   1.000  C
  C82      1.0000 0.45140  0.65090  0.71280  Biso   1.000  C
  C83      1.0000 0.04860  0.15090  0.21280  Biso   1.000  C
  C84      1.0000 0.95140  0.84910  0.71280  Biso   1.000  C
  H65      1.0000 0.57320  0.38910  0.17250  Biso   1.000  H
  H66      1.0000 0.42680  0.61090  0.67250  Biso   1.000  H
  H67      1.0000 0.07320  0.11090  0.17250  Biso   1.000  H
  H68      1.0000 0.92680  0.88910  0.67250  Biso   1.000  H
  C85      1.0000 0.56500  0.24190  0.21980  Biso   1.000  C
  C86      1.0000 0.43500  0.75810  0.71980  Biso   1.000  C
  C87      1.0000 0.06500  0.25810  0.21980  Biso   1.000  C
  C88      1.0000 0.93500  0.74190  0.71980  Biso   1.000  C
  H69      1.0000 0.60130  0.20940  0.18480  Biso   1.000  H
  H70      1.0000 0.39870  0.79060  0.68480  Biso   1.000  H
  H71      1.0000 0.10130  0.29060  0.18480  Biso   1.000  H
  H72      1.0000 0.89870  0.70940  0.68480  Biso   1.000  H
  C89      1.0000 0.52960  0.18050  0.27710  Biso   1.000  C
  C90      1.0000 0.47040  0.81950  0.77710  Biso   1.000  C
  C91      1.0000 0.02960  0.31950  0.27710  Biso   1.000  C
  C92      1.0000 0.97040  0.68050  0.77710  Biso   1.000  C
  H73      1.0000 0.54130  0.10650  0.28240  Biso   1.000  H
  H74      1.0000 0.45870  0.89350  0.78240  Biso   1.000  H
  H75      1.0000 0.04130  0.39350  0.28240  Biso   1.000  H
  H76      1.0000 0.95870  0.60650  0.78240  Biso   1.000  H
  C93      1.0000 0.47600  0.23100  0.32700  Biso   1.000  C
  C94      1.0000 0.52400  0.76900  0.82700  Biso   1.000  C
  C95      1.0000 0.97600  0.26900  0.32700  Biso   1.000  C
  C96      1.0000 0.02400  0.73100  0.82700  Biso   1.000  C
  H77      1.0000 0.45050  0.19030  0.36640  Biso   1.000  H
  H78      1.0000 0.54950  0.80970  0.86640  Biso   1.000  H
  H79      1.0000 0.95050  0.30970  0.36640  Biso   1.000  H
  H80      1.0000 0.04950  0.69030  0.86640  Biso   1.000  H
  C97      1.0000 0.45930  0.33920  0.32040  Biso   1.000  C
  C98      1.0000 0.54070  0.66080  0.82040  Biso   1.000  C
  C99      1.0000 0.95930  0.16080  0.32040  Biso   1.000  C
  C100     1.0000 0.04070  0.83920  0.82040  Biso   1.000  C
  H81      1.0000 0.42240  0.37190  0.35460  Biso   1.000  H
  H82      1.0000 0.57760  0.62810  0.85460  Biso   1.000  H
  H83      1.0000 0.92240  0.12810  0.35460  Biso   1.000  H
  H84      1.0000 0.07760  0.87190  0.85460  Biso   1.000  H
  C101     1.0000 0.44360  0.56730  0.32000  Biso   1.000  C
  C102     1.0000 0.55640  0.43270  0.82000  Biso   1.000  C
  C103     1.0000 0.94360  0.93270  0.32000  Biso   1.000  C
  C104     1.0000 0.05640  0.06730  0.82000  Biso   1.000  C
  H85      1.0000 0.46250  0.64230  0.31900  Biso   1.000  H
  H86      1.0000 0.53750  0.35770  0.81900  Biso   1.000  H
  H87      1.0000 0.96250  0.85770  0.31900  Biso   1.000  H
  H88      1.0000 0.03750  0.14230  0.81900  Biso   1.000  H
  H89      1.0000 0.46120  0.53550  0.37000  Biso   1.000  H
  H90      1.0000 0.53880  0.46450  0.87000  Biso   1.000  H
  H91      1.0000 0.96120  0.96450  0.37000  Biso   1.000  H
  H92      1.0000 0.03880  0.03550  0.87000  Biso   1.000  H
  C105     1.0000 0.35540  0.56870  0.31930  Biso   1.000  C
  C106     1.0000 0.64460  0.43130  0.81930  Biso   1.000  C
  C107     1.0000 0.85540  0.93130  0.31930  Biso   1.000  C
  C108     1.0000 0.14460  0.06870  0.81930  Biso   1.000  C
  C109     1.0000 0.31360  0.53780  0.25330  Biso   1.000  C
  C110     1.0000 0.68640  0.46220  0.75330  Biso   1.000  C
  C111     1.0000 0.81360  0.96220  0.25330  Biso   1.000  C
  C112     1.0000 0.18640  0.03780  0.75330  Biso   1.000  C
  H93      1.0000 0.34190  0.51520  0.20840  Biso   1.000  H
  H94      1.0000 0.65810  0.48480  0.70840  Biso   1.000  H
  H95      1.0000 0.84190  0.98480  0.20840  Biso   1.000  H
  H96      1.0000 0.15810  0.01520  0.70840  Biso   1.000  H
  C113     1.0000 0.23280  0.53900  0.25120  Biso   1.000  C
  C114     1.0000 0.76720  0.46100  0.75120  Biso   1.000  C
  C115     1.0000 0.73280  0.96100  0.25120  Biso   1.000  C
  C116     1.0000 0.26720  0.03900  0.75120  Biso   1.000  C
  H97      1.0000 0.20600  0.51530  0.20580  Biso   1.000  H
  H98      1.0000 0.79400  0.48470  0.70580  Biso   1.000  H
  H99      1.0000 0.70600  0.98470  0.20580  Biso   1.000  H
  H100     1.0000 0.29400  0.01530  0.70580  Biso   1.000  H
  C117     1.0000 0.18960  0.57510  0.31570  Biso   1.000  C
  C118     1.0000 0.81040  0.42490  0.81570  Biso   1.000  C
  C119     1.0000 0.68960  0.92490  0.31570  Biso   1.000  C
  C120     1.0000 0.31040  0.07510  0.81570  Biso   1.000  C
  H101     1.0000 0.13360  0.57910  0.31390  Biso   1.000  H
  H102     1.0000 0.86640  0.42090  0.81390  Biso   1.000  H
  H103     1.0000 0.63360  0.92090  0.31390  Biso   1.000  H
  H104     1.0000 0.36640  0.07910  0.81390  Biso   1.000  H
  C121     1.0000 0.23120  0.60530  0.38320  Biso   1.000  C
  C122     1.0000 0.76880  0.39470  0.88320  Biso   1.000  C
  C123     1.0000 0.73120  0.89470  0.38320  Biso   1.000  C
  C124     1.0000 0.26880  0.10530  0.88320  Biso   1.000  C
  H105     1.0000 0.20280  0.62850  0.42790  Biso   1.000  H
  H106     1.0000 0.79720  0.37150  0.92790  Biso   1.000  H
  H107     1.0000 0.70280  0.87150  0.42790  Biso   1.000  H
  H108     1.0000 0.29720  0.12850  0.92790  Biso   1.000  H
  C125     1.0000 0.31240  0.60180  0.38560  Biso   1.000  C
  C126     1.0000 0.68760  0.39820  0.88560  Biso   1.000  C
  C127     1.0000 0.81240  0.89820  0.38560  Biso   1.000  C
  C128     1.0000 0.18760  0.10180  0.88560  Biso   1.000  C
  C129     1.0000 0.42170  0.75230  0.45670  Biso   1.000  C
  C130     1.0000 0.57830  0.24770  0.95670  Biso   1.000  C
  C131     1.0000 0.92170  0.74770  0.45670  Biso   1.000  C
  C132     1.0000 0.07830  0.25230  0.95670  Biso   1.000  C
  C133     1.0000 0.48800  0.77600  0.50300  Biso   1.000  C
  C134     1.0000 0.51200  0.22400  0.00300  Biso   1.000  C
  C135     1.0000 0.98800  0.72400  0.50300  Biso   1.000  C
  C136     1.0000 0.01200  0.27600  0.00300  Biso   1.000  C
  H109     1.0000 0.50500  0.72600  0.54120  Biso   1.000  H
  H110     1.0000 0.49500  0.27400  0.04120  Biso   1.000  H
  H111     1.0000 0.00500  0.77400  0.54120  Biso   1.000  H
  H112     1.0000 0.99500  0.22600  0.04120  Biso   1.000  H
  C137     1.0000 0.52820  0.86890  0.49410  Biso   1.000  C
  C138     1.0000 0.47180  0.13110  0.99410  Biso   1.000  C
  C139     1.0000 0.02820  0.63110  0.49410  Biso   1.000  C
  C140     1.0000 0.97180  0.36890  0.99410  Biso   1.000  C
  H113     1.0000 0.57210  0.88460  0.52660  Biso   1.000  H
  H114     1.0000 0.42790  0.11540  0.02660  Biso   1.000  H
  H115     1.0000 0.07210  0.61540  0.52660  Biso   1.000  H
  H116     1.0000 0.92790  0.38460  0.02660  Biso   1.000  H
  C141     1.0000 0.50410  0.94250  0.43600  Biso   1.000  C
  C142     1.0000 0.49590  0.05750  0.93600  Biso   1.000  C
  C143     1.0000 0.00410  0.55750  0.43600  Biso   1.000  C
  C144     1.0000 0.99590  0.44250  0.93600  Biso   1.000  C
  H117     1.0000 0.53110  0.00860  0.43030  Biso   1.000  H
  H118     1.0000 0.46890  0.99140  0.93030  Biso   1.000  H
  H119     1.0000 0.03110  0.49140  0.43030  Biso   1.000  H
  H120     1.0000 0.96890  0.50860  0.93030  Biso   1.000  H
  C145     1.0000 0.44240  0.91880  0.38800  Biso   1.000  C
  C146     1.0000 0.55760  0.08120  0.88800  Biso   1.000  C
  C147     1.0000 0.94240  0.58120  0.38800  Biso   1.000  C
  C148     1.0000 0.05760  0.41880  0.88800  Biso   1.000  C
  H121     1.0000 0.42800  0.96680  0.34750  Biso   1.000  H
  H122     1.0000 0.57200  0.03320  0.84750  Biso   1.000  H
  H123     1.0000 0.92800  0.53320  0.34750  Biso   1.000  H
  H124     1.0000 0.07200  0.46680  0.84750  Biso   1.000  H
  C149     1.0000 0.39990  0.82290  0.39850  Biso   1.000  C
  C150     1.0000 0.60010  0.17710  0.89850  Biso   1.000  C
  C151     1.0000 0.89990  0.67710  0.39850  Biso   1.000  C
  C152     1.0000 0.10010  0.32290  0.89850  Biso   1.000  C
  H125     1.0000 0.35620  0.80690  0.36570  Biso   1.000  H
  H126     1.0000 0.64380  0.19310  0.86570  Biso   1.000  H
  H127     1.0000 0.85620  0.69310  0.36570  Biso   1.000  H
  H128     1.0000 0.14380  0.30690  0.86570  Biso   1.000  H
  C153     1.0000 0.29210  0.67290  0.54770  Biso   1.000  C
  C154     1.0000 0.70790  0.32710  0.04770  Biso   1.000  C
  C155     1.0000 0.79210  0.82710  0.54770  Biso   1.000  C
  C156     1.0000 0.20790  0.17290  0.04770  Biso   1.000  C
  C157     1.0000 0.25740  0.77350  0.54400  Biso   1.000  C
  C158     1.0000 0.74260  0.22650  0.04400  Biso   1.000  C
  C159     1.0000 0.75740  0.72650  0.54400  Biso   1.000  C
  C160     1.0000 0.24260  0.27350  0.04400  Biso   1.000  C
  H129     1.0000 0.26950  0.82030  0.50200  Biso   1.000  H
  H130     1.0000 0.73050  0.17970  0.00200  Biso   1.000  H
  H131     1.0000 0.76950  0.67970  0.50200  Biso   1.000  H
  H132     1.0000 0.23050  0.32030  0.00200  Biso   1.000  H
  C161     1.0000 0.20530  0.80550  0.60130  Biso   1.000  C
  C162     1.0000 0.79470  0.19450  0.10130  Biso   1.000  C
  C163     1.0000 0.70530  0.69450  0.60130  Biso   1.000  C
  C164     1.0000 0.29470  0.30550  0.10130  Biso   1.000  C
  H133     1.0000 0.18200  0.87450  0.59850  Biso   1.000  H
  H134     1.0000 0.81800  0.12550  0.09850  Biso   1.000  H
  H135     1.0000 0.68200  0.62550  0.59850  Biso   1.000  H
  H136     1.0000 0.31800  0.37450  0.09850  Biso   1.000  H
  C165     1.0000 0.18660  0.73840  0.66260  Biso   1.000  C
  C166     1.0000 0.81340  0.26160  0.16260  Biso   1.000  C
  C167     1.0000 0.68660  0.76160  0.66260  Biso   1.000  C
  C168     1.0000 0.31340  0.23840  0.16260  Biso   1.000  C
  H137     1.0000 0.15000  0.76050  0.70130  Biso   1.000  H
  H138     1.0000 0.85000  0.23950  0.20130  Biso   1.000  H
  H139     1.0000 0.65000  0.73950  0.70130  Biso   1.000  H
  H140     1.0000 0.35000  0.26050  0.20130  Biso   1.000  H
  C169     1.0000 0.22190  0.63850  0.66690  Biso   1.000  C
  C170     1.0000 0.77810  0.36150  0.16690  Biso   1.000  C
  C171     1.0000 0.72190  0.86150  0.66690  Biso   1.000  C
  C172     1.0000 0.27810  0.13850  0.16690  Biso   1.000  C
  H141     1.0000 0.21000  0.59230  0.70930  Biso   1.000  H
  H142     1.0000 0.79000  0.40770  0.20930  Biso   1.000  H
  H143     1.0000 0.71000  0.90770  0.70930  Biso   1.000  H
  H144     1.0000 0.29000  0.09230  0.20930  Biso   1.000  H
  C173     1.0000 0.27440  0.60570  0.60980  Biso   1.000  C
  C174     1.0000 0.72560  0.39430  0.10980  Biso   1.000  C
  C175     1.0000 0.77440  0.89430  0.60980  Biso   1.000  C
  C176     1.0000 0.22560  0.10570  0.10980  Biso   1.000  C
  H145     1.0000 0.29840  0.53710  0.61310  Biso   1.000  H
  H146     1.0000 0.70160  0.46290  0.11310  Biso   1.000  H
  H147     1.0000 0.79840  0.96290  0.61310  Biso   1.000  H
  H148     1.0000 0.20160  0.03710  0.11310  Biso   1.000  H
