data_image0
_cell_length_a       8.5561
_cell_length_b       10.7702
_cell_length_c       11.9045
_cell_angle_alpha    98.11
_cell_angle_beta     107.193
_cell_angle_gamma    96.449

_symmetry_space_group_name_H-M    "P 1"
_symmetry_int_tables_number       1

loop_
  _symmetry_equiv_pos_as_xyz
  'x, y, z'

loop_
  _atom_site_label
  _atom_site_occupancy
  _atom_site_fract_x
  _atom_site_fract_y
  _atom_site_fract_z
  _atom_site_thermal_displace_type
  _atom_site_B_iso_or_equiv
  _atom_site_type_symbol
  I1       1.0000 0.31696  0.97725  0.10525  Biso   1.000  I
  I2       1.0000 0.68304  0.02275  0.89475  Biso   1.000  I
  Cu1      1.0000 0.38873  0.92391  0.90330  Biso   1.000  Cu
  Cu2      1.0000 0.61127  0.07609  0.09670  Biso   1.000  Cu
  S1       1.0000 0.13540  0.55124  0.27577  Biso   1.000  S
  S2       1.0000 0.86460  0.44876  0.72423  Biso   1.000  S
  S3       1.0000 0.02067  0.43336  0.35509  Biso   1.000  S
  S4       1.0000 0.97933  0.56664  0.64491  Biso   1.000  S
  N1       1.0000 0.20940  0.51820  0.08090  Biso   1.000  N
  N2       1.0000 0.79060  0.48180  0.91910  Biso   1.000  N
  C1       1.0000 0.30210  0.52580  0.91000  Biso   1.000  C
  C2       1.0000 0.69790  0.47420  0.09000  Biso   1.000  C
  N3       1.0000 0.09480  0.32670  0.12710  Biso   1.000  N
  N4       1.0000 0.90520  0.67330  0.87290  Biso   1.000  N
  N5       1.0000 0.38150  0.73220  0.87040  Biso   1.000  N
  N6       1.0000 0.61850  0.26780  0.12960  Biso   1.000  N
  C3       1.0000 0.14550  0.45130  0.14660  Biso   1.000  C
  C4       1.0000 0.85450  0.54870  0.85340  Biso   1.000  C
  N7       1.0000 0.12350  0.28200  0.49990  Biso   1.000  N
  N8       1.0000 0.87650  0.71800  0.50010  Biso   1.000  N
  C5       1.0000 0.31420  0.65740  0.92950  Biso   1.000  C
  C6       1.0000 0.68580  0.34260  0.07050  Biso   1.000  C
  H1       1.0000 0.27280  0.69550  0.98730  Biso   1.000  H
  H2       1.0000 0.72720  0.30450  0.01270  Biso   1.000  H
  C7       1.0000 0.22840  0.45230  0.98170  Biso   1.000  C
  C8       1.0000 0.77160  0.54770  0.01830  Biso   1.000  C
  C9       1.0000 0.17970  0.35660  0.43570  Biso   1.000  C
  C10      1.0000 0.82030  0.64340  0.56430  Biso   1.000  C
  C11      1.0000 0.43460  0.54830  0.76200  Biso   1.000  C
  C12      1.0000 0.56540  0.45170  0.23800  Biso   1.000  C
  H3       1.0000 0.47720  0.51300  0.70370  Biso   1.000  H
  H4       1.0000 0.52280  0.48700  0.29630  Biso   1.000  H
  C13      1.0000 0.23020  0.21870  0.56380  Biso   1.000  C
  C14      1.0000 0.76980  0.78130  0.43620  Biso   1.000  C
  C15      1.0000 0.39360  0.23310  0.56250  Biso   1.000  C
  C16      1.0000 0.60640  0.76690  0.43750  Biso   1.000  C
  H5       1.0000 0.47040  0.18940  0.60670  Biso   1.000  H
  H6       1.0000 0.52960  0.81060  0.39330  Biso   1.000  H
  C17      1.0000 0.36390  0.47190  0.82240  Biso   1.000  C
  C18      1.0000 0.63610  0.52810  0.17760  Biso   1.000  C
  H7       1.0000 0.35720  0.38420  0.80490  Biso   1.000  H
  H8       1.0000 0.64280  0.61580  0.19510  Biso   1.000  H
  N9       1.0000 0.33120  0.37770  0.42770  Biso   1.000  N
  N10      1.0000 0.66880  0.62230  0.57230  Biso   1.000  N
  C19      1.0000 0.43710  0.31470  0.49330  Biso   1.000  C
  C20      1.0000 0.56290  0.68530  0.50670  Biso   1.000  C
  H9       1.0000 0.54610  0.32610  0.49250  Biso   1.000  H
  H10      1.0000 0.45390  0.67390  0.50750  Biso   1.000  H
  C21      1.0000 0.44190  0.67720  0.78830  Biso   1.000  C
  C22      1.0000 0.55810  0.32280  0.21170  Biso   1.000  C
  H11      1.0000 0.49090  0.72840  0.74720  Biso   1.000  H
  H12      1.0000 0.50910  0.27160  0.25280  Biso   1.000  H
  C23      1.0000 0.11150  0.26360  0.02810  Biso   1.000  C
  C24      1.0000 0.88850  0.73640  0.97190  Biso   1.000  C
  H13      1.0000 0.07660  0.17610  0.00870  Biso   1.000  H
  H14      1.0000 0.92340  0.82390  0.99130  Biso   1.000  H
  C25      1.0000 0.17750  0.32130  0.95340  Biso   1.000  C
  C26      1.0000 0.82250  0.67870  0.04660  Biso   1.000  C
  H15      1.0000 0.18830  0.27390  0.88520  Biso   1.000  H
  H16      1.0000 0.81170  0.72610  0.11480  Biso   1.000  H
  C27      1.0000 0.16710  0.13410  0.63360  Biso   1.000  C
  C28      1.0000 0.83290  0.86590  0.36640  Biso   1.000  C
  C29      1.0000 0.99890  0.11120  0.62090  Biso   1.000  C
  C30      1.0000 0.00110  0.88880  0.37910  Biso   1.000  C
  H17      1.0000 0.92390  0.15000  0.56910  Biso   1.000  H
  H18      1.0000 0.07610  0.85000  0.43090  Biso   1.000  H
  C31      1.0000 0.94550  0.03010  0.68640  Biso   1.000  C
  C32      1.0000 0.05450  0.96990  0.31360  Biso   1.000  C
  H19      1.0000 0.83370  0.01410  0.67960  Biso   1.000  H
  H20      1.0000 0.16630  0.98590  0.32040  Biso   1.000  H
  C33      1.0000 0.27010  0.07330  0.71250  Biso   1.000  C
  C34      1.0000 0.72990  0.92670  0.28750  Biso   1.000  C
  H21      1.0000 0.38270  0.08800  0.72170  Biso   1.000  H
  H22      1.0000 0.61730  0.91200  0.27830  Biso   1.000  H
  C35      1.0000 0.05540  0.97360  0.76040  Biso   1.000  C
  C36      1.0000 0.94460  0.02640  0.23960  Biso   1.000  C
  H23      1.0000 0.01610  0.91750  0.80230  Biso   1.000  H
  H24      1.0000 0.98390  0.08250  0.19770  Biso   1.000  H
  N11      1.0000 0.21910  0.99470  0.77650  Biso   1.000  N
  N12      1.0000 0.78090  0.00530  0.22350  Biso   1.000  N
