data_image0
_cell_length_a       13.708
_cell_length_b       20.179
_cell_length_c       13.369
_cell_angle_alpha    105.81
_cell_angle_beta     100.16
_cell_angle_gamma    102.04

_symmetry_space_group_name_H-M    "P 1"
_symmetry_int_tables_number       1

loop_
  _symmetry_equiv_pos_as_xyz
  'x, y, z'

loop_
  _atom_site_label
  _atom_site_occupancy
  _atom_site_fract_x
  _atom_site_fract_y
  _atom_site_fract_z
  _atom_site_thermal_displace_type
  _atom_site_B_iso_or_equiv
  _atom_site_type_symbol
  Cu1      1.0000 0.59073  0.27220  0.68969  Biso   1.000  Cu
  Cu2      1.0000 0.40927  0.72780  0.31031  Biso   1.000  Cu
  Cu3      1.0000 0.87855  0.20494  0.20191  Biso   1.000  Cu
  Cu4      1.0000 0.12145  0.79506  0.79809  Biso   1.000  Cu
  P1       1.0000 0.43045  0.22696  0.70488  Biso   1.000  P
  P2       1.0000 0.56955  0.77304  0.29512  Biso   1.000  P
  P3       1.0000 0.67323  0.38752  0.79332  Biso   1.000  P
  P4       1.0000 0.32677  0.61248  0.20668  Biso   1.000  P
  P5       1.0000 0.04329  0.26757  0.22555  Biso   1.000  P
  P6       1.0000 0.95671  0.73243  0.77445  Biso   1.000  P
  P7       1.0000 0.83268  0.10818  0.25707  Biso   1.000  P
  P8       1.0000 0.16732  0.89182  0.74293  Biso   1.000  P
  C1       1.0000 0.34870  0.28690  0.69960  Biso   1.000  C
  C2       1.0000 0.65130  0.71310  0.30040  Biso   1.000  C
  C3       1.0000 0.33740  0.33310  0.79080  Biso   1.000  C
  C4       1.0000 0.66260  0.66690  0.20920  Biso   1.000  C
  C5       1.0000 0.28540  0.38360  0.78430  Biso   1.000  C
  C6       1.0000 0.71460  0.61640  0.21570  Biso   1.000  C
  C7       1.0000 0.24540  0.39050  0.68870  Biso   1.000  C
  C8       1.0000 0.75460  0.60950  0.31130  Biso   1.000  C
  C9       1.0000 0.25590  0.34490  0.59700  Biso   1.000  C
  C10      1.0000 0.74410  0.65510  0.40300  Biso   1.000  C
  C11      1.0000 0.30690  0.29370  0.60160  Biso   1.000  C
  C12      1.0000 0.69310  0.70630  0.39840  Biso   1.000  C
  C13      1.0000 0.35700  0.14350  0.60080  Biso   1.000  C
  C14      1.0000 0.64300  0.85650  0.39920  Biso   1.000  C
  C15      1.0000 0.25030  0.12000  0.57330  Biso   1.000  C
  C16      1.0000 0.74970  0.88000  0.42670  Biso   1.000  C
  C17      1.0000 0.19980  0.05540  0.49240  Biso   1.000  C
  C18      1.0000 0.80020  0.94460  0.50760  Biso   1.000  C
  C19      1.0000 0.25370  0.01510  0.44060  Biso   1.000  C
  C20      1.0000 0.74630  0.98490  0.55940  Biso   1.000  C
  C21      1.0000 0.35890  0.03690  0.46720  Biso   1.000  C
  C22      1.0000 0.64110  0.96310  0.53280  Biso   1.000  C
  C23      1.0000 0.41090  0.10180  0.54540  Biso   1.000  C
  C24      1.0000 0.58910  0.89820  0.45460  Biso   1.000  C
  C25      1.0000 0.42430  0.20940  0.83100  Biso   1.000  C
  C26      1.0000 0.57570  0.79060  0.16900  Biso   1.000  C
  C27      1.0000 0.33330  0.17520  0.84960  Biso   1.000  C
  C28      1.0000 0.66670  0.82480  0.15040  Biso   1.000  C
  C29      1.0000 0.33170  0.16650  0.94710  Biso   1.000  C
  C30      1.0000 0.66830  0.83350  0.05290  Biso   1.000  C
  C31      1.0000 0.41740  0.19190  0.02880  Biso   1.000  C
  C32      1.0000 0.58260  0.80810  0.97120  Biso   1.000  C
  C33      1.0000 0.50810  0.22420  0.01200  Biso   1.000  C
  C34      1.0000 0.49190  0.77580  0.98800  Biso   1.000  C
  C35      1.0000 0.51160  0.23280  0.91260  Biso   1.000  C
  C36      1.0000 0.48840  0.76720  0.08740  Biso   1.000  C
  C37      1.0000 0.62040  0.45640  0.75980  Biso   1.000  C
  C38      1.0000 0.37960  0.54360  0.24020  Biso   1.000  C
  C39      1.0000 0.65280  0.52790  0.82100  Biso   1.000  C
  C40      1.0000 0.34720  0.47210  0.17900  Biso   1.000  C
  C41      1.0000 0.60940  0.57750  0.78920  Biso   1.000  C
  C42      1.0000 0.39060  0.42250  0.21080  Biso   1.000  C
  C43      1.0000 0.53580  0.55670  0.69790  Biso   1.000  C
  C44      1.0000 0.46420  0.44330  0.30210  Biso   1.000  C
  C45      1.0000 0.50200  0.48650  0.63740  Biso   1.000  C
  C46      1.0000 0.49800  0.51350  0.36260  Biso   1.000  C
  C47      1.0000 0.54320  0.43610  0.66700  Biso   1.000  C
  C48      1.0000 0.45680  0.56390  0.33300  Biso   1.000  C
  C49      1.0000 0.80830  0.41430  0.79210  Biso   1.000  C
  C50      1.0000 0.19170  0.58570  0.20790  Biso   1.000  C
  C51      1.0000 0.87900  0.47590  0.86530  Biso   1.000  C
  C52      1.0000 0.12100  0.52410  0.13470  Biso   1.000  C
  C53      1.0000 0.97930  0.49390  0.85800  Biso   1.000  C
  C54      1.0000 0.02070  0.50610  0.14200  Biso   1.000  C
  C55      1.0000 0.01270  0.45130  0.78150  Biso   1.000  C
  C56      1.0000 0.98730  0.54870  0.21850  Biso   1.000  C
  C57      1.0000 0.94560  0.39010  0.70960  Biso   1.000  C
  C58      1.0000 0.05440  0.60990  0.29040  Biso   1.000  C
  C59      1.0000 0.84390  0.37170  0.71530  Biso   1.000  C
  C60      1.0000 0.15610  0.62830  0.28470  Biso   1.000  C
  C61      1.0000 0.67830  0.40330  0.93540  Biso   1.000  C
  C62      1.0000 0.32170  0.59670  0.06460  Biso   1.000  C
  C63      1.0000 0.60630  0.43090  0.98160  Biso   1.000  C
  C64      1.0000 0.39370  0.56910  0.01840  Biso   1.000  C
  C65      1.0000 0.60430  0.43400  0.08530  Biso   1.000  C
  C66      1.0000 0.39570  0.56600  0.91470  Biso   1.000  C
  C67      1.0000 0.67190  0.40980  0.14390  Biso   1.000  C
  C68      1.0000 0.32810  0.59020  0.85610  Biso   1.000  C
  C69      1.0000 0.74260  0.38180  0.09890  Biso   1.000  C
  C70      1.0000 0.25740  0.61820  0.90110  Biso   1.000  C
  C71      1.0000 0.74560  0.37880  0.99520  Biso   1.000  C
  C72      1.0000 0.25440  0.62120  0.00480  Biso   1.000  C
  C73      1.0000 0.14760  0.22820  0.26070  Biso   1.000  C
  C74      1.0000 0.85240  0.77180  0.73930  Biso   1.000  C
  C75      1.0000 0.12620  0.15500  0.23210  Biso   1.000  C
  C76      1.0000 0.87380  0.84500  0.76790  Biso   1.000  C
  C77      1.0000 0.20330  0.12170  0.24980  Biso   1.000  C
  C78      1.0000 0.79670  0.87830  0.75020  Biso   1.000  C
  C79      1.0000 0.30270  0.16250  0.29640  Biso   1.000  C
  C80      1.0000 0.69730  0.83750  0.70360  Biso   1.000  C
  C81      1.0000 0.32590  0.23490  0.32420  Biso   1.000  C
  C82      1.0000 0.67410  0.76510  0.67580  Biso   1.000  C
  C83      1.0000 0.24910  0.26770  0.30790  Biso   1.000  C
  C84      1.0000 0.75090  0.73230  0.69210  Biso   1.000  C
  C85      1.0000 0.08220  0.35630  0.32510  Biso   1.000  C
  C86      1.0000 0.91780  0.64370  0.67490  Biso   1.000  C
  C87      1.0000 0.15500  0.41350  0.32030  Biso   1.000  C
  C88      1.0000 0.84500  0.58650  0.67970  Biso   1.000  C
  C89      1.0000 0.18540  0.47820  0.39980  Biso   1.000  C
  C90      1.0000 0.81460  0.52180  0.60020  Biso   1.000  C
  C91      1.0000 0.14180  0.48740  0.48510  Biso   1.000  C
  C92      1.0000 0.85820  0.51260  0.51490  Biso   1.000  C
  C93      1.0000 0.06780  0.43280  0.49100  Biso   1.000  C
  C94      1.0000 0.93220  0.56720  0.50900  Biso   1.000  C
  C95      1.0000 0.03860  0.36730  0.41200  Biso   1.000  C
  C96      1.0000 0.96140  0.63270  0.58800  Biso   1.000  C
  C97      1.0000 0.06670  0.28620  0.10370  Biso   1.000  C
  C98      1.0000 0.93330  0.71380  0.89630  Biso   1.000  C
  C99      1.0000 0.14490  0.27140  0.05860  Biso   1.000  C
  C100     1.0000 0.85510  0.72860  0.94140  Biso   1.000  C
  C101     1.0000 0.15670  0.28720  0.96630  Biso   1.000  C
  C102     1.0000 0.84330  0.71280  0.03370  Biso   1.000  C
  C103     1.0000 0.09010  0.31610  0.91750  Biso   1.000  C
  C104     1.0000 0.90990  0.68390  0.08250  Biso   1.000  C
  C105     1.0000 0.01090  0.33030  0.95970  Biso   1.000  C
  C106     1.0000 0.98910  0.66970  0.04030  Biso   1.000  C
  C107     1.0000 0.99850  0.31500  0.05190  Biso   1.000  C
  C108     1.0000 0.00150  0.68500  0.94810  Biso   1.000  C
  C109     1.0000 0.69560  0.06620  0.22300  Biso   1.000  C
  C110     1.0000 0.30440  0.93380  0.77700  Biso   1.000  C
  C111     1.0000 0.65360  0.00920  0.25590  Biso   1.000  C
  C112     1.0000 0.34640  0.99080  0.74410  Biso   1.000  C
  C113     1.0000 0.54900  0.97850  0.22620  Biso   1.000  C
  C114     1.0000 0.45100  0.02150  0.77380  Biso   1.000  C
  C115     1.0000 0.48550  0.00260  0.16450  Biso   1.000  C
  C116     1.0000 0.51450  0.99740  0.83550  Biso   1.000  C
  C117     1.0000 0.52470  0.05790  0.13000  Biso   1.000  C
  C118     1.0000 0.47530  0.94210  0.87000  Biso   1.000  C
  C119     1.0000 0.62980  0.08920  0.16020  Biso   1.000  C
  C120     1.0000 0.37020  0.91080  0.83980  Biso   1.000  C
  C121     1.0000 0.88420  0.03180  0.21620  Biso   1.000  C
  C122     1.0000 0.11580  0.96820  0.78380  Biso   1.000  C
  C123     1.0000 0.91880  0.99590  0.28320  Biso   1.000  C
  C124     1.0000 0.08120  0.00410  0.71680  Biso   1.000  C
  C125     1.0000 0.95840  0.93840  0.24510  Biso   1.000  C
  C126     1.0000 0.04160  0.06160  0.75490  Biso   1.000  C
  C127     1.0000 0.96150  0.91640  0.13990  Biso   1.000  C
  C128     1.0000 0.03850  0.08360  0.86010  Biso   1.000  C
  C129     1.0000 0.92710  0.95070  0.07400  Biso   1.000  C
  C130     1.0000 0.07290  0.04930  0.92600  Biso   1.000  C
  C131     1.0000 0.88840  0.00810  0.11030  Biso   1.000  C
  C132     1.0000 0.11160  0.99190  0.88970  Biso   1.000  C
  C133     1.0000 0.87190  0.13940  0.40270  Biso   1.000  C
  C134     1.0000 0.12810  0.86060  0.59730  Biso   1.000  C
  C135     1.0000 0.80290  0.14720  0.46480  Biso   1.000  C
  C136     1.0000 0.19710  0.85280  0.53520  Biso   1.000  C
  C137     1.0000 0.83630  0.17820  0.57410  Biso   1.000  C
  C138     1.0000 0.16370  0.82180  0.42590  Biso   1.000  C
  C139     1.0000 0.93710  0.20060  0.62290  Biso   1.000  C
  C140     1.0000 0.06290  0.79940  0.37710  Biso   1.000  C
  C141     1.0000 0.00850  0.19590  0.56300  Biso   1.000  C
  C142     1.0000 0.99150  0.80410  0.43700  Biso   1.000  C
  C143     1.0000 0.97450  0.16510  0.45340  Biso   1.000  C
  C144     1.0000 0.02550  0.83490  0.54660  Biso   1.000  C
  N1       1.0000 0.67380  0.21110  0.74250  Biso   1.000  N
  N2       1.0000 0.32620  0.78890  0.25750  Biso   1.000  N
  C145     1.0000 0.71490  0.17790  0.78000  Biso   1.000  C
  C146     1.0000 0.28510  0.82210  0.22000  Biso   1.000  C
  B1       1.0000 0.77560  0.13090  0.82800  Biso   1.000  B
  B2       1.0000 0.22440  0.86910  0.17200  Biso   1.000  B
  C147     1.0000 0.79630  0.15770  0.95400  Biso   1.000  C
  C148     1.0000 0.20370  0.84230  0.04600  Biso   1.000  C
  N3       1.0000 0.81400  0.17680  0.04430  Biso   1.000  N
  N4       1.0000 0.18600  0.82320  0.95570  Biso   1.000  N
  N5       1.0000 0.79040  0.26280  0.27840  Biso   1.000  N
  N6       1.0000 0.20960  0.73720  0.72160  Biso   1.000  N
  C149     1.0000 0.72740  0.27790  0.31760  Biso   1.000  C
  C150     1.0000 0.27260  0.72210  0.68240  Biso   1.000  C
  B3       1.0000 0.63650  0.30140  0.36330  Biso   1.000  B
  B4       1.0000 0.36350  0.69860  0.63670  Biso   1.000  B
  C151     1.0000 0.61920  0.27680  0.46310  Biso   1.000  C
  C152     1.0000 0.38080  0.72320  0.53690  Biso   1.000  C
  N7       1.0000 0.60240  0.26470  0.53770  Biso   1.000  N
  N8       1.0000 0.39760  0.73530  0.46230  Biso   1.000  N
  H1       1.0000 0.36800  0.33000  0.86300  Biso   1.000  H
  H2       1.0000 0.63200  0.67000  0.13700  Biso   1.000  H
  H3       1.0000 0.28200  0.41500  0.84900  Biso   1.000  H
  H4       1.0000 0.71800  0.58500  0.15100  Biso   1.000  H
  H5       1.0000 0.21100  0.43000  0.68900  Biso   1.000  H
  H6       1.0000 0.78900  0.57000  0.31100  Biso   1.000  H
  H7       1.0000 0.23300  0.34800  0.54300  Biso   1.000  H
  H8       1.0000 0.76700  0.65200  0.45700  Biso   1.000  H
  H9       1.0000 0.31800  0.26100  0.54200  Biso   1.000  H
  H10      1.0000 0.68200  0.73900  0.45800  Biso   1.000  H
  H11      1.0000 0.21200  0.14900  0.60700  Biso   1.000  H
  H12      1.0000 0.78800  0.85100  0.39300  Biso   1.000  H
  H13      1.0000 0.13000  0.04400  0.47300  Biso   1.000  H
  H14      1.0000 0.87000  0.95600  0.52700  Biso   1.000  H
  H15      1.0000 0.21400  0.96900  0.38400  Biso   1.000  H
  H16      1.0000 0.78600  0.03100  0.61600  Biso   1.000  H
  H17      1.0000 0.39800  0.01500  0.43700  Biso   1.000  H
  H18      1.0000 0.60200  0.98500  0.56300  Biso   1.000  H
  H19      1.0000 0.48400  0.12000  0.56100  Biso   1.000  H
  H20      1.0000 0.51600  0.88000  0.43900  Biso   1.000  H
  H21      1.0000 0.28000  0.16200  0.79800  Biso   1.000  H
  H22      1.0000 0.72000  0.83800  0.20200  Biso   1.000  H
  H23      1.0000 0.27200  0.14100  0.95700  Biso   1.000  H
  H24      1.0000 0.72800  0.85900  0.04300  Biso   1.000  H
  H25      1.0000 0.41700  0.18600  0.09500  Biso   1.000  H
  H26      1.0000 0.58300  0.81400  0.90500  Biso   1.000  H
  H27      1.0000 0.57000  0.23700  0.06300  Biso   1.000  H
  H28      1.0000 0.43000  0.76300  0.93700  Biso   1.000  H
  H29      1.0000 0.57400  0.25400  0.90300  Biso   1.000  H
  H30      1.0000 0.42600  0.74600  0.09700  Biso   1.000  H
  H31      1.0000 0.69400  0.54300  0.88600  Biso   1.000  H
  H32      1.0000 0.30600  0.45700  0.11400  Biso   1.000  H
  H33      1.0000 0.63400  0.62600  0.83400  Biso   1.000  H
  H34      1.0000 0.36600  0.37400  0.16600  Biso   1.000  H
  H35      1.0000 0.49600  0.58800  0.67700  Biso   1.000  H
  H36      1.0000 0.50400  0.41200  0.32300  Biso   1.000  H
  H37      1.0000 0.45400  0.47200  0.57800  Biso   1.000  H
  H38      1.0000 0.54600  0.52800  0.42200  Biso   1.000  H
  H39      1.0000 0.52100  0.38900  0.62400  Biso   1.000  H
  H40      1.0000 0.47900  0.61100  0.37600  Biso   1.000  H
  H41      1.0000 0.85600  0.50400  0.91800  Biso   1.000  H
  H42      1.0000 0.14400  0.49600  0.08200  Biso   1.000  H
  H43      1.0000 0.02000  0.53100  0.91100  Biso   1.000  H
  H44      1.0000 0.98000  0.46900  0.08900  Biso   1.000  H
  H45      1.0000 0.07900  0.46600  0.77800  Biso   1.000  H
  H46      1.0000 0.92100  0.53400  0.22200  Biso   1.000  H
  H47      1.0000 0.96400  0.35800  0.65500  Biso   1.000  H
  H48      1.0000 0.03600  0.64200  0.34500  Biso   1.000  H
  H49      1.0000 0.79900  0.33200  0.67100  Biso   1.000  H
  H50      1.0000 0.20100  0.66800  0.32900  Biso   1.000  H
  H51      1.0000 0.56100  0.44800  0.94500  Biso   1.000  H
  H52      1.0000 0.43900  0.55200  0.05500  Biso   1.000  H
  H53      1.0000 0.55600  0.45600  0.11600  Biso   1.000  H
  H54      1.0000 0.44400  0.54400  0.88400  Biso   1.000  H
  H55      1.0000 0.67100  0.40900  0.21500  Biso   1.000  H
  H56      1.0000 0.32900  0.59100  0.78500  Biso   1.000  H
  H57      1.0000 0.78900  0.36300  0.13500  Biso   1.000  H
  H58      1.0000 0.21100  0.63700  0.86500  Biso   1.000  H
  H59      1.0000 0.79200  0.35500  0.96600  Biso   1.000  H
  H60      1.0000 0.20800  0.64500  0.03400  Biso   1.000  H
  H61      1.0000 0.06100  0.13000  0.19400  Biso   1.000  H
  H62      1.0000 0.93900  0.87000  0.80600  Biso   1.000  H
  H63      1.0000 0.18600  0.07200  0.22600  Biso   1.000  H
  H64      1.0000 0.81400  0.92800  0.77400  Biso   1.000  H
  H65      1.0000 0.34300  0.14200  0.30700  Biso   1.000  H
  H66      1.0000 0.65700  0.85800  0.69300  Biso   1.000  H
  H67      1.0000 0.39800  0.26400  0.36100  Biso   1.000  H
  H68      1.0000 0.60200  0.73600  0.63900  Biso   1.000  H
  H69      1.0000 0.26700  0.31500  0.32600  Biso   1.000  H
  H70      1.0000 0.73300  0.68500  0.67400  Biso   1.000  H
  H71      1.0000 0.17900  0.40800  0.26300  Biso   1.000  H
  H72      1.0000 0.82100  0.59200  0.73700  Biso   1.000  H
  H73      1.0000 0.23700  0.51400  0.40400  Biso   1.000  H
  H74      1.0000 0.76300  0.48600  0.59600  Biso   1.000  H
  H75      1.0000 0.15900  0.52900  0.53500  Biso   1.000  H
  H76      1.0000 0.84100  0.47100  0.46500  Biso   1.000  H
  H77      1.0000 0.03400  0.43900  0.54500  Biso   1.000  H
  H78      1.0000 0.96600  0.56100  0.45500  Biso   1.000  H
  H79      1.0000 0.98900  0.32900  0.41700  Biso   1.000  H
  H80      1.0000 0.01100  0.67100  0.58300  Biso   1.000  H
  H81      1.0000 0.18700  0.25300  0.09000  Biso   1.000  H
  H82      1.0000 0.81300  0.74700  0.91000  Biso   1.000  H
  H83      1.0000 0.21000  0.27700  0.94500  Biso   1.000  H
  H84      1.0000 0.79000  0.72300  0.05500  Biso   1.000  H
  H85      1.0000 0.09600  0.32800  0.85800  Biso   1.000  H
  H86      1.0000 0.90400  0.67200  0.14200  Biso   1.000  H
  H87      1.0000 0.96800  0.35200  0.93000  Biso   1.000  H
  H88      1.0000 0.03200  0.64800  0.07000  Biso   1.000  H
  H89      1.0000 0.94300  0.31900  0.07800  Biso   1.000  H
  H90      1.0000 0.05700  0.68100  0.92200  Biso   1.000  H
  H91      1.0000 0.69800  0.99400  0.30400  Biso   1.000  H
  H92      1.0000 0.30200  0.00600  0.69600  Biso   1.000  H
  H93      1.0000 0.52200  0.93900  0.24900  Biso   1.000  H
  H94      1.0000 0.47800  0.06100  0.75100  Biso   1.000  H
  H95      1.0000 0.41500  0.98500  0.14900  Biso   1.000  H
  H96      1.0000 0.58500  0.01500  0.85100  Biso   1.000  H
  H97      1.0000 0.48500  0.07700  0.07700  Biso   1.000  H
  H98      1.0000 0.51500  0.92300  0.92300  Biso   1.000  H
  H99      1.0000 0.65600  0.12400  0.13800  Biso   1.000  H
  H100     1.0000 0.34400  0.87600  0.86200  Biso   1.000  H
  H101     1.0000 0.91400  0.01300  0.35600  Biso   1.000  H
  H102     1.0000 0.08600  0.98700  0.64400  Biso   1.000  H
  H103     1.0000 0.97500  0.92100  0.29300  Biso   1.000  H
  H104     1.0000 0.02500  0.07900  0.70700  Biso   1.000  H
  H105     1.0000 0.98500  0.87400  0.11600  Biso   1.000  H
  H106     1.0000 0.01500  0.12600  0.88400  Biso   1.000  H
  H107     1.0000 0.92500  0.93700  0.00900  Biso   1.000  H
  H108     1.0000 0.07500  0.06300  0.99100  Biso   1.000  H
  H109     1.0000 0.86600  0.03400  0.06400  Biso   1.000  H
  H110     1.0000 0.13400  0.96600  0.93600  Biso   1.000  H
  H111     1.0000 0.72900  0.13100  0.43500  Biso   1.000  H
  H112     1.0000 0.27100  0.86900  0.56500  Biso   1.000  H
  H113     1.0000 0.78900  0.18500  0.61800  Biso   1.000  H
  H114     1.0000 0.21100  0.81500  0.38200  Biso   1.000  H
  H115     1.0000 0.96200  0.21900  0.69800  Biso   1.000  H
  H116     1.0000 0.03800  0.78100  0.30200  Biso   1.000  H
  H117     1.0000 0.07200  0.21300  0.60000  Biso   1.000  H
  H118     1.0000 0.92800  0.78700  0.40000  Biso   1.000  H
  H119     1.0000 0.02400  0.15500  0.41300  Biso   1.000  H
  H120     1.0000 0.97600  0.84500  0.58700  Biso   1.000  H
  H121     1.0000 0.72700  0.07300  0.79900  Biso   1.000  H
  H122     1.0000 0.27300  0.92700  0.20100  Biso   1.000  H
  H123     1.0000 0.84800  0.14200  0.81000  Biso   1.000  H
  H124     1.0000 0.15200  0.85800  0.19000  Biso   1.000  H
  H125     1.0000 0.64700  0.36100  0.38900  Biso   1.000  H
  H126     1.0000 0.35300  0.63900  0.61100  Biso   1.000  H
  H127     1.0000 0.57100  0.27800  0.30300  Biso   1.000  H
  H128     1.0000 0.42900  0.72200  0.69700  Biso   1.000  H
