data_image0
_cell_length_a       3.706
_cell_length_b       15.3779
_cell_length_c       13.3228
_cell_angle_alpha    90
_cell_angle_beta     92.006
_cell_angle_gamma    90

_symmetry_space_group_name_H-M    "P 1"
_symmetry_int_tables_number       1

loop_
  _symmetry_equiv_pos_as_xyz
  'x, y, z'

loop_
  _atom_site_label
  _atom_site_occupancy
  _atom_site_fract_x
  _atom_site_fract_y
  _atom_site_fract_z
  _atom_site_thermal_displace_type
  _atom_site_B_iso_or_equiv
  _atom_site_type_symbol
  Cu1      1.0000 0.19494  0.02318  0.91758  Biso   1.000  Cu
  Cu2      1.0000 0.80506  0.52318  0.58242  Biso   1.000  Cu
  Cu3      1.0000 0.80506  0.97682  0.08242  Biso   1.000  Cu
  Cu4      1.0000 0.19494  0.47682  0.41758  Biso   1.000  Cu
  Cl1      1.0000 0.67684  0.93145  0.90249  Biso   1.000  Cl
  Cl2      1.0000 0.32316  0.43145  0.59751  Biso   1.000  Cl
  Cl3      1.0000 0.32316  0.06855  0.09751  Biso   1.000  Cl
  Cl4      1.0000 0.67684  0.56855  0.40249  Biso   1.000  Cl
  C1       1.0000 0.91890  0.19910  0.90630  Biso   1.000  C
  C2       1.0000 0.08110  0.69910  0.59370  Biso   1.000  C
  C3       1.0000 0.08110  0.80090  0.09370  Biso   1.000  C
  C4       1.0000 0.91890  0.30090  0.40630  Biso   1.000  C
  H1       1.0000 0.86530  0.18760  0.97270  Biso   1.000  H
  H2       1.0000 0.13470  0.68760  0.52730  Biso   1.000  H
  H3       1.0000 0.13470  0.81240  0.02730  Biso   1.000  H
  H4       1.0000 0.86530  0.31240  0.47270  Biso   1.000  H
  O1       1.0000 0.57210  0.41305  0.88980  Biso   1.000  O
  O2       1.0000 0.42790  0.91305  0.61020  Biso   1.000  O
  O3       1.0000 0.42790  0.58695  0.11020  Biso   1.000  O
  O4       1.0000 0.57210  0.08695  0.38980  Biso   1.000  O
  O5       1.0000 0.59710  0.32406  0.01561  Biso   1.000  O
  O6       1.0000 0.40290  0.82406  0.48439  Biso   1.000  O
  O7       1.0000 0.40290  0.67594  0.98439  Biso   1.000  O
  O8       1.0000 0.59710  0.17594  0.51561  Biso   1.000  O
  N1       1.0000 0.07740  0.13666  0.85250  Biso   1.000  N
  N2       1.0000 0.92260  0.63666  0.64750  Biso   1.000  N
  N3       1.0000 0.92260  0.86334  0.14750  Biso   1.000  N
  N4       1.0000 0.07740  0.36334  0.35250  Biso   1.000  N
  N5       1.0000 0.65920  0.34308  0.92760  Biso   1.000  N
  N6       1.0000 0.34080  0.84308  0.57240  Biso   1.000  N
  N7       1.0000 0.34080  0.65692  0.07240  Biso   1.000  N
  N8       1.0000 0.65920  0.15692  0.42760  Biso   1.000  N
  C5       1.0000 0.07200  0.23620  0.71100  Biso   1.000  C
  C6       1.0000 0.92800  0.73620  0.78900  Biso   1.000  C
  C7       1.0000 0.92800  0.76380  0.28900  Biso   1.000  C
  C8       1.0000 0.07200  0.26380  0.21100  Biso   1.000  C
  H5       1.0000 0.12820  0.24700  0.64470  Biso   1.000  H
  H6       1.0000 0.87180  0.74700  0.85530  Biso   1.000  H
  H7       1.0000 0.87180  0.75300  0.35530  Biso   1.000  H
  H8       1.0000 0.12820  0.25300  0.14470  Biso   1.000  H
  N9       1.0000 0.30340  0.09108  0.70280  Biso   1.000  N
  N10      1.0000 0.69660  0.59108  0.79720  Biso   1.000  N
  N11      1.0000 0.69660  0.90892  0.29720  Biso   1.000  N
  N12      1.0000 0.30340  0.40892  0.20280  Biso   1.000  N
  H9       1.0000 0.35040  0.04150  0.73020  Biso   1.000  H
  H10      1.0000 0.64960  0.54150  0.76980  Biso   1.000  H
  H11      1.0000 0.64960  0.95850  0.26980  Biso   1.000  H
  H12      1.0000 0.35040  0.45850  0.23020  Biso   1.000  H
  H13      1.0000 0.35410  0.10010  0.64110  Biso   1.000  H
  H14      1.0000 0.64590  0.60010  0.85890  Biso   1.000  H
  H15      1.0000 0.64590  0.89990  0.35890  Biso   1.000  H
  H16      1.0000 0.35410  0.39990  0.14110  Biso   1.000  H
  C9       1.0000 0.91200  0.29870  0.76690  Biso   1.000  C
  C10      1.0000 0.08800  0.79870  0.73310  Biso   1.000  C
  C11      1.0000 0.08800  0.70130  0.23310  Biso   1.000  C
  C12      1.0000 0.91200  0.20130  0.26690  Biso   1.000  C
  H17      1.0000 0.85630  0.35290  0.73960  Biso   1.000  H
  H18      1.0000 0.14370  0.85290  0.76040  Biso   1.000  H
  H19      1.0000 0.14370  0.64710  0.26040  Biso   1.000  H
  H20      1.0000 0.85630  0.14710  0.23960  Biso   1.000  H
  C13      1.0000 0.83380  0.27900  0.86650  Biso   1.000  C
  C14      1.0000 0.16620  0.77900  0.63350  Biso   1.000  C
  C15      1.0000 0.16620  0.72100  0.13350  Biso   1.000  C
  C16      1.0000 0.83380  0.22100  0.36650  Biso   1.000  C
  C17      1.0000 0.15160  0.15410  0.75600  Biso   1.000  C
  C18      1.0000 0.84840  0.65410  0.74400  Biso   1.000  C
  C19      1.0000 0.84840  0.84590  0.24400  Biso   1.000  C
  C20      1.0000 0.15160  0.34590  0.25600  Biso   1.000  C
