data_image0
_cell_length_a       4.1444
_cell_length_b       11.3403
_cell_length_c       15.0851
_cell_angle_alpha    108.66
_cell_angle_beta     93.975
_cell_angle_gamma    98.533

_symmetry_space_group_name_H-M    "P 1"
_symmetry_int_tables_number       1

loop_
  _symmetry_equiv_pos_as_xyz
  'x, y, z'

loop_
  _atom_site_label
  _atom_site_occupancy
  _atom_site_fract_x
  _atom_site_fract_y
  _atom_site_fract_z
  _atom_site_thermal_displace_type
  _atom_site_B_iso_or_equiv
  _atom_site_type_symbol
  C1       1.0000 0.86540  0.62210  0.18270  Biso   1.000  C
  C2       1.0000 0.13460  0.37790  0.81730  Biso   1.000  C
  C3       1.0000 0.00040  0.65880  0.11080  Biso   1.000  C
  C4       1.0000 0.99960  0.34120  0.88920  Biso   1.000  C
  H1       1.0000 0.94330  0.60880  0.04780  Biso   1.000  H
  H2       1.0000 0.05670  0.39120  0.95220  Biso   1.000  H
  C5       1.0000 0.21610  0.76900  0.13600  Biso   1.000  C
  C6       1.0000 0.78390  0.23100  0.86400  Biso   1.000  C
  H3       1.0000 0.30660  0.79710  0.09010  Biso   1.000  H
  H4       1.0000 0.69340  0.20290  0.90990  Biso   1.000  H
  C7       1.0000 0.30390  0.84150  0.23250  Biso   1.000  C
  C8       1.0000 0.69610  0.15850  0.76750  Biso   1.000  C
  C9       1.0000 0.95090  0.69670  0.27420  Biso   1.000  C
  C10      1.0000 0.04910  0.30330  0.72580  Biso   1.000  C
  H5       1.0000 0.85620  0.67050  0.32050  Biso   1.000  H
  H6       1.0000 0.14380  0.32950  0.67950  Biso   1.000  H
  Cu1      1.0000 0.24899  0.91271  0.44199  Biso   1.000  Cu
  Cu2      1.0000 0.75101  0.08729  0.55801  Biso   1.000  Cu
  I1       1.0000 0.73442  0.84235  0.52485  Biso   1.000  I
  I2       1.0000 0.26558  0.15765  0.47515  Biso   1.000  I
  N1       1.0000 0.16480  0.80620  0.30129  Biso   1.000  N
  N2       1.0000 0.83520  0.19380  0.69871  Biso   1.000  N
  N3       1.0000 0.52790  0.94700  0.25860  Biso   1.000  N
  N4       1.0000 0.47210  0.05300  0.74140  Biso   1.000  N
  H7       1.0000 0.58070  0.99060  0.31740  Biso   1.000  H
  H8       1.0000 0.41930  0.00940  0.68260  Biso   1.000  H
  H9       1.0000 0.62010  0.97170  0.21660  Biso   1.000  H
  H10      1.0000 0.37990  0.02830  0.78340  Biso   1.000  H
  N5       1.0000 0.63900  0.50420  0.15940  Biso   1.000  N
  N6       1.0000 0.36100  0.49580  0.84060  Biso   1.000  N
  O1       1.0000 0.59620  0.43080  0.07880  Biso   1.000  O
  O2       1.0000 0.40380  0.56920  0.92120  Biso   1.000  O
  O3       1.0000 0.49290  0.48160  0.22100  Biso   1.000  O
  O4       1.0000 0.50710  0.51840  0.77900  Biso   1.000  O
  C11      1.0000 0.96750  0.12840  0.13320  Biso   1.000  C
  C12      1.0000 0.03250  0.87160  0.86680  Biso   1.000  C
  O5       1.0000 0.12850  0.17050  0.07250  Biso   1.000  O
  O6       1.0000 0.87150  0.82950  0.92750  Biso   1.000  O
  H11      1.0000 0.15160  0.12440  0.01660  Biso   1.000  H
  H12      1.0000 0.84840  0.87560  0.98340  Biso   1.000  H
  O7       1.0000 0.83660  0.01660  0.11350  Biso   1.000  O
  O8       1.0000 0.16340  0.98340  0.88650  Biso   1.000  O
  C13      1.0000 0.95290  0.22400  0.22720  Biso   1.000  C
  C14      1.0000 0.04710  0.77600  0.77280  Biso   1.000  C
  H13      1.0000 0.72840  0.22110  0.23960  Biso   1.000  H
  H14      1.0000 0.27160  0.77890  0.76040  Biso   1.000  H
  H15      1.0000 0.04240  0.30700  0.22680  Biso   1.000  H
  H16      1.0000 0.95760  0.69300  0.77320  Biso   1.000  H
  H17      1.0000 0.07860  0.20540  0.27530  Biso   1.000  H
  H18      1.0000 0.92140  0.79460  0.72470  Biso   1.000  H
