data_image0
_cell_length_a       14.6169
_cell_length_b       7.2367
_cell_length_c       16.1212
_cell_angle_alpha    90
_cell_angle_beta     110.554
_cell_angle_gamma    90

_symmetry_space_group_name_H-M    "P 1"
_symmetry_int_tables_number       1

loop_
  _symmetry_equiv_pos_as_xyz
  'x, y, z'

loop_
  _atom_site_label
  _atom_site_occupancy
  _atom_site_fract_x
  _atom_site_fract_y
  _atom_site_fract_z
  _atom_site_thermal_displace_type
  _atom_site_B_iso_or_equiv
  _atom_site_type_symbol
  Cu1      1.0000 0.10677  0.20814  0.61501  Biso   1.000  Cu
  Cu2      1.0000 0.39323  0.20814  0.88499  Biso   1.000  Cu
  Cu3      1.0000 0.89323  0.79186  0.38499  Biso   1.000  Cu
  Cu4      1.0000 0.60677  0.79186  0.11501  Biso   1.000  Cu
  N1       1.0000 0.98695  0.33410  0.60550  Biso   1.000  N
  N2       1.0000 0.51305  0.33410  0.89450  Biso   1.000  N
  N3       1.0000 0.01305  0.66590  0.39450  Biso   1.000  N
  N4       1.0000 0.48695  0.66590  0.10550  Biso   1.000  N
  N5       1.0000 0.10073  0.12660  0.49112  Biso   1.000  N
  N6       1.0000 0.39927  0.12660  0.00888  Biso   1.000  N
  N7       1.0000 0.89927  0.87340  0.50888  Biso   1.000  N
  N8       1.0000 0.60073  0.87340  0.99112  Biso   1.000  N
  C1       1.0000 0.17525  0.05080  0.47121  Biso   1.000  C
  C2       1.0000 0.32475  0.05080  0.02879  Biso   1.000  C
  C3       1.0000 0.82475  0.94920  0.52879  Biso   1.000  C
  C4       1.0000 0.67525  0.94920  0.97121  Biso   1.000  C
  N9       1.0000 0.25352  0.99480  0.53856  Biso   1.000  N
  N10      1.0000 0.24648  0.99480  0.96144  Biso   1.000  N
  N11      1.0000 0.74648  0.00520  0.46144  Biso   1.000  N
  N12      1.0000 0.75352  0.00520  0.03856  Biso   1.000  N
  H1       1.0000 0.25530  0.00740  0.59210  Biso   1.000  H
  H2       1.0000 0.24470  0.00740  0.90790  Biso   1.000  H
  H3       1.0000 0.74470  0.99260  0.40790  Biso   1.000  H
  H4       1.0000 0.75530  0.99260  0.09210  Biso   1.000  H
  H5       1.0000 0.30220  0.94600  0.52840  Biso   1.000  H
  H6       1.0000 0.19780  0.94600  0.97160  Biso   1.000  H
  H7       1.0000 0.69780  0.05400  0.47160  Biso   1.000  H
  H8       1.0000 0.80220  0.05400  0.02840  Biso   1.000  H
  C5       1.0000 0.17073  0.03250  0.38267  Biso   1.000  C
  C6       1.0000 0.32927  0.03250  0.11733  Biso   1.000  C
  C7       1.0000 0.82927  0.96750  0.61733  Biso   1.000  C
  C8       1.0000 0.67073  0.96750  0.88267  Biso   1.000  C
  H9       1.0000 0.22440  0.98770  0.37060  Biso   1.000  H
  H10      1.0000 0.27560  0.98770  0.12940  Biso   1.000  H
  H11      1.0000 0.77560  0.01230  0.62940  Biso   1.000  H
  H12      1.0000 0.72440  0.01230  0.87060  Biso   1.000  H
  C9       1.0000 0.08856  0.08000  0.31562  Biso   1.000  C
  C10      1.0000 0.41144  0.08000  0.18438  Biso   1.000  C
  C11      1.0000 0.91144  0.92000  0.68438  Biso   1.000  C
  C12      1.0000 0.58856  0.92000  0.81562  Biso   1.000  C
  H13      1.0000 0.08420  0.06780  0.25690  Biso   1.000  H
  H14      1.0000 0.41580  0.06780  0.24310  Biso   1.000  H
  H15      1.0000 0.91580  0.93220  0.74310  Biso   1.000  H
  H16      1.0000 0.58420  0.93220  0.75690  Biso   1.000  H
  C13      1.0000 0.01047  0.14800  0.33698  Biso   1.000  C
  C14      1.0000 0.48953  0.14800  0.16302  Biso   1.000  C
  C15      1.0000 0.98953  0.85200  0.66302  Biso   1.000  C
  C16      1.0000 0.51047  0.85200  0.83698  Biso   1.000  C
  N13      1.0000 0.91973  0.19920  0.26818  Biso   1.000  N
  N14      1.0000 0.58027  0.19920  0.23182  Biso   1.000  N
  N15      1.0000 0.08027  0.80080  0.73182  Biso   1.000  N
  N16      1.0000 0.41973  0.80080  0.76818  Biso   1.000  N
  O1       1.0000 0.85824  0.28330  0.28843  Biso   1.000  O
  O2       1.0000 0.64176  0.28330  0.21157  Biso   1.000  O
  O3       1.0000 0.14176  0.71670  0.71157  Biso   1.000  O
  O4       1.0000 0.35824  0.71670  0.78843  Biso   1.000  O
  O5       1.0000 0.90942  0.15670  0.19213  Biso   1.000  O
  O6       1.0000 0.59058  0.15670  0.30787  Biso   1.000  O
  O7       1.0000 0.09058  0.84330  0.80787  Biso   1.000  O
  O8       1.0000 0.40942  0.84330  0.69213  Biso   1.000  O
  C17      1.0000 0.01954  0.17260  0.42335  Biso   1.000  C
  C18      1.0000 0.48046  0.17260  0.07665  Biso   1.000  C
  C19      1.0000 0.98046  0.82740  0.57665  Biso   1.000  C
  C20      1.0000 0.51954  0.82740  0.92335  Biso   1.000  C
  H17      1.0000 0.96740  0.22340  0.43580  Biso   1.000  H
  H18      1.0000 0.53260  0.22340  0.06420  Biso   1.000  H
  H19      1.0000 0.03260  0.77660  0.56420  Biso   1.000  H
  H20      1.0000 0.46740  0.77660  0.93580  Biso   1.000  H
  N17      1.0000 0.28460  0.14480  0.78360  Biso   1.000  N
  N18      1.0000 0.21540  0.14480  0.71640  Biso   1.000  N
  N19      1.0000 0.71540  0.85520  0.21640  Biso   1.000  N
  N20      1.0000 0.78460  0.85520  0.28360  Biso   1.000  N
  Cu5      1.0000 0.80173  0.49551  0.62002  Biso   1.000  Cu
  Cu6      1.0000 0.69827  0.49551  0.87998  Biso   1.000  Cu
  Cu7      1.0000 0.19827  0.50449  0.37998  Biso   1.000  Cu
  Cu8      1.0000 0.30173  0.50449  0.12002  Biso   1.000  Cu
  N21      1.0000 0.74030  0.50480  0.78140  Biso   1.000  N
  N22      1.0000 0.75970  0.50480  0.71860  Biso   1.000  N
  N23      1.0000 0.25970  0.49520  0.21860  Biso   1.000  N
  N24      1.0000 0.24030  0.49520  0.28140  Biso   1.000  N
  N25      1.0000 0.68733  0.57350  0.50429  Biso   1.000  N
  N26      1.0000 0.81267  0.57350  0.99571  Biso   1.000  N
  N27      1.0000 0.31267  0.42650  0.49571  Biso   1.000  N
  N28      1.0000 0.18733  0.42650  0.00429  Biso   1.000  N
  C21      1.0000 0.68642  0.54500  0.42119  Biso   1.000  C
  C22      1.0000 0.81358  0.54500  0.07881  Biso   1.000  C
  C23      1.0000 0.31358  0.45500  0.57881  Biso   1.000  C
  C24      1.0000 0.18642  0.45500  0.92119  Biso   1.000  C
  N29      1.0000 0.76562  0.46800  0.41261  Biso   1.000  N
  N30      1.0000 0.73438  0.46800  0.08739  Biso   1.000  N
  N31      1.0000 0.23438  0.53200  0.58739  Biso   1.000  N
  N32      1.0000 0.26562  0.53200  0.91261  Biso   1.000  N
  H21      1.0000 0.81460  0.43870  0.45900  Biso   1.000  H
  H22      1.0000 0.68540  0.43870  0.04100  Biso   1.000  H
  H23      1.0000 0.18540  0.56130  0.54100  Biso   1.000  H
  H24      1.0000 0.31460  0.56130  0.95900  Biso   1.000  H
  H25      1.0000 0.76770  0.44780  0.36070  Biso   1.000  H
  H26      1.0000 0.73230  0.44780  0.13930  Biso   1.000  H
  H27      1.0000 0.23230  0.55220  0.63930  Biso   1.000  H
  H28      1.0000 0.26770  0.55220  0.86070  Biso   1.000  H
  C25      1.0000 0.60682  0.59710  0.34569  Biso   1.000  C
  C26      1.0000 0.89318  0.59710  0.15431  Biso   1.000  C
  C27      1.0000 0.39318  0.40290  0.65431  Biso   1.000  C
  C28      1.0000 0.10682  0.40290  0.84569  Biso   1.000  C
  H29      1.0000 0.60840  0.57500  0.28940  Biso   1.000  H
  H30      1.0000 0.89160  0.57500  0.21060  Biso   1.000  H
  H31      1.0000 0.39160  0.42500  0.71060  Biso   1.000  H
  H32      1.0000 0.10840  0.42500  0.78940  Biso   1.000  H
  C29      1.0000 0.52820  0.67930  0.35533  Biso   1.000  C
  C30      1.0000 0.97180  0.67930  0.14467  Biso   1.000  C
  C31      1.0000 0.47180  0.32070  0.64467  Biso   1.000  C
  C32      1.0000 0.02820  0.32070  0.85533  Biso   1.000  C
  H33      1.0000 0.47460  0.71350  0.30630  Biso   1.000  H
  H34      1.0000 0.02540  0.71350  0.19370  Biso   1.000  H
  H35      1.0000 0.52540  0.28650  0.69370  Biso   1.000  H
  H36      1.0000 0.97460  0.28650  0.80630  Biso   1.000  H
  C33      1.0000 0.52989  0.71090  0.44092  Biso   1.000  C
  C34      1.0000 0.97011  0.71090  0.05908  Biso   1.000  C
  C35      1.0000 0.47011  0.28910  0.55908  Biso   1.000  C
  C36      1.0000 0.02989  0.28910  0.94092  Biso   1.000  C
  N33      1.0000 0.44778  0.80240  0.45390  Biso   1.000  N
  N34      1.0000 0.05222  0.80240  0.04610  Biso   1.000  N
  N35      1.0000 0.55222  0.19760  0.54610  Biso   1.000  N
  N36      1.0000 0.94778  0.19760  0.95390  Biso   1.000  N
  O9       1.0000 0.44757  0.81820  0.52903  Biso   1.000  O
  O10      1.0000 0.05243  0.81820  0.97097  Biso   1.000  O
  O11      1.0000 0.55243  0.18180  0.47097  Biso   1.000  O
  O12      1.0000 0.94757  0.18180  0.02903  Biso   1.000  O
  O13      1.0000 0.38279  0.86180  0.38847  Biso   1.000  O
  O14      1.0000 0.11721  0.86180  0.11153  Biso   1.000  O
  O15      1.0000 0.61721  0.13820  0.61153  Biso   1.000  O
  O16      1.0000 0.88279  0.13820  0.88847  Biso   1.000  O
  C37      1.0000 0.60866  0.65720  0.51263  Biso   1.000  C
  C38      1.0000 0.89134  0.65720  0.98737  Biso   1.000  C
  C39      1.0000 0.39134  0.34280  0.48737  Biso   1.000  C
  C40      1.0000 0.10866  0.34280  0.01263  Biso   1.000  C
  H37      1.0000 0.60780  0.67940  0.56920  Biso   1.000  H
  H38      1.0000 0.89220  0.67940  0.93080  Biso   1.000  H
  H39      1.0000 0.39220  0.32060  0.43080  Biso   1.000  H
  H40      1.0000 0.10780  0.32060  0.06920  Biso   1.000  H
  C41      1.0000 0.91590  0.39960  0.60787  Biso   1.000  C
  C42      1.0000 0.58410  0.39960  0.89213  Biso   1.000  C
  C43      1.0000 0.08410  0.60040  0.39213  Biso   1.000  C
  C44      1.0000 0.41590  0.60040  0.10787  Biso   1.000  C
  C45      1.0000 0.76290  0.54790  0.71940  Biso   1.000  C
  C46      1.0000 0.73710  0.54790  0.78060  Biso   1.000  C
  C47      1.0000 0.23710  0.45210  0.28060  Biso   1.000  C
  C48      1.0000 0.26290  0.45210  0.21940  Biso   1.000  C
  C49      1.0000 0.21790  0.18180  0.71840  Biso   1.000  C
  C50      1.0000 0.28210  0.18180  0.78160  Biso   1.000  C
  C51      1.0000 0.78210  0.81820  0.28160  Biso   1.000  C
  C52      1.0000 0.71790  0.81820  0.21840  Biso   1.000  C
