data_image0
_cell_length_a       5.8985
_cell_length_b       14.2513
_cell_length_c       10.8843
_cell_angle_alpha    90
_cell_angle_beta     105.129
_cell_angle_gamma    90

_symmetry_space_group_name_H-M    "P 1"
_symmetry_int_tables_number       1

loop_
  _symmetry_equiv_pos_as_xyz
  'x, y, z'

loop_
  _atom_site_label
  _atom_site_occupancy
  _atom_site_fract_x
  _atom_site_fract_y
  _atom_site_fract_z
  _atom_site_thermal_displace_type
  _atom_site_B_iso_or_equiv
  _atom_site_type_symbol
  Cu1      1.0000 0.14272  0.57501  0.56554  Biso   1.000  Cu
  Cu2      1.0000 0.35728  0.07501  0.93446  Biso   1.000  Cu
  Cu3      1.0000 0.85728  0.42499  0.43446  Biso   1.000  Cu
  Cu4      1.0000 0.64272  0.92499  0.06554  Biso   1.000  Cu
  S1       1.0000 0.07104  0.52641  0.33646  Biso   1.000  S
  S2       1.0000 0.42896  0.02641  0.16354  Biso   1.000  S
  S3       1.0000 0.92896  0.47359  0.66354  Biso   1.000  S
  S4       1.0000 0.57104  0.97359  0.83646  Biso   1.000  S
  C1       1.0000 0.33880  0.48363  0.35290  Biso   1.000  C
  C2       1.0000 0.16120  0.98363  0.14710  Biso   1.000  C
  C3       1.0000 0.66120  0.51637  0.64710  Biso   1.000  C
  C4       1.0000 0.83880  0.01637  0.85290  Biso   1.000  C
  N1       1.0000 0.52600  0.45516  0.36559  Biso   1.000  N
  N2       1.0000 0.97400  0.95516  0.13441  Biso   1.000  N
  N3       1.0000 0.47400  0.54484  0.63441  Biso   1.000  N
  N4       1.0000 0.02600  0.04484  0.86559  Biso   1.000  N
  N5       1.0000 0.00600  0.70572  0.55713  Biso   1.000  N
  N6       1.0000 0.49400  0.20572  0.94287  Biso   1.000  N
  N7       1.0000 0.99400  0.29428  0.44287  Biso   1.000  N
  N8       1.0000 0.50600  0.79428  0.05713  Biso   1.000  N
  C5       1.0000 0.12800  0.77958  0.61920  Biso   1.000  C
  C6       1.0000 0.37200  0.27958  0.88080  Biso   1.000  C
  C7       1.0000 0.87200  0.22042  0.38080  Biso   1.000  C
  C8       1.0000 0.62800  0.72042  0.11920  Biso   1.000  C
  N9       1.0000 0.34890  0.76410  0.68639  Biso   1.000  N
  N10      1.0000 0.15110  0.26410  0.81361  Biso   1.000  N
  N11      1.0000 0.65110  0.23590  0.31361  Biso   1.000  N
  N12      1.0000 0.84890  0.73590  0.18639  Biso   1.000  N
  H1       1.0000 0.40830  0.70880  0.68900  Biso   1.000  H
  H2       1.0000 0.09170  0.20880  0.81100  Biso   1.000  H
  H3       1.0000 0.59170  0.29120  0.31100  Biso   1.000  H
  H4       1.0000 0.90830  0.79120  0.18900  Biso   1.000  H
  H5       1.0000 0.43180  0.80940  0.72710  Biso   1.000  H
  H6       1.0000 0.06820  0.30940  0.77290  Biso   1.000  H
  H7       1.0000 0.56820  0.19060  0.27290  Biso   1.000  H
  H8       1.0000 0.93180  0.69060  0.22710  Biso   1.000  H
  C9       1.0000 0.02620  0.86975  0.61270  Biso   1.000  C
  C10      1.0000 0.47380  0.36975  0.88730  Biso   1.000  C
  C11      1.0000 0.97380  0.13025  0.38730  Biso   1.000  C
  C12      1.0000 0.52620  0.63025  0.11270  Biso   1.000  C
  H9       1.0000 0.11340  0.91980  0.65530  Biso   1.000  H
  H10      1.0000 0.38660  0.41980  0.84470  Biso   1.000  H
  H11      1.0000 0.88660  0.08020  0.34470  Biso   1.000  H
  H12      1.0000 0.61340  0.58020  0.15530  Biso   1.000  H
  C13      1.0000 0.80200  0.88309  0.54430  Biso   1.000  C
  C14      1.0000 0.69800  0.38309  0.95570  Biso   1.000  C
  C15      1.0000 0.19800  0.11691  0.45570  Biso   1.000  C
  C16      1.0000 0.30200  0.61691  0.04430  Biso   1.000  C
  H13      1.0000 0.73160  0.94180  0.53990  Biso   1.000  H
  H14      1.0000 0.76840  0.44180  0.96010  Biso   1.000  H
  H15      1.0000 0.26840  0.05820  0.46010  Biso   1.000  H
  H16      1.0000 0.23160  0.55820  0.03990  Biso   1.000  H
  C17      1.0000 0.67960  0.80623  0.48070  Biso   1.000  C
  C18      1.0000 0.82040  0.30623  0.01930  Biso   1.000  C
  C19      1.0000 0.32040  0.19377  0.51930  Biso   1.000  C
  C20      1.0000 0.17960  0.69377  0.98070  Biso   1.000  C
  N13      1.0000 0.43850  0.81601  0.40682  Biso   1.000  N
  N14      1.0000 0.06150  0.31601  0.09318  Biso   1.000  N
  N15      1.0000 0.56150  0.18399  0.59318  Biso   1.000  N
  N16      1.0000 0.93850  0.68399  0.90682  Biso   1.000  N
  O1       1.0000 0.34710  0.74981  0.34080  Biso   1.000  O
  O2       1.0000 0.15290  0.24981  0.15920  Biso   1.000  O
  O3       1.0000 0.65290  0.25019  0.65920  Biso   1.000  O
  O4       1.0000 0.84710  0.75019  0.84080  Biso   1.000  O
  O5       1.0000 0.33590  0.88926  0.41465  Biso   1.000  O
  O6       1.0000 0.16410  0.38926  0.08535  Biso   1.000  O
  O7       1.0000 0.66410  0.11074  0.58535  Biso   1.000  O
  O8       1.0000 0.83590  0.61074  0.91465  Biso   1.000  O
  C21      1.0000 0.78520  0.72015  0.48908  Biso   1.000  C
  C22      1.0000 0.71480  0.22015  0.01092  Biso   1.000  C
  C23      1.0000 0.21480  0.27985  0.51092  Biso   1.000  C
  C24      1.0000 0.28520  0.77985  0.98908  Biso   1.000  C
  H17      1.0000 0.70010  0.66980  0.44580  Biso   1.000  H
  H18      1.0000 0.79990  0.16980  0.05420  Biso   1.000  H
  H19      1.0000 0.29990  0.33020  0.55420  Biso   1.000  H
  H20      1.0000 0.20010  0.83020  0.94580  Biso   1.000  H
