data_image0
_cell_length_a       21.87
_cell_length_b       19.58
_cell_length_c       15.36
_cell_angle_alpha    90
_cell_angle_beta     134.13
_cell_angle_gamma    90

_symmetry_space_group_name_H-M    "P 1"
_symmetry_int_tables_number       1

loop_
  _symmetry_equiv_pos_as_xyz
  'x, y, z'

loop_
  _atom_site_label
  _atom_site_occupancy
  _atom_site_fract_x
  _atom_site_fract_y
  _atom_site_fract_z
  _atom_site_thermal_displace_type
  _atom_site_B_iso_or_equiv
  _atom_site_type_symbol
  Cu1      1.0000 0.96131  0.03508  0.06558  Biso   1.000  Cu
  Cu2      1.0000 0.03869  0.03508  0.43442  Biso   1.000  Cu
  Cu3      1.0000 0.46131  0.53508  0.06558  Biso   1.000  Cu
  Cu4      1.0000 0.53869  0.53508  0.43442  Biso   1.000  Cu
  Cu5      1.0000 0.03869  0.96492  0.93442  Biso   1.000  Cu
  Cu6      1.0000 0.96131  0.96492  0.56558  Biso   1.000  Cu
  Cu7      1.0000 0.53869  0.46492  0.93442  Biso   1.000  Cu
  Cu8      1.0000 0.46131  0.46492  0.56558  Biso   1.000  Cu
  S1       1.0000 0.00000  0.91837  0.25000  Biso   1.000  S
  S2       1.0000 0.50000  0.41837  0.25000  Biso   1.000  S
  S3       1.0000 0.00000  0.08163  0.75000  Biso   1.000  S
  S4       1.0000 0.50000  0.58163  0.75000  Biso   1.000  S
  N1       1.0000 0.39500  0.24480  0.18580  Biso   1.000  N
  N2       1.0000 0.60500  0.24480  0.31420  Biso   1.000  N
  N3       1.0000 0.89500  0.74480  0.18580  Biso   1.000  N
  N4       1.0000 0.10500  0.74480  0.31420  Biso   1.000  N
  N5       1.0000 0.60500  0.75520  0.81420  Biso   1.000  N
  N6       1.0000 0.39500  0.75520  0.68580  Biso   1.000  N
  N7       1.0000 0.10500  0.25520  0.81420  Biso   1.000  N
  N8       1.0000 0.89500  0.25520  0.68580  Biso   1.000  N
  H1       1.0000 0.43280  0.27630  0.22850  Biso   1.000  H
  H2       1.0000 0.56720  0.27630  0.27150  Biso   1.000  H
  H3       1.0000 0.93280  0.77630  0.22850  Biso   1.000  H
  H4       1.0000 0.06720  0.77630  0.27150  Biso   1.000  H
  H5       1.0000 0.56720  0.72370  0.77150  Biso   1.000  H
  H6       1.0000 0.43280  0.72370  0.72850  Biso   1.000  H
  H7       1.0000 0.06720  0.22370  0.77150  Biso   1.000  H
  H8       1.0000 0.93280  0.22370  0.72850  Biso   1.000  H
  N9       1.0000 0.19520  0.10370  0.22480  Biso   1.000  N
  N10      1.0000 0.80480  0.10370  0.27520  Biso   1.000  N
  N11      1.0000 0.69520  0.60370  0.22480  Biso   1.000  N
  N12      1.0000 0.30480  0.60370  0.27520  Biso   1.000  N
  N13      1.0000 0.80480  0.89630  0.77520  Biso   1.000  N
  N14      1.0000 0.19520  0.89630  0.72480  Biso   1.000  N
  N15      1.0000 0.30480  0.39630  0.77520  Biso   1.000  N
  N16      1.0000 0.69520  0.39630  0.72480  Biso   1.000  N
  N17      1.0000 0.07820  0.05870  0.16440  Biso   1.000  N
  N18      1.0000 0.92180  0.05870  0.33560  Biso   1.000  N
  N19      1.0000 0.57820  0.55870  0.16440  Biso   1.000  N
  N20      1.0000 0.42180  0.55870  0.33560  Biso   1.000  N
  N21      1.0000 0.92180  0.94130  0.83560  Biso   1.000  N
  N22      1.0000 0.07820  0.94130  0.66440  Biso   1.000  N
  N23      1.0000 0.42180  0.44130  0.83560  Biso   1.000  N
  N24      1.0000 0.57820  0.44130  0.66440  Biso   1.000  N
  N25      1.0000 0.25330  0.11090  0.75980  Biso   1.000  N
  N26      1.0000 0.74670  0.11090  0.74020  Biso   1.000  N
  N27      1.0000 0.75330  0.61090  0.75980  Biso   1.000  N
  N28      1.0000 0.24670  0.61090  0.74020  Biso   1.000  N
  N29      1.0000 0.74670  0.88910  0.24020  Biso   1.000  N
  N30      1.0000 0.25330  0.88910  0.25980  Biso   1.000  N
  N31      1.0000 0.24670  0.38910  0.24020  Biso   1.000  N
  N32      1.0000 0.75330  0.38910  0.25980  Biso   1.000  N
  N33      1.0000 0.15320  0.06230  0.58130  Biso   1.000  N
  N34      1.0000 0.84680  0.06230  0.91870  Biso   1.000  N
  N35      1.0000 0.65320  0.56230  0.58130  Biso   1.000  N
  N36      1.0000 0.34680  0.56230  0.91870  Biso   1.000  N
  N37      1.0000 0.84680  0.93770  0.41870  Biso   1.000  N
  N38      1.0000 0.15320  0.93770  0.08130  Biso   1.000  N
  N39      1.0000 0.34680  0.43770  0.41870  Biso   1.000  N
  N40      1.0000 0.65320  0.43770  0.08130  Biso   1.000  N
  O1       1.0000 0.93680  0.96258  0.14310  Biso   1.000  O
  O2       1.0000 0.06320  0.96258  0.35690  Biso   1.000  O
  O3       1.0000 0.43680  0.46258  0.14310  Biso   1.000  O
  O4       1.0000 0.56320  0.46258  0.35690  Biso   1.000  O
  O5       1.0000 0.06320  0.03742  0.85690  Biso   1.000  O
  O6       1.0000 0.93680  0.03742  0.64310  Biso   1.000  O
  O7       1.0000 0.56320  0.53742  0.85690  Biso   1.000  O
  O8       1.0000 0.43680  0.53742  0.64310  Biso   1.000  O
  O9       1.0000 0.95830  0.87620  0.27420  Biso   1.000  O
  O10      1.0000 0.04170  0.87620  0.22580  Biso   1.000  O
  O11      1.0000 0.45830  0.37620  0.27420  Biso   1.000  O
  O12      1.0000 0.54170  0.37620  0.22580  Biso   1.000  O
  O13      1.0000 0.04170  0.12380  0.72580  Biso   1.000  O
  O14      1.0000 0.95830  0.12380  0.77420  Biso   1.000  O
  O15      1.0000 0.54170  0.62380  0.72580  Biso   1.000  O
  O16      1.0000 0.45830  0.62380  0.77420  Biso   1.000  O
  C1       1.0000 0.35160  0.21380  0.20880  Biso   1.000  C
  C2       1.0000 0.64840  0.21380  0.29120  Biso   1.000  C
  C3       1.0000 0.85160  0.71380  0.20880  Biso   1.000  C
  C4       1.0000 0.14840  0.71380  0.29120  Biso   1.000  C
  C5       1.0000 0.64840  0.78620  0.79120  Biso   1.000  C
  C6       1.0000 0.35160  0.78620  0.70880  Biso   1.000  C
  C7       1.0000 0.14840  0.28620  0.79120  Biso   1.000  C
  C8       1.0000 0.85160  0.28620  0.70880  Biso   1.000  C
  C9       1.0000 0.35710  0.22500  0.30530  Biso   1.000  C
  C10      1.0000 0.64290  0.22500  0.19470  Biso   1.000  C
  C11      1.0000 0.85710  0.72500  0.30530  Biso   1.000  C
  C12      1.0000 0.14290  0.72500  0.19470  Biso   1.000  C
  C13      1.0000 0.64290  0.77500  0.69470  Biso   1.000  C
  C14      1.0000 0.35710  0.77500  0.80530  Biso   1.000  C
  C15      1.0000 0.14290  0.27500  0.69470  Biso   1.000  C
  C16      1.0000 0.85710  0.27500  0.80530  Biso   1.000  C
  H9       1.0000 0.39430  0.25740  0.36490  Biso   1.000  H
  H10      1.0000 0.60570  0.25740  0.13510  Biso   1.000  H
  H11      1.0000 0.89430  0.75740  0.36490  Biso   1.000  H
  H12      1.0000 0.10570  0.75740  0.13510  Biso   1.000  H
  H13      1.0000 0.60570  0.74260  0.63510  Biso   1.000  H
  H14      1.0000 0.39430  0.74260  0.86490  Biso   1.000  H
  H15      1.0000 0.10570  0.24260  0.63510  Biso   1.000  H
  H16      1.0000 0.89430  0.24260  0.86490  Biso   1.000  H
  C17      1.0000 0.30530  0.18630  0.30820  Biso   1.000  C
  C18      1.0000 0.69470  0.18630  0.19180  Biso   1.000  C
  C19      1.0000 0.80530  0.68630  0.30820  Biso   1.000  C
  C20      1.0000 0.19470  0.68630  0.19180  Biso   1.000  C
  C21      1.0000 0.69470  0.81370  0.69180  Biso   1.000  C
  C22      1.0000 0.30530  0.81370  0.80820  Biso   1.000  C
  C23      1.0000 0.19470  0.31370  0.69180  Biso   1.000  C
  C24      1.0000 0.80530  0.31370  0.80820  Biso   1.000  C
  H17      1.0000 0.30900  0.19190  0.37190  Biso   1.000  H
  H18      1.0000 0.69100  0.19190  0.12810  Biso   1.000  H
  H19      1.0000 0.80900  0.69190  0.37190  Biso   1.000  H
  H20      1.0000 0.19100  0.69190  0.12810  Biso   1.000  H
  H21      1.0000 0.69100  0.80810  0.62810  Biso   1.000  H
  H22      1.0000 0.30900  0.80810  0.87190  Biso   1.000  H
  H23      1.0000 0.19100  0.30810  0.62810  Biso   1.000  H
  H24      1.0000 0.80900  0.30810  0.87190  Biso   1.000  H
  C25      1.0000 0.24840  0.13950  0.21790  Biso   1.000  C
  C26      1.0000 0.75160  0.13950  0.28210  Biso   1.000  C
  C27      1.0000 0.74840  0.63950  0.21790  Biso   1.000  C
  C28      1.0000 0.25160  0.63950  0.28210  Biso   1.000  C
  C29      1.0000 0.75160  0.86050  0.78210  Biso   1.000  C
  C30      1.0000 0.24840  0.86050  0.71790  Biso   1.000  C
  C31      1.0000 0.25160  0.36050  0.78210  Biso   1.000  C
  C32      1.0000 0.74840  0.36050  0.71790  Biso   1.000  C
  C33      1.0000 0.24250  0.12770  0.12380  Biso   1.000  C
  C34      1.0000 0.75750  0.12770  0.37620  Biso   1.000  C
  C35      1.0000 0.74250  0.62770  0.12380  Biso   1.000  C
  C36      1.0000 0.25750  0.62770  0.37620  Biso   1.000  C
  C37      1.0000 0.75750  0.87230  0.87620  Biso   1.000  C
  C38      1.0000 0.24250  0.87230  0.62380  Biso   1.000  C
  C39      1.0000 0.25750  0.37230  0.87620  Biso   1.000  C
  C40      1.0000 0.74250  0.37230  0.62380  Biso   1.000  C
  H25      1.0000 0.20430  0.09550  0.06450  Biso   1.000  H
  H26      1.0000 0.79570  0.09550  0.43550  Biso   1.000  H
  H27      1.0000 0.70430  0.59550  0.06450  Biso   1.000  H
  H28      1.0000 0.29570  0.59550  0.43550  Biso   1.000  H
  H29      1.0000 0.79570  0.90450  0.93550  Biso   1.000  H
  H30      1.0000 0.20430  0.90450  0.56450  Biso   1.000  H
  H31      1.0000 0.29570  0.40450  0.93550  Biso   1.000  H
  H32      1.0000 0.70430  0.40450  0.56450  Biso   1.000  H
  C41      1.0000 0.29390  0.16410  0.11860  Biso   1.000  C
  C42      1.0000 0.70610  0.16410  0.38140  Biso   1.000  C
  C43      1.0000 0.79390  0.66410  0.11860  Biso   1.000  C
  C44      1.0000 0.20610  0.66410  0.38140  Biso   1.000  C
  C45      1.0000 0.70610  0.83590  0.88140  Biso   1.000  C
  C46      1.0000 0.29390  0.83590  0.61860  Biso   1.000  C
  C47      1.0000 0.20610  0.33590  0.88140  Biso   1.000  C
  C48      1.0000 0.79390  0.33590  0.61860  Biso   1.000  C
  C49      1.0000 0.30590  0.16640  0.03680  Biso   1.000  C
  C50      1.0000 0.69410  0.16640  0.46320  Biso   1.000  C
  C51      1.0000 0.80590  0.66640  0.03680  Biso   1.000  C
  C52      1.0000 0.19410  0.66640  0.46320  Biso   1.000  C
  C53      1.0000 0.69410  0.83360  0.96320  Biso   1.000  C
  C54      1.0000 0.30590  0.83360  0.53680  Biso   1.000  C
  C55      1.0000 0.19410  0.33360  0.96320  Biso   1.000  C
  C56      1.0000 0.80590  0.33360  0.53680  Biso   1.000  C
  C57      1.0000 0.26850  0.13050  0.93320  Biso   1.000  C
  C58      1.0000 0.73150  0.13050  0.56680  Biso   1.000  C
  C59      1.0000 0.76850  0.63050  0.93320  Biso   1.000  C
  C60      1.0000 0.23150  0.63050  0.56680  Biso   1.000  C
  C61      1.0000 0.73150  0.86950  0.06680  Biso   1.000  C
  C62      1.0000 0.26850  0.86950  0.43320  Biso   1.000  C
  C63      1.0000 0.23150  0.36950  0.06680  Biso   1.000  C
  C64      1.0000 0.76850  0.36950  0.43320  Biso   1.000  C
  H33      1.0000 0.22810  0.09700  0.90480  Biso   1.000  H
  H34      1.0000 0.77190  0.09700  0.59520  Biso   1.000  H
  H35      1.0000 0.72810  0.59700  0.90480  Biso   1.000  H
  H36      1.0000 0.27190  0.59700  0.59520  Biso   1.000  H
  H37      1.0000 0.77190  0.90300  0.09520  Biso   1.000  H
  H38      1.0000 0.22810  0.90300  0.40480  Biso   1.000  H
  H39      1.0000 0.27190  0.40300  0.09520  Biso   1.000  H
  H40      1.0000 0.72810  0.40300  0.40480  Biso   1.000  H
  C65      1.0000 0.29200  0.14500  0.87240  Biso   1.000  C
  C66      1.0000 0.70800  0.14500  0.62760  Biso   1.000  C
  C67      1.0000 0.79200  0.64500  0.87240  Biso   1.000  C
  C68      1.0000 0.20800  0.64500  0.62760  Biso   1.000  C
  C69      1.0000 0.70800  0.85500  0.12760  Biso   1.000  C
  C70      1.0000 0.29200  0.85500  0.37240  Biso   1.000  C
  C71      1.0000 0.20800  0.35500  0.12760  Biso   1.000  C
  C72      1.0000 0.79200  0.35500  0.37240  Biso   1.000  C
  C73      1.0000 0.35390  0.19440  0.91580  Biso   1.000  C
  C74      1.0000 0.64610  0.19440  0.58420  Biso   1.000  C
  C75      1.0000 0.85390  0.69440  0.91580  Biso   1.000  C
  C76      1.0000 0.14610  0.69440  0.58420  Biso   1.000  C
  C77      1.0000 0.64610  0.80560  0.08420  Biso   1.000  C
  C78      1.0000 0.35390  0.80560  0.41580  Biso   1.000  C
  C79      1.0000 0.14610  0.30560  0.08420  Biso   1.000  C
  C80      1.0000 0.85390  0.30560  0.41580  Biso   1.000  C
  H41      1.0000 0.37010  0.20270  0.87450  Biso   1.000  H
  H42      1.0000 0.62990  0.20270  0.62550  Biso   1.000  H
  H43      1.0000 0.87010  0.70270  0.87450  Biso   1.000  H
  H44      1.0000 0.12990  0.70270  0.62550  Biso   1.000  H
  H45      1.0000 0.62990  0.79730  0.12550  Biso   1.000  H
  H46      1.0000 0.37010  0.79730  0.37450  Biso   1.000  H
  H47      1.0000 0.12990  0.29730  0.12550  Biso   1.000  H
  H48      1.0000 0.87010  0.29730  0.37450  Biso   1.000  H
  C81      1.0000 0.39210  0.23180  0.02220  Biso   1.000  C
  C82      1.0000 0.60790  0.23180  0.47780  Biso   1.000  C
  C83      1.0000 0.89210  0.73180  0.02220  Biso   1.000  C
  C84      1.0000 0.10790  0.73180  0.47780  Biso   1.000  C
  C85      1.0000 0.60790  0.76820  0.97780  Biso   1.000  C
  C86      1.0000 0.39210  0.76820  0.52220  Biso   1.000  C
  C87      1.0000 0.10790  0.26820  0.97780  Biso   1.000  C
  C88      1.0000 0.89210  0.26820  0.52220  Biso   1.000  C
  H49      1.0000 0.43260  0.26540  0.05160  Biso   1.000  H
  H50      1.0000 0.56740  0.26540  0.44840  Biso   1.000  H
  H51      1.0000 0.93260  0.76540  0.05160  Biso   1.000  H
  H52      1.0000 0.06740  0.76540  0.44840  Biso   1.000  H
  H53      1.0000 0.56740  0.73460  0.94840  Biso   1.000  H
  H54      1.0000 0.43260  0.73460  0.55160  Biso   1.000  H
  H55      1.0000 0.06740  0.23460  0.94840  Biso   1.000  H
  H56      1.0000 0.93260  0.23460  0.55160  Biso   1.000  H
  C89      1.0000 0.36640  0.21590  0.08060  Biso   1.000  C
  C90      1.0000 0.63360  0.21590  0.41940  Biso   1.000  C
  C91      1.0000 0.86640  0.71590  0.08060  Biso   1.000  C
  C92      1.0000 0.13360  0.71590  0.41940  Biso   1.000  C
  C93      1.0000 0.63360  0.78410  0.91940  Biso   1.000  C
  C94      1.0000 0.36640  0.78410  0.58060  Biso   1.000  C
  C95      1.0000 0.13360  0.28410  0.91940  Biso   1.000  C
  C96      1.0000 0.86640  0.28410  0.58060  Biso   1.000  C
  C97      1.0000 0.11130  0.09300  0.12960  Biso   1.000  C
  C98      1.0000 0.88870  0.09300  0.37040  Biso   1.000  C
  C99      1.0000 0.61130  0.59300  0.12960  Biso   1.000  C
  C100     1.0000 0.38870  0.59300  0.37040  Biso   1.000  C
  C101     1.0000 0.88870  0.90700  0.87040  Biso   1.000  C
  C102     1.0000 0.11130  0.90700  0.62960  Biso   1.000  C
  C103     1.0000 0.38870  0.40700  0.87040  Biso   1.000  C
  C104     1.0000 0.61130  0.40700  0.62960  Biso   1.000  C
  H57      1.0000 0.08060  0.10750  0.05070  Biso   1.000  H
  H58      1.0000 0.91940  0.10750  0.44930  Biso   1.000  H
  H59      1.0000 0.58060  0.60750  0.05070  Biso   1.000  H
  H60      1.0000 0.41940  0.60750  0.44930  Biso   1.000  H
  H61      1.0000 0.91940  0.89250  0.94930  Biso   1.000  H
  H62      1.0000 0.08060  0.89250  0.55070  Biso   1.000  H
  H63      1.0000 0.41940  0.39250  0.94930  Biso   1.000  H
  H64      1.0000 0.58060  0.39250  0.55070  Biso   1.000  H
  C105     1.0000 0.14560  0.04830  0.28750  Biso   1.000  C
  C106     1.0000 0.85440  0.04830  0.21250  Biso   1.000  C
  C107     1.0000 0.64560  0.54830  0.28750  Biso   1.000  C
  C108     1.0000 0.35440  0.54830  0.21250  Biso   1.000  C
  C109     1.0000 0.85440  0.95170  0.71250  Biso   1.000  C
  C110     1.0000 0.14560  0.95170  0.78750  Biso   1.000  C
  C111     1.0000 0.35440  0.45170  0.71250  Biso   1.000  C
  C112     1.0000 0.64560  0.45170  0.78750  Biso   1.000  C
  H65      1.0000 0.14210  0.02490  0.33660  Biso   1.000  H
  H66      1.0000 0.85790  0.02490  0.16340  Biso   1.000  H
  H67      1.0000 0.64210  0.52490  0.33660  Biso   1.000  H
  H68      1.0000 0.35790  0.52490  0.16340  Biso   1.000  H
  H69      1.0000 0.85790  0.97510  0.66340  Biso   1.000  H
  H70      1.0000 0.14210  0.97510  0.83660  Biso   1.000  H
  H71      1.0000 0.35790  0.47510  0.66340  Biso   1.000  H
  H72      1.0000 0.64210  0.47510  0.83660  Biso   1.000  H
  C113     1.0000 0.21650  0.07660  0.32610  Biso   1.000  C
  C114     1.0000 0.78350  0.07660  0.17390  Biso   1.000  C
  C115     1.0000 0.71650  0.57660  0.32610  Biso   1.000  C
  C116     1.0000 0.28350  0.57660  0.17390  Biso   1.000  C
  C117     1.0000 0.78350  0.92340  0.67390  Biso   1.000  C
  C118     1.0000 0.21650  0.92340  0.82610  Biso   1.000  C
  C119     1.0000 0.28350  0.42340  0.67390  Biso   1.000  C
  C120     1.0000 0.71650  0.42340  0.82610  Biso   1.000  C
  H73      1.0000 0.26970  0.07790  0.40550  Biso   1.000  H
  H74      1.0000 0.73030  0.07790  0.09450  Biso   1.000  H
  H75      1.0000 0.76970  0.57790  0.40550  Biso   1.000  H
  H76      1.0000 0.23030  0.57790  0.09450  Biso   1.000  H
  H77      1.0000 0.73030  0.92210  0.59450  Biso   1.000  H
  H78      1.0000 0.26970  0.92210  0.90550  Biso   1.000  H
  H79      1.0000 0.23030  0.42210  0.59450  Biso   1.000  H
  H80      1.0000 0.76970  0.42210  0.90550  Biso   1.000  H
  C121     1.0000 0.17120  0.09130  0.67490  Biso   1.000  C
  C122     1.0000 0.82880  0.09130  0.82510  Biso   1.000  C
  C123     1.0000 0.67120  0.59130  0.67490  Biso   1.000  C
  C124     1.0000 0.32880  0.59130  0.82510  Biso   1.000  C
  C125     1.0000 0.82880  0.90870  0.32510  Biso   1.000  C
  C126     1.0000 0.17120  0.90870  0.17490  Biso   1.000  C
  C127     1.0000 0.32880  0.40870  0.32510  Biso   1.000  C
  C128     1.0000 0.67120  0.40870  0.17490  Biso   1.000  C
  H81      1.0000 0.13220  0.09740  0.68120  Biso   1.000  H
  H82      1.0000 0.86780  0.09740  0.81880  Biso   1.000  H
  H83      1.0000 0.63220  0.59740  0.68120  Biso   1.000  H
  H84      1.0000 0.36780  0.59740  0.81880  Biso   1.000  H
  H85      1.0000 0.86780  0.90260  0.31880  Biso   1.000  H
  H86      1.0000 0.13220  0.90260  0.18120  Biso   1.000  H
  H87      1.0000 0.36780  0.40260  0.31880  Biso   1.000  H
  H88      1.0000 0.63220  0.40260  0.18120  Biso   1.000  H
  C129     1.0000 0.22660  0.06290  0.60590  Biso   1.000  C
  C130     1.0000 0.77340  0.06290  0.89410  Biso   1.000  C
  C131     1.0000 0.72660  0.56290  0.60590  Biso   1.000  C
  C132     1.0000 0.27340  0.56290  0.89410  Biso   1.000  C
  C133     1.0000 0.77340  0.93710  0.39410  Biso   1.000  C
  C134     1.0000 0.22660  0.93710  0.10590  Biso   1.000  C
  C135     1.0000 0.27340  0.43710  0.39410  Biso   1.000  C
  C136     1.0000 0.72660  0.43710  0.10590  Biso   1.000  C
  H89      1.0000 0.23340  0.04570  0.55660  Biso   1.000  H
  H90      1.0000 0.76660  0.04570  0.94340  Biso   1.000  H
  H91      1.0000 0.73340  0.54570  0.55660  Biso   1.000  H
  H92      1.0000 0.26660  0.54570  0.94340  Biso   1.000  H
  H93      1.0000 0.76660  0.95430  0.44340  Biso   1.000  H
  H94      1.0000 0.23340  0.95430  0.05660  Biso   1.000  H
  H95      1.0000 0.26660  0.45430  0.44340  Biso   1.000  H
  H96      1.0000 0.73340  0.45430  0.05660  Biso   1.000  H
  C137     1.0000 0.28660  0.09290  0.71360  Biso   1.000  C
  C138     1.0000 0.71340  0.09290  0.78640  Biso   1.000  C
  C139     1.0000 0.78660  0.59290  0.71360  Biso   1.000  C
  C140     1.0000 0.21340  0.59290  0.78640  Biso   1.000  C
  C141     1.0000 0.71340  0.90710  0.28640  Biso   1.000  C
  C142     1.0000 0.28660  0.90710  0.21360  Biso   1.000  C
  C143     1.0000 0.21340  0.40710  0.28640  Biso   1.000  C
  C144     1.0000 0.78660  0.40710  0.21360  Biso   1.000  C
  H97      1.0000 0.34250  0.10050  0.75150  Biso   1.000  H
  H98      1.0000 0.65750  0.10050  0.74850  Biso   1.000  H
  H99      1.0000 0.84250  0.60050  0.75150  Biso   1.000  H
  H100     1.0000 0.15750  0.60050  0.74850  Biso   1.000  H
  H101     1.0000 0.65750  0.89950  0.24850  Biso   1.000  H
  H102     1.0000 0.34250  0.89950  0.25150  Biso   1.000  H
  H103     1.0000 0.15750  0.39950  0.24850  Biso   1.000  H
  H104     1.0000 0.84250  0.39950  0.25150  Biso   1.000  H
