data_image0
_cell_length_a       7.942
_cell_length_b       14.366
_cell_length_c       9.21
_cell_angle_alpha    90
_cell_angle_beta     102.01
_cell_angle_gamma    90

_symmetry_space_group_name_H-M    "P 1"
_symmetry_int_tables_number       1

loop_
  _symmetry_equiv_pos_as_xyz
  'x, y, z'

loop_
  _atom_site_label
  _atom_site_occupancy
  _atom_site_fract_x
  _atom_site_fract_y
  _atom_site_fract_z
  _atom_site_thermal_displace_type
  _atom_site_B_iso_or_equiv
  _atom_site_type_symbol
  Cu1      1.0000 0.41440  0.92590  0.78170  Biso   1.000  Cu
  Cu2      1.0000 0.58560  0.42590  0.71830  Biso   1.000  Cu
  Cu3      1.0000 0.58560  0.07410  0.21830  Biso   1.000  Cu
  Cu4      1.0000 0.41440  0.57410  0.28170  Biso   1.000  Cu
  S1       1.0000 0.24970  0.94700  0.03260  Biso   1.000  S
  S2       1.0000 0.75030  0.44700  0.46740  Biso   1.000  S
  S3       1.0000 0.75030  0.05300  0.96740  Biso   1.000  S
  S4       1.0000 0.24970  0.55300  0.53260  Biso   1.000  S
  S5       1.0000 0.60870  0.68080  0.38210  Biso   1.000  S
  S6       1.0000 0.39130  0.18080  0.11790  Biso   1.000  S
  S7       1.0000 0.39130  0.31920  0.61790  Biso   1.000  S
  S8       1.0000 0.60870  0.81920  0.88210  Biso   1.000  S
  Cl1      1.0000 0.18260  0.87100  0.61790  Biso   1.000  Cl
  Cl2      1.0000 0.81740  0.37100  0.88210  Biso   1.000  Cl
  Cl3      1.0000 0.81740  0.12900  0.38210  Biso   1.000  Cl
  Cl4      1.0000 0.18260  0.62900  0.11790  Biso   1.000  Cl
  N1       1.0000 0.53660  0.94020  0.23850  Biso   1.000  N
  N2       1.0000 0.46340  0.44020  0.26150  Biso   1.000  N
  N3       1.0000 0.46340  0.05980  0.76150  Biso   1.000  N
  N4       1.0000 0.53660  0.55980  0.73850  Biso   1.000  N
  N5       1.0000 0.40800  0.80160  0.20510  Biso   1.000  N
  N6       1.0000 0.59200  0.30160  0.29490  Biso   1.000  N
  N7       1.0000 0.59200  0.19840  0.79490  Biso   1.000  N
  N8       1.0000 0.40800  0.69840  0.70510  Biso   1.000  N
  C1       1.0000 0.40780  0.89580  0.16810  Biso   1.000  C
  C2       1.0000 0.59220  0.39580  0.33190  Biso   1.000  C
  C3       1.0000 0.59220  0.10420  0.83190  Biso   1.000  C
  C4       1.0000 0.40780  0.60420  0.66810  Biso   1.000  C
  C5       1.0000 0.54870  0.78290  0.30600  Biso   1.000  C
  C6       1.0000 0.45130  0.28290  0.19400  Biso   1.000  C
  C7       1.0000 0.45130  0.21710  0.69400  Biso   1.000  C
  C8       1.0000 0.54870  0.71710  0.80600  Biso   1.000  C
  C9       1.0000 0.64920  0.87350  0.33780  Biso   1.000  C
  C10      1.0000 0.35080  0.37350  0.16220  Biso   1.000  C
  C11      1.0000 0.35080  0.12650  0.66220  Biso   1.000  C
  C12      1.0000 0.64920  0.62650  0.83780  Biso   1.000  C
  C13      1.0000 0.82170  0.86700  0.29320  Biso   1.000  C
  C14      1.0000 0.17830  0.36700  0.20680  Biso   1.000  C
  C15      1.0000 0.17830  0.13300  0.70680  Biso   1.000  C
  C16      1.0000 0.82170  0.63300  0.79320  Biso   1.000  C
  C17      1.0000 0.66750  0.90080  0.49980  Biso   1.000  C
  C18      1.0000 0.33250  0.40080  0.00020  Biso   1.000  C
  C19      1.0000 0.33250  0.09920  0.50020  Biso   1.000  C
  C20      1.0000 0.66750  0.59920  0.99980  Biso   1.000  C
  C21      1.0000 0.09590  0.85620  0.97960  Biso   1.000  C
  C22      1.0000 0.90410  0.35620  0.52040  Biso   1.000  C
  C23      1.0000 0.90410  0.14380  0.02040  Biso   1.000  C
  C24      1.0000 0.09590  0.64380  0.47960  Biso   1.000  C
  H1       1.0000 0.32930  0.76210  0.16830  Biso   1.000  H
  H2       1.0000 0.67070  0.26210  0.33170  Biso   1.000  H
  H3       1.0000 0.67070  0.23790  0.83170  Biso   1.000  H
  H4       1.0000 0.32930  0.73790  0.66830  Biso   1.000  H
  H5       1.0000 0.80470  0.84950  0.19060  Biso   1.000  H
  H6       1.0000 0.19530  0.34950  0.30940  Biso   1.000  H
  H7       1.0000 0.19530  0.15050  0.80940  Biso   1.000  H
  H8       1.0000 0.80470  0.65050  0.69060  Biso   1.000  H
  H9       1.0000 0.89150  0.82100  0.35330  Biso   1.000  H
  H10      1.0000 0.10850  0.32100  0.14670  Biso   1.000  H
  H11      1.0000 0.10850  0.17900  0.64670  Biso   1.000  H
  H12      1.0000 0.89150  0.67900  0.85330  Biso   1.000  H
  H13      1.0000 0.87850  0.92630  0.30760  Biso   1.000  H
  H14      1.0000 0.12150  0.42630  0.19240  Biso   1.000  H
  H15      1.0000 0.12150  0.07370  0.69240  Biso   1.000  H
  H16      1.0000 0.87850  0.57370  0.80760  Biso   1.000  H
  H17      1.0000 0.55560  0.90430  0.52360  Biso   1.000  H
  H18      1.0000 0.44440  0.40430  0.97640  Biso   1.000  H
  H19      1.0000 0.44440  0.09570  0.47640  Biso   1.000  H
  H20      1.0000 0.55560  0.59570  0.02360  Biso   1.000  H
  H21      1.0000 0.72300  0.96030  0.51640  Biso   1.000  H
  H22      1.0000 0.27700  0.46030  0.98360  Biso   1.000  H
  H23      1.0000 0.27700  0.03970  0.48360  Biso   1.000  H
  H24      1.0000 0.72300  0.53970  0.01640  Biso   1.000  H
  H25      1.0000 0.73560  0.85500  0.56180  Biso   1.000  H
  H26      1.0000 0.26440  0.35500  0.93820  Biso   1.000  H
  H27      1.0000 0.26440  0.14500  0.43820  Biso   1.000  H
  H28      1.0000 0.73560  0.64500  0.06180  Biso   1.000  H
  H29      1.0000 0.00280  0.87860  0.90410  Biso   1.000  H
  H30      1.0000 0.99720  0.37860  0.59590  Biso   1.000  H
  H31      1.0000 0.99720  0.12140  0.09590  Biso   1.000  H
  H32      1.0000 0.00280  0.62140  0.40410  Biso   1.000  H
  H33      1.0000 0.05010  0.80440  0.94180  Biso   1.000  H
  H34      1.0000 0.94990  0.30440  0.55820  Biso   1.000  H
  H35      1.0000 0.94990  0.19560  0.05820  Biso   1.000  H
  H36      1.0000 0.05010  0.69560  0.44180  Biso   1.000  H
  H37      1.0000 0.05230  0.83670  0.93560  Biso   1.000  H
  H38      1.0000 0.94770  0.33670  0.56440  Biso   1.000  H
  H39      1.0000 0.94770  0.16330  0.06440  Biso   1.000  H
  H40      1.0000 0.05230  0.66330  0.43560  Biso   1.000  H
