data_image0
_cell_length_a       10.7871
_cell_length_b       10.9016
_cell_length_c       12.7897
_cell_angle_alpha    96.85
_cell_angle_beta     110.085
_cell_angle_gamma    103.58

_symmetry_space_group_name_H-M    "P 1"
_symmetry_int_tables_number       1

loop_
  _symmetry_equiv_pos_as_xyz
  'x, y, z'

loop_
  _atom_site_label
  _atom_site_occupancy
  _atom_site_fract_x
  _atom_site_fract_y
  _atom_site_fract_z
  _atom_site_thermal_displace_type
  _atom_site_B_iso_or_equiv
  _atom_site_type_symbol
  Cu1      1.0000 0.88210  0.96740  0.68470  Biso   1.000  Cu
  Cu2      1.0000 0.11790  0.03260  0.31530  Biso   1.000  Cu
  Mo1      1.0000 0.61519  0.72040  0.02717  Biso   1.000  Mo
  Mo2      1.0000 0.38481  0.27960  0.97283  Biso   1.000  Mo
  Mo3      1.0000 0.55760  0.97310  0.74188  Biso   1.000  Mo
  Mo4      1.0000 0.44240  0.02690  0.25812  Biso   1.000  Mo
  Mo5      1.0000 0.67903  0.28777  0.21576  Biso   1.000  Mo
  Mo6      1.0000 0.32097  0.71223  0.78424  Biso   1.000  Mo
  Mo7      1.0000 0.71465  0.27236  0.94892  Biso   1.000  Mo
  Mo8      1.0000 0.28535  0.72764  0.05108  Biso   1.000  Mo
  Mo9      1.0000 0.76718  0.99522  0.25394  Biso   1.000  Mo
  Mo10     1.0000 0.23282  0.00478  0.74606  Biso   1.000  Mo
  Mo11     1.0000 0.82450  0.00220  0.00056  Biso   1.000  Mo
  Mo12     1.0000 0.17550  0.99780  0.99944  Biso   1.000  Mo
  P1       1.0000 0.50000  0.00000  0.00000  Biso   1.000  P
  N1       1.0000 0.89390  0.14140  0.68280  Biso   1.000  N
  N2       1.0000 0.10610  0.85860  0.31720  Biso   1.000  N
  N3       1.0000 0.87010  0.78740  0.67410  Biso   1.000  N
  N4       1.0000 0.12990  0.21260  0.32590  Biso   1.000  N
  N5       1.0000 0.54890  0.70500  0.31980  Biso   1.000  N
  N6       1.0000 0.45110  0.29500  0.68020  Biso   1.000  N
  C1       1.0000 0.96700  0.23960  0.77540  Biso   1.000  C
  C2       1.0000 0.03300  0.76040  0.22460  Biso   1.000  C
  H1       1.0000 0.01660  0.21930  0.84300  Biso   1.000  H
  H2       1.0000 0.98340  0.78070  0.15700  Biso   1.000  H
  C3       1.0000 0.97400  0.36700  0.77660  Biso   1.000  C
  C4       1.0000 0.02600  0.63300  0.22340  Biso   1.000  C
  H3       1.0000 0.02770  0.43050  0.84300  Biso   1.000  H
  H4       1.0000 0.97230  0.56950  0.15700  Biso   1.000  H
  C5       1.0000 0.89900  0.40200  0.67660  Biso   1.000  C
  C6       1.0000 0.10100  0.59800  0.32340  Biso   1.000  C
  C7       1.0000 0.82700  0.30440  0.58070  Biso   1.000  C
  C8       1.0000 0.17300  0.69560  0.41930  Biso   1.000  C
  H5       1.0000 0.78020  0.32400  0.51210  Biso   1.000  H
  H6       1.0000 0.21980  0.67600  0.48790  Biso   1.000  H
  C9       1.0000 0.82400  0.17650  0.58430  Biso   1.000  C
  C10      1.0000 0.17600  0.82350  0.41570  Biso   1.000  C
  H7       1.0000 0.77360  0.11270  0.51800  Biso   1.000  H
  H8       1.0000 0.22640  0.88730  0.48200  Biso   1.000  H
  C11      1.0000 0.89410  0.53800  0.67690  Biso   1.000  C
  C12      1.0000 0.10590  0.46200  0.32310  Biso   1.000  C
  C13      1.0000 0.87600  0.60950  0.76500  Biso   1.000  C
  C14      1.0000 0.12400  0.39050  0.23500  Biso   1.000  C
  H9       1.0000 0.87530  0.57540  0.82810  Biso   1.000  H
  H10      1.0000 0.12470  0.42460  0.17190  Biso   1.000  H
  C15      1.0000 0.86000  0.73050  0.75990  Biso   1.000  C
  C16      1.0000 0.14000  0.26950  0.24010  Biso   1.000  C
  H11      1.0000 0.84150  0.77400  0.81720  Biso   1.000  H
  H12      1.0000 0.15850  0.22600  0.18280  Biso   1.000  H
  C17      1.0000 0.88560  0.71980  0.58810  Biso   1.000  C
  C18      1.0000 0.11440  0.28020  0.41190  Biso   1.000  C
  H13      1.0000 0.89000  0.75720  0.52730  Biso   1.000  H
  H14      1.0000 0.11000  0.24280  0.47270  Biso   1.000  H
  C19      1.0000 0.89500  0.59530  0.58670  Biso   1.000  C
  C20      1.0000 0.10500  0.40470  0.41330  Biso   1.000  C
  H15      1.0000 0.90300  0.54970  0.52410  Biso   1.000  H
  H16      1.0000 0.09700  0.45030  0.47590  Biso   1.000  H
  C21      1.0000 0.50850  0.54490  0.45870  Biso   1.000  C
  C22      1.0000 0.49150  0.45510  0.54130  Biso   1.000  C
  C23      1.0000 0.51800  0.67220  0.48780  Biso   1.000  C
  C24      1.0000 0.48200  0.32780  0.51220  Biso   1.000  C
  H17      1.0000 0.50510  0.70380  0.55270  Biso   1.000  H
  H18      1.0000 0.49490  0.29620  0.44730  Biso   1.000  H
  C25      1.0000 0.54800  0.75300  0.41890  Biso   1.000  C
  C26      1.0000 0.45200  0.24700  0.58110  Biso   1.000  C
  H19      1.0000 0.56810  0.84240  0.44260  Biso   1.000  H
  H20      1.0000 0.43190  0.15760  0.55740  Biso   1.000  H
  C27      1.0000 0.53900  0.58360  0.29000  Biso   1.000  C
  C28      1.0000 0.46100  0.41640  0.71000  Biso   1.000  C
  H21      1.0000 0.54970  0.55450  0.22300  Biso   1.000  H
  H22      1.0000 0.45030  0.44550  0.77700  Biso   1.000  H
  C29      1.0000 0.51400  0.49700  0.35700  Biso   1.000  C
  C30      1.0000 0.48600  0.50300  0.64300  Biso   1.000  C
  H23      1.0000 0.50130  0.40940  0.33280  Biso   1.000  H
  H24      1.0000 0.49870  0.59060  0.66720  Biso   1.000  H
  O1       1.0000 0.62400  0.94300  0.05290  Biso   1.000  O
  O2       1.0000 0.37600  0.05700  0.94710  Biso   1.000  O
  O3       1.0000 0.56800  0.06000  0.12760  Biso   1.000  O
  O4       1.0000 0.43200  0.94000  0.87240  Biso   1.000  O
  O5       1.0000 0.55000  0.14000  0.02490  Biso   1.000  O
  O6       1.0000 0.45000  0.86000  0.97510  Biso   1.000  O
  O7       1.0000 0.60300  0.05100  0.94400  Biso   1.000  O
  O8       1.0000 0.39700  0.94900  0.05600  Biso   1.000  O
  O9       1.0000 0.86700  0.02020  0.16020  Biso   1.000  O
  O10      1.0000 0.13300  0.97980  0.83980  Biso   1.000  O
  O11      1.0000 0.81340  0.40590  0.93280  Biso   1.000  O
  O12      1.0000 0.18660  0.59410  0.06720  Biso   1.000  O
  O13      1.0000 0.00000  0.00000  0.00000  Biso   1.000  O
  O14      1.0000 0.64300  0.16650  0.81120  Biso   1.000  O
  O15      1.0000 0.35700  0.83350  0.18880  Biso   1.000  O
  O16      1.0000 0.72360  0.95790  0.83910  Biso   1.000  O
  O17      1.0000 0.27640  0.04210  0.16090  Biso   1.000  O
  O18      1.0000 0.77790  0.17610  0.27500  Biso   1.000  O
  O19      1.0000 0.22210  0.82390  0.72500  Biso   1.000  O
  O20      1.0000 0.74800  0.81320  0.99320  Biso   1.000  O
  O21      1.0000 0.25200  0.18680  0.00680  Biso   1.000  O
  O22      1.0000 0.84530  0.17470  0.00450  Biso   1.000  O
  O23      1.0000 0.15470  0.82530  0.99550  Biso   1.000  O
  O24      1.0000 0.75740  0.42050  0.32030  Biso   1.000  O
  O25      1.0000 0.24260  0.57950  0.67970  Biso   1.000  O
  O26      1.0000 0.69200  0.81760  0.18240  Biso   1.000  O
  O27      1.0000 0.30800  0.18240  0.81760  Biso   1.000  O
  O28      1.0000 0.57920  0.96860  0.61980  Biso   1.000  O
  O29      1.0000 0.42080  0.03140  0.38020  Biso   1.000  O
  O30      1.0000 0.61210  0.97610  0.29920  Biso   1.000  O
  O31      1.0000 0.38790  0.02390  0.70080  Biso   1.000  O
  O32      1.0000 0.45600  0.80650  0.72540  Biso   1.000  O
  O33      1.0000 0.54400  0.19350  0.27460  Biso   1.000  O
  O34      1.0000 0.44590  0.67900  0.07130  Biso   1.000  O
  O35      1.0000 0.55410  0.32100  0.92870  Biso   1.000  O
  O36      1.0000 0.88710  0.99410  0.37710  Biso   1.000  O
  O37      1.0000 0.11290  0.00590  0.62290  Biso   1.000  O
  O38      1.0000 0.75760  0.32080  0.11470  Biso   1.000  O
  O39      1.0000 0.24240  0.67920  0.88530  Biso   1.000  O
  O40      1.0000 0.48130  0.66940  0.87630  Biso   1.000  O
  O41      1.0000 0.51870  0.33060  0.12370  Biso   1.000  O
  O42      1.0000 0.66030  0.58650  0.04770  Biso   1.000  O
  O43      1.0000 0.33970  0.41350  0.95230  Biso   1.000  O
