data_image0
_cell_length_a       9.1569
_cell_length_b       31.76
_cell_length_c       8.2462
_cell_angle_alpha    90
_cell_angle_beta     99.38
_cell_angle_gamma    90

_symmetry_space_group_name_H-M    "P 1"
_symmetry_int_tables_number       1

loop_
  _symmetry_equiv_pos_as_xyz
  'x, y, z'

loop_
  _atom_site_label
  _atom_site_occupancy
  _atom_site_fract_x
  _atom_site_fract_y
  _atom_site_fract_z
  _atom_site_thermal_displace_type
  _atom_site_B_iso_or_equiv
  _atom_site_type_symbol
  I1       1.0000 0.50394  0.05527  0.88063  Biso   1.000  I
  I2       1.0000 0.49606  0.55527  0.61937  Biso   1.000  I
  I3       1.0000 0.49606  0.94473  0.11937  Biso   1.000  I
  I4       1.0000 0.50394  0.44473  0.38063  Biso   1.000  I
  I5       1.0000 0.43877  0.93823  0.58758  Biso   1.000  I
  I6       1.0000 0.56123  0.43823  0.91242  Biso   1.000  I
  I7       1.0000 0.56123  0.06177  0.41242  Biso   1.000  I
  I8       1.0000 0.43877  0.56177  0.08758  Biso   1.000  I
  Cu1      1.0000 0.36890  0.98230  0.83200  Biso   1.000  Cu
  Cu2      1.0000 0.63110  0.48230  0.66800  Biso   1.000  Cu
  Cu3      1.0000 0.63110  0.01770  0.16800  Biso   1.000  Cu
  Cu4      1.0000 0.36890  0.51770  0.33200  Biso   1.000  Cu
  Cu5      1.0000 0.60543  0.00638  0.66399  Biso   1.000  Cu
  Cu6      1.0000 0.39457  0.50638  0.83601  Biso   1.000  Cu
  Cu7      1.0000 0.39457  0.99362  0.33601  Biso   1.000  Cu
  Cu8      1.0000 0.60543  0.49362  0.16399  Biso   1.000  Cu
  C1       1.0000 0.80570  0.93350  0.87430  Biso   1.000  C
  C2       1.0000 0.19430  0.43350  0.62570  Biso   1.000  C
  C3       1.0000 0.19430  0.06650  0.12570  Biso   1.000  C
  C4       1.0000 0.80570  0.56650  0.37430  Biso   1.000  C
  H1       1.0000 0.70350  0.93700  0.85890  Biso   1.000  H
  H2       1.0000 0.29650  0.43700  0.64110  Biso   1.000  H
  H3       1.0000 0.29650  0.06300  0.14110  Biso   1.000  H
  H4       1.0000 0.70350  0.56300  0.35890  Biso   1.000  H
  N1       1.0000 0.83060  0.99780  0.72620  Biso   1.000  N
  N2       1.0000 0.16940  0.49780  0.77380  Biso   1.000  N
  N3       1.0000 0.16940  0.00220  0.27380  Biso   1.000  N
  N4       1.0000 0.83060  0.50220  0.22620  Biso   1.000  N
  N5       1.0000 0.14230  0.98870  0.78970  Biso   1.000  N
  N6       1.0000 0.85770  0.48870  0.71030  Biso   1.000  N
  N7       1.0000 0.85770  0.01130  0.21030  Biso   1.000  N
  N8       1.0000 0.14230  0.51130  0.28970  Biso   1.000  N
  C5       1.0000 0.50360  0.80140  0.48210  Biso   1.000  C
  C6       1.0000 0.49640  0.30140  0.01790  Biso   1.000  C
  C7       1.0000 0.49640  0.19860  0.51790  Biso   1.000  C
  C8       1.0000 0.50360  0.69860  0.98210  Biso   1.000  C
  H5       1.0000 0.60820  0.79690  0.51200  Biso   1.000  H
  H6       1.0000 0.39180  0.29690  0.98800  Biso   1.000  H
  H7       1.0000 0.39180  0.20310  0.48800  Biso   1.000  H
  H8       1.0000 0.60820  0.70310  0.01200  Biso   1.000  H
  H9       1.0000 0.45120  0.78040  0.53350  Biso   1.000  H
  H10      1.0000 0.54880  0.28040  0.96650  Biso   1.000  H
  H11      1.0000 0.54880  0.21960  0.46650  Biso   1.000  H
  H12      1.0000 0.45120  0.71960  0.03350  Biso   1.000  H
  H13      1.0000 0.47860  0.82880  0.51790  Biso   1.000  H
  H14      1.0000 0.52140  0.32880  0.98210  Biso   1.000  H
  H15      1.0000 0.52140  0.17120  0.48210  Biso   1.000  H
  H16      1.0000 0.47860  0.67120  0.01790  Biso   1.000  H
  C9       1.0000 0.10650  0.85720  0.39080  Biso   1.000  C
  C10      1.0000 0.89350  0.35720  0.10920  Biso   1.000  C
  C11      1.0000 0.89350  0.14280  0.60920  Biso   1.000  C
  C12      1.0000 0.10650  0.64280  0.89080  Biso   1.000  C
  H17      1.0000 0.20840  0.85370  0.40230  Biso   1.000  H
  H18      1.0000 0.79160  0.35370  0.09770  Biso   1.000  H
  H19      1.0000 0.79160  0.14630  0.59770  Biso   1.000  H
  H20      1.0000 0.20840  0.64630  0.90230  Biso   1.000  H
  C13      1.0000 0.92190  0.02600  0.67820  Biso   1.000  C
  C14      1.0000 0.07810  0.52600  0.82180  Biso   1.000  C
  C15      1.0000 0.07810  0.97400  0.32180  Biso   1.000  C
  C16      1.0000 0.92190  0.47400  0.17820  Biso   1.000  C
  H21      1.0000 0.88170  0.04950  0.61970  Biso   1.000  H
  H22      1.0000 0.11830  0.54950  0.88030  Biso   1.000  H
  H23      1.0000 0.11830  0.95050  0.38030  Biso   1.000  H
  H24      1.0000 0.88170  0.45050  0.11970  Biso   1.000  H
  C17      1.0000 0.89570  0.96370  0.81230  Biso   1.000  C
  C18      1.0000 0.10430  0.46370  0.68770  Biso   1.000  C
  C19      1.0000 0.10430  0.03630  0.18770  Biso   1.000  C
  C20      1.0000 0.89570  0.53630  0.31230  Biso   1.000  C
  C21      1.0000 0.05180  0.95870  0.83840  Biso   1.000  C
  C22      1.0000 0.94820  0.45870  0.66160  Biso   1.000  C
  C23      1.0000 0.94820  0.04130  0.16160  Biso   1.000  C
  C24      1.0000 0.05180  0.54130  0.33840  Biso   1.000  C
  C25      1.0000 0.86780  0.86300  0.21590  Biso   1.000  C
  C26      1.0000 0.13220  0.36300  0.28410  Biso   1.000  C
  C27      1.0000 0.13220  0.13700  0.78410  Biso   1.000  C
  C28      1.0000 0.86780  0.63700  0.71590  Biso   1.000  C
  C29      1.0000 0.79430  0.86390  0.03760  Biso   1.000  C
  C30      1.0000 0.20570  0.36390  0.46240  Biso   1.000  C
  C31      1.0000 0.20570  0.13610  0.96240  Biso   1.000  C
  C32      1.0000 0.79430  0.63610  0.53760  Biso   1.000  C
  H25      1.0000 0.68670  0.86740  0.02420  Biso   1.000  H
  H26      1.0000 0.31330  0.36740  0.47580  Biso   1.000  H
  H27      1.0000 0.31330  0.13260  0.97580  Biso   1.000  H
  H28      1.0000 0.68670  0.63260  0.52420  Biso   1.000  H
  C33      1.0000 0.02650  0.89320  0.97990  Biso   1.000  C
  C34      1.0000 0.97350  0.39320  0.52010  Biso   1.000  C
  C35      1.0000 0.97350  0.10680  0.02010  Biso   1.000  C
  C36      1.0000 0.02650  0.60680  0.47990  Biso   1.000  C
  N9       1.0000 0.43210  0.79680  0.16730  Biso   1.000  N
  N10      1.0000 0.56790  0.29680  0.33270  Biso   1.000  N
  N11      1.0000 0.56790  0.20320  0.83270  Biso   1.000  N
  N12      1.0000 0.43210  0.70320  0.66730  Biso   1.000  N
  C37      1.0000 0.99480  0.81860  0.97780  Biso   1.000  C
  C38      1.0000 0.00520  0.31860  0.52220  Biso   1.000  C
  C39      1.0000 0.00520  0.18140  0.02220  Biso   1.000  C
  C40      1.0000 0.99480  0.68140  0.47780  Biso   1.000  C
  C41      1.0000 0.46260  0.79840  0.30500  Biso   1.000  C
  C42      1.0000 0.53740  0.29840  0.19500  Biso   1.000  C
  C43      1.0000 0.53740  0.20160  0.69500  Biso   1.000  C
  C44      1.0000 0.46260  0.70160  0.80500  Biso   1.000  C
  C45      1.0000 0.07940  0.85370  0.07350  Biso   1.000  C
  C46      1.0000 0.92060  0.35370  0.42650  Biso   1.000  C
  C47      1.0000 0.92060  0.14630  0.92650  Biso   1.000  C
  C48      1.0000 0.07940  0.64630  0.57350  Biso   1.000  C
  H29      1.0000 0.18700  0.85000  0.08820  Biso   1.000  H
  H30      1.0000 0.81300  0.35000  0.41180  Biso   1.000  H
  H31      1.0000 0.81300  0.15000  0.91180  Biso   1.000  H
  H32      1.0000 0.18700  0.65000  0.58820  Biso   1.000  H
  C49      1.0000 0.80910  0.75890  0.80970  Biso   1.000  C
  C50      1.0000 0.19090  0.25890  0.69030  Biso   1.000  C
  C51      1.0000 0.19090  0.24110  0.19030  Biso   1.000  C
  C52      1.0000 0.80910  0.74110  0.30970  Biso   1.000  C
  H33      1.0000 0.74730  0.73880  0.75250  Biso   1.000  H
  H34      1.0000 0.25270  0.23880  0.74750  Biso   1.000  H
  H35      1.0000 0.25270  0.26120  0.24750  Biso   1.000  H
  H36      1.0000 0.74730  0.76120  0.25250  Biso   1.000  H
  C53      1.0000 0.07580  0.02190  0.71190  Biso   1.000  C
  C54      1.0000 0.92420  0.52190  0.78810  Biso   1.000  C
  C55      1.0000 0.92420  0.97810  0.28810  Biso   1.000  C
  C56      1.0000 0.07580  0.47810  0.21190  Biso   1.000  C
  H37      1.0000 0.13400  0.04330  0.67860  Biso   1.000  H
  H38      1.0000 0.86600  0.54330  0.82140  Biso   1.000  H
  H39      1.0000 0.86600  0.95670  0.32140  Biso   1.000  H
  H40      1.0000 0.13400  0.45670  0.17860  Biso   1.000  H
  C57      1.0000 0.05410  0.78380  0.91270  Biso   1.000  C
  C58      1.0000 0.94590  0.28380  0.58730  Biso   1.000  C
  C59      1.0000 0.94590  0.21620  0.08730  Biso   1.000  C
  C60      1.0000 0.05410  0.71620  0.41270  Biso   1.000  C
  H41      1.0000 0.15620  0.78030  0.92570  Biso   1.000  H
  H42      1.0000 0.84380  0.28030  0.57430  Biso   1.000  H
  H43      1.0000 0.84380  0.21970  0.07430  Biso   1.000  H
  H44      1.0000 0.15620  0.71970  0.42570  Biso   1.000  H
  C61      1.0000 0.84090  0.82330  0.95890  Biso   1.000  C
  C62      1.0000 0.15910  0.32330  0.54110  Biso   1.000  C
  C63      1.0000 0.15910  0.17670  0.04110  Biso   1.000  C
  C64      1.0000 0.84090  0.67670  0.45890  Biso   1.000  C
  C65      1.0000 0.03830  0.86160  0.52730  Biso   1.000  C
  C66      1.0000 0.96170  0.36160  0.97270  Biso   1.000  C
  C67      1.0000 0.96170  0.13840  0.47270  Biso   1.000  C
  C68      1.0000 0.03830  0.63840  0.02730  Biso   1.000  C
  H45      1.0000 0.09500  0.86180  0.63180  Biso   1.000  H
  H46      1.0000 0.90500  0.36180  0.86820  Biso   1.000  H
  H47      1.0000 0.90500  0.13820  0.36820  Biso   1.000  H
  H48      1.0000 0.09500  0.63820  0.13180  Biso   1.000  H
  C69      1.0000 0.79880  0.86690  0.35390  Biso   1.000  C
  C70      1.0000 0.20120  0.36690  0.14610  Biso   1.000  C
  C71      1.0000 0.20120  0.13310  0.64610  Biso   1.000  C
  C72      1.0000 0.79880  0.63310  0.85390  Biso   1.000  C
  H49      1.0000 0.69680  0.87040  0.34210  Biso   1.000  H
  H50      1.0000 0.30320  0.37040  0.15790  Biso   1.000  H
  H51      1.0000 0.30320  0.12960  0.65790  Biso   1.000  H
  H52      1.0000 0.69680  0.62960  0.84210  Biso   1.000  H
  C73      1.0000 0.87030  0.89890  0.95750  Biso   1.000  C
  C74      1.0000 0.12970  0.39890  0.54250  Biso   1.000  C
  C75      1.0000 0.12970  0.10110  0.04250  Biso   1.000  C
  C76      1.0000 0.87030  0.60110  0.45750  Biso   1.000  C
  C77      1.0000 0.74540  0.79440  0.87660  Biso   1.000  C
  C78      1.0000 0.25460  0.29440  0.62340  Biso   1.000  C
  C79      1.0000 0.25460  0.20560  0.12340  Biso   1.000  C
  C80      1.0000 0.74540  0.70560  0.37660  Biso   1.000  C
  H53      1.0000 0.64340  0.79780  0.86510  Biso   1.000  H
  H54      1.0000 0.35660  0.29780  0.63490  Biso   1.000  H
  H55      1.0000 0.35660  0.20220  0.13490  Biso   1.000  H
  H56      1.0000 0.64340  0.70220  0.36510  Biso   1.000  H
  C81      1.0000 0.02000  0.85820  0.23610  Biso   1.000  C
  C82      1.0000 0.98000  0.35820  0.26390  Biso   1.000  C
  C83      1.0000 0.98000  0.14180  0.76390  Biso   1.000  C
  C84      1.0000 0.02000  0.64180  0.73610  Biso   1.000  C
  C85      1.0000 0.11380  0.92190  0.92000  Biso   1.000  C
  C86      1.0000 0.88620  0.42190  0.58000  Biso   1.000  C
  C87      1.0000 0.88620  0.07810  0.08000  Biso   1.000  C
  C88      1.0000 0.11380  0.57810  0.42000  Biso   1.000  C
  H57      1.0000 0.21530  0.91740  0.93260  Biso   1.000  H
  H58      1.0000 0.78470  0.41740  0.56740  Biso   1.000  H
  H59      1.0000 0.78470  0.08260  0.06740  Biso   1.000  H
  H60      1.0000 0.21530  0.58260  0.43260  Biso   1.000  H
  C89      1.0000 0.96050  0.75370  0.82740  Biso   1.000  C
  C90      1.0000 0.03950  0.25370  0.67260  Biso   1.000  C
  C91      1.0000 0.03950  0.24630  0.17260  Biso   1.000  C
  C92      1.0000 0.96050  0.74630  0.32740  Biso   1.000  C
  H61      1.0000 0.99990  0.73020  0.78270  Biso   1.000  H
  H62      1.0000 0.00010  0.23020  0.71730  Biso   1.000  H
  H63      1.0000 0.00010  0.26980  0.21730  Biso   1.000  H
  H64      1.0000 0.99990  0.76980  0.28270  Biso   1.000  H
  C93      1.0000 0.88470  0.86570  0.50940  Biso   1.000  C
  C94      1.0000 0.11530  0.36570  0.99060  Biso   1.000  C
  C95      1.0000 0.11530  0.13430  0.49060  Biso   1.000  C
  C96      1.0000 0.88470  0.63430  0.00940  Biso   1.000  C
  H65      1.0000 0.83940  0.86750  0.60220  Biso   1.000  H
  H66      1.0000 0.16060  0.36750  0.89780  Biso   1.000  H
  H67      1.0000 0.16060  0.13250  0.39780  Biso   1.000  H
  H68      1.0000 0.83940  0.63250  0.10220  Biso   1.000  H
