data_image0
_cell_length_a       9.8372
_cell_length_b       11.97
_cell_length_c       15.8616
_cell_angle_alpha    75.471
_cell_angle_beta     86.569
_cell_angle_gamma    67.827

_symmetry_space_group_name_H-M    "P 1"
_symmetry_int_tables_number       1

loop_
  _symmetry_equiv_pos_as_xyz
  'x, y, z'

loop_
  _atom_site_label
  _atom_site_occupancy
  _atom_site_fract_x
  _atom_site_fract_y
  _atom_site_fract_z
  _atom_site_thermal_displace_type
  _atom_site_B_iso_or_equiv
  _atom_site_type_symbol
  I1       1.0000 0.10040  0.02106  0.37648  Biso   1.000  I
  I2       1.0000 0.89960  0.97894  0.62352  Biso   1.000  I
  Cu1      1.0000 0.18259  0.99622  0.22154  Biso   1.000  Cu
  Cu2      1.0000 0.81741  0.00378  0.77846  Biso   1.000  Cu
  C1       1.0000 0.70840  0.03110  0.26900  Biso   1.000  C
  C2       1.0000 0.29160  0.96890  0.73100  Biso   1.000  C
  H1       1.0000 0.80980  0.99860  0.27860  Biso   1.000  H
  H2       1.0000 0.19020  0.00140  0.72140  Biso   1.000  H
  C3       1.0000 0.63770  0.95840  0.24670  Biso   1.000  C
  C4       1.0000 0.36230  0.04160  0.75330  Biso   1.000  C
  N1       1.0000 0.40950  0.94310  0.20940  Biso   1.000  N
  N2       1.0000 0.59050  0.05690  0.79060  Biso   1.000  N
  C5       1.0000 0.48200  0.00960  0.23310  Biso   1.000  C
  C6       1.0000 0.51800  0.99040  0.76690  Biso   1.000  C
  C7       1.0000 0.62770  0.14880  0.27630  Biso   1.000  C
  C8       1.0000 0.37230  0.85120  0.72370  Biso   1.000  C
  C9       1.0000 0.47190  0.19740  0.26450  Biso   1.000  C
  C10      1.0000 0.52810  0.80260  0.73550  Biso   1.000  C
  C11      1.0000 0.39970  0.13070  0.24410  Biso   1.000  C
  C12      1.0000 0.60030  0.86930  0.75590  Biso   1.000  C
  H3       1.0000 0.29780  0.16370  0.23740  Biso   1.000  H
  H4       1.0000 0.70220  0.83630  0.76260  Biso   1.000  H
  C13      1.0000 0.49260  0.83680  0.19370  Biso   1.000  C
  C14      1.0000 0.50740  0.16320  0.80630  Biso   1.000  C
  H5       1.0000 0.44810  0.79330  0.17170  Biso   1.000  H
  H6       1.0000 0.55190  0.20670  0.82830  Biso   1.000  H
  N3       1.0000 0.08240  0.14440  0.12470  Biso   1.000  N
  N4       1.0000 0.91760  0.85560  0.87530  Biso   1.000  N
  C15      1.0000 0.03540  0.22380  0.06650  Biso   1.000  C
  C16      1.0000 0.96460  0.77620  0.93350  Biso   1.000  C
  C17      1.0000 0.97700  0.32750  0.98710  Biso   1.000  C
  C18      1.0000 0.02300  0.67250  0.01290  Biso   1.000  C
  H7       1.0000 0.02960  0.38220  0.98030  Biso   1.000  H
  H8       1.0000 0.97040  0.61780  0.01970  Biso   1.000  H
  H9       1.0000 0.87450  0.37310  0.99310  Biso   1.000  H
  H10      1.0000 0.12550  0.62690  0.00690  Biso   1.000  H
  H11      1.0000 0.98920  0.29400  0.93690  Biso   1.000  H
  H12      1.0000 0.01080  0.70600  0.06310  Biso   1.000  H
  N5       1.0000 0.71880  0.83970  0.23800  Biso   1.000  N
  N6       1.0000 0.28120  0.16030  0.76200  Biso   1.000  N
  C19      1.0000 0.64710  0.78390  0.20850  Biso   1.000  C
  C20      1.0000 0.35290  0.21610  0.79150  Biso   1.000  C
  H13      1.0000 0.69940  0.70690  0.19680  Biso   1.000  H
  H14      1.0000 0.30060  0.29310  0.80320  Biso   1.000  H
  C21      1.0000 0.30800  0.00600  0.97920  Biso   1.000  C
  C22      1.0000 0.69200  0.99400  0.02080  Biso   1.000  C
  C23      1.0000 0.19160  0.97000  0.96310  Biso   1.000  C
  C24      1.0000 0.80840  0.03000  0.03690  Biso   1.000  C
  H15      1.0000 0.14260  0.02040  0.90830  Biso   1.000  H
  H16      1.0000 0.85740  0.97960  0.09170  Biso   1.000  H
  H17      1.0000 0.12300  0.98120  0.00880  Biso   1.000  H
  H18      1.0000 0.87700  0.01880  0.99120  Biso   1.000  H
  H19      1.0000 0.23090  0.88400  0.96140  Biso   1.000  H
  H20      1.0000 0.76910  0.11600  0.03860  Biso   1.000  H
  N7       1.0000 0.39700  0.03050  0.98900  Biso   1.000  N
  N8       1.0000 0.60300  0.96950  0.01100  Biso   1.000  N
  C25      1.0000 0.51400  0.94600  0.46200  Biso   1.000  C
  C26      1.0000 0.48600  0.05400  0.53800  Biso   1.000  C
  N9       1.0000 0.54360  0.87770  0.41880  Biso   1.000  N
  N10      1.0000 0.45640  0.12230  0.58120  Biso   1.000  N
  C27      1.0000 0.47100  0.03600  0.51900  Biso   1.000  C
  C28      1.0000 0.52900  0.96400  0.48100  Biso   1.000  C
  H21      1.0000 0.41500  0.01040  0.56650  Biso   1.000  H
  H22      1.0000 0.58500  0.98960  0.43350  Biso   1.000  H
  H23      1.0000 0.41220  0.11800  0.48550  Biso   1.000  H
  H24      1.0000 0.58780  0.88200  0.51450  Biso   1.000  H
  H25      1.0000 0.55760  0.03870  0.54230  Biso   1.000  H
  H26      1.0000 0.44240  0.96130  0.45770  Biso   1.000  H
  C29      1.0000 0.40110  0.32930  0.27330  Biso   1.000  C
  C30      1.0000 0.59890  0.67070  0.72670  Biso   1.000  C
  H27      1.0000 0.29400  0.36260  0.26490  Biso   1.000  H
  H28      1.0000 0.70600  0.63740  0.73510  Biso   1.000  H
  C31      1.0000 0.66890  0.27440  0.45060  Biso   1.000  C
  C32      1.0000 0.33110  0.72560  0.54940  Biso   1.000  C
  H29      1.0000 0.77040  0.23900  0.45960  Biso   1.000  H
  H30      1.0000 0.22960  0.76100  0.54040  Biso   1.000  H
  C33      1.0000 0.60590  0.28070  0.37430  Biso   1.000  C
  C34      1.0000 0.39410  0.71930  0.62570  Biso   1.000  C
  C35      1.0000 0.35920  0.37840  0.42360  Biso   1.000  C
  C36      1.0000 0.64080  0.62160  0.57640  Biso   1.000  C
  H31      1.0000 0.25780  0.41070  0.41420  Biso   1.000  H
  H32      1.0000 0.74220  0.58930  0.58580  Biso   1.000  H
  C37      1.0000 0.45030  0.33120  0.36180  Biso   1.000  C
  C38      1.0000 0.54970  0.66880  0.63820  Biso   1.000  C
  N11      1.0000 0.40690  0.67160  0.02140  Biso   1.000  N
  N12      1.0000 0.59310  0.32840  0.97860  Biso   1.000  N
  N13      1.0000 0.71860  0.57890  0.04620  Biso   1.000  N
  N14      1.0000 0.28140  0.42110  0.95380  Biso   1.000  N
  C39      1.0000 0.68550  0.24130  0.29500  Biso   1.000  C
  C40      1.0000 0.31450  0.75870  0.70500  Biso   1.000  C
  H33      1.0000 0.79270  0.20810  0.30310  Biso   1.000  H
  H34      1.0000 0.20730  0.79190  0.69690  Biso   1.000  H
  C41      1.0000 0.62720  0.35740  0.21920  Biso   1.000  C
  C42      1.0000 0.37280  0.64260  0.78080  Biso   1.000  C
  C43      1.0000 0.47340  0.40510  0.20790  Biso   1.000  C
  C44      1.0000 0.52660  0.59490  0.79210  Biso   1.000  C
  C45      1.0000 0.70900  0.41430  0.16590  Biso   1.000  C
  C46      1.0000 0.29100  0.58570  0.83410  Biso   1.000  C
  H35      1.0000 0.81060  0.38280  0.17370  Biso   1.000  H
  H36      1.0000 0.18940  0.61720  0.82630  Biso   1.000  H
  C47      1.0000 0.39980  0.50760  0.14360  Biso   1.000  C
  C48      1.0000 0.60020  0.49240  0.85640  Biso   1.000  C
  H37      1.0000 0.29800  0.53750  0.13690  Biso   1.000  H
  H38      1.0000 0.70200  0.46250  0.86310  Biso   1.000  H
  C49      1.0000 0.63720  0.52180  0.09840  Biso   1.000  C
  C50      1.0000 0.36280  0.47820  0.90160  Biso   1.000  C
  C51      1.0000 0.48370  0.56810  0.08680  Biso   1.000  C
  C52      1.0000 0.51630  0.43190  0.91320  Biso   1.000  C
  C53      1.0000 0.64070  0.68000  0.98480  Biso   1.000  C
  C54      1.0000 0.35930  0.32000  0.01520  Biso   1.000  C
  H39      1.0000 0.69100  0.72400  0.94850  Biso   1.000  H
  H40      1.0000 0.30900  0.27600  0.05150  Biso   1.000  H
  C55      1.0000 0.48940  0.72260  0.97240  Biso   1.000  C
  C56      1.0000 0.51060  0.27740  0.02760  Biso   1.000  C
  H41      1.0000 0.44450  0.79130  0.92650  Biso   1.000  H
  H42      1.0000 0.55550  0.20870  0.07350  Biso   1.000  H
  C57      1.0000 0.42090  0.37750  0.50130  Biso   1.000  C
  C58      1.0000 0.57910  0.62250  0.49870  Biso   1.000  C
  N15      1.0000 0.33210  0.42690  0.56280  Biso   1.000  N
  N16      1.0000 0.66790  0.57310  0.43720  Biso   1.000  N
  C59      1.0000 0.39740  0.42790  0.63260  Biso   1.000  C
  C60      1.0000 0.60260  0.57210  0.36740  Biso   1.000  C
  H43      1.0000 0.33990  0.46520  0.67410  Biso   1.000  H
  H44      1.0000 0.66010  0.53480  0.32590  Biso   1.000  H
  C61      1.0000 0.57730  0.32260  0.51640  Biso   1.000  C
  C62      1.0000 0.42270  0.67740  0.48360  Biso   1.000  C
  C63      1.0000 0.55010  0.37500  0.64650  Biso   1.000  C
  C64      1.0000 0.44990  0.62500  0.35350  Biso   1.000  C
  H45      1.0000 0.58970  0.37940  0.69680  Biso   1.000  H
  H46      1.0000 0.41030  0.62060  0.30320  Biso   1.000  H
  N17      1.0000 0.64020  0.31930  0.59220  Biso   1.000  N
  N18      1.0000 0.35980  0.68070  0.40780  Biso   1.000  N
  I3       1.0000 0.02092  0.49898  0.72147  Biso   1.000  I
  I4       1.0000 0.97908  0.50102  0.27853  Biso   1.000  I
  Cu3      1.0000 0.10549  0.48337  0.56037  Biso   1.000  Cu
  Cu4      1.0000 0.89451  0.51663  0.43963  Biso   1.000  Cu
  Cu5      1.0000 0.93067  0.73139  0.28970  Biso   1.000  Cu
  Cu6      1.0000 0.06933  0.26861  0.71030  Biso   1.000  Cu
  I5       1.0000 0.95538  0.71048  0.46126  Biso   1.000  I
  I6       1.0000 0.04462  0.28952  0.53874  Biso   1.000  I
  I7       1.0000 0.12513  0.80375  0.19563  Biso   1.000  I
  I8       1.0000 0.87487  0.19625  0.80437  Biso   1.000  I
  Cu7      1.0000 0.14663  0.79563  0.36535  Biso   1.000  Cu
  Cu8      1.0000 0.85337  0.20437  0.63465  Biso   1.000  Cu
