data_image0
_cell_length_a       14.364
_cell_length_b       14.364
_cell_length_c       47.9353
_cell_angle_alpha    90
_cell_angle_beta     90
_cell_angle_gamma    120

_symmetry_space_group_name_H-M    "P 1"
_symmetry_int_tables_number       1

loop_
  _symmetry_equiv_pos_as_xyz
  'x, y, z'

loop_
  _atom_site_label
  _atom_site_occupancy
  _atom_site_fract_x
  _atom_site_fract_y
  _atom_site_fract_z
  _atom_site_thermal_displace_type
  _atom_site_B_iso_or_equiv
  _atom_site_type_symbol
  I1       1.0000 0.00000  0.00000  0.50000  Biso   1.000  I
  I2       1.0000 0.00000  0.00000  0.00000  Biso   1.000  I
  I3       1.0000 0.66667  0.33333  0.83333  Biso   1.000  I
  I4       1.0000 0.66667  0.33333  0.33333  Biso   1.000  I
  I5       1.0000 0.33333  0.66667  0.16667  Biso   1.000  I
  I6       1.0000 0.33333  0.66667  0.66667  Biso   1.000  I
  I7       1.0000 0.04647  0.84256  0.42734  Biso   1.000  I
  I8       1.0000 0.15744  0.20391  0.42734  Biso   1.000  I
  I9       1.0000 0.79609  0.95353  0.42734  Biso   1.000  I
  I10      1.0000 0.20391  0.15744  0.07266  Biso   1.000  I
  I11      1.0000 0.95353  0.79609  0.07266  Biso   1.000  I
  I12      1.0000 0.84256  0.04647  0.07266  Biso   1.000  I
  I13      1.0000 0.71314  0.17589  0.76067  Biso   1.000  I
  I14      1.0000 0.82411  0.53724  0.76067  Biso   1.000  I
  I15      1.0000 0.46276  0.28686  0.76067  Biso   1.000  I
  I16      1.0000 0.87058  0.49077  0.40599  Biso   1.000  I
  I17      1.0000 0.62020  0.12942  0.40599  Biso   1.000  I
  I18      1.0000 0.50923  0.37980  0.40599  Biso   1.000  I
  I19      1.0000 0.37980  0.50923  0.09401  Biso   1.000  I
  I20      1.0000 0.49077  0.87058  0.09401  Biso   1.000  I
  I21      1.0000 0.12942  0.62020  0.09401  Biso   1.000  I
  I22      1.0000 0.53724  0.82411  0.73933  Biso   1.000  I
  I23      1.0000 0.28686  0.46276  0.73933  Biso   1.000  I
  I24      1.0000 0.17589  0.71314  0.73933  Biso   1.000  I
  I25      1.0000 0.95353  0.15744  0.57266  Biso   1.000  I
  I26      1.0000 0.84256  0.79609  0.57266  Biso   1.000  I
  I27      1.0000 0.20391  0.04647  0.57266  Biso   1.000  I
  I28      1.0000 0.79609  0.84256  0.92734  Biso   1.000  I
  I29      1.0000 0.04647  0.20391  0.92734  Biso   1.000  I
  I30      1.0000 0.15744  0.95353  0.92734  Biso   1.000  I
  I31      1.0000 0.62020  0.49077  0.90599  Biso   1.000  I
  I32      1.0000 0.50923  0.12942  0.90599  Biso   1.000  I
  I33      1.0000 0.87058  0.37980  0.90599  Biso   1.000  I
  I34      1.0000 0.46276  0.17589  0.26067  Biso   1.000  I
  I35      1.0000 0.71314  0.53724  0.26067  Biso   1.000  I
  I36      1.0000 0.82411  0.28686  0.26067  Biso   1.000  I
  I37      1.0000 0.28686  0.82411  0.23933  Biso   1.000  I
  I38      1.0000 0.17589  0.46276  0.23933  Biso   1.000  I
  I39      1.0000 0.53724  0.71314  0.23933  Biso   1.000  I
  I40      1.0000 0.12942  0.50923  0.59401  Biso   1.000  I
  I41      1.0000 0.37980  0.87058  0.59401  Biso   1.000  I
  I42      1.0000 0.49077  0.62020  0.59401  Biso   1.000  I
  Cu1      1.0000 0.90335  0.87515  0.45141  Biso   1.000  Cu
  Cu2      1.0000 0.12485  0.02820  0.45141  Biso   1.000  Cu
  Cu3      1.0000 0.97180  0.09665  0.45141  Biso   1.000  Cu
  Cu4      1.0000 0.02820  0.12485  0.04859  Biso   1.000  Cu
  Cu5      1.0000 0.09665  0.97180  0.04859  Biso   1.000  Cu
  Cu6      1.0000 0.87515  0.90335  0.04859  Biso   1.000  Cu
  Cu7      1.0000 0.57002  0.20848  0.78474  Biso   1.000  Cu
  Cu8      1.0000 0.79152  0.36153  0.78474  Biso   1.000  Cu
  Cu9      1.0000 0.63847  0.42998  0.78474  Biso   1.000  Cu
  Cu10     1.0000 0.69487  0.45818  0.38192  Biso   1.000  Cu
  Cu11     1.0000 0.76332  0.30513  0.38192  Biso   1.000  Cu
  Cu12     1.0000 0.54182  0.23668  0.38192  Biso   1.000  Cu
  Cu13     1.0000 0.23668  0.54182  0.11808  Biso   1.000  Cu
  Cu14     1.0000 0.45818  0.69487  0.11808  Biso   1.000  Cu
  Cu15     1.0000 0.30513  0.76332  0.11808  Biso   1.000  Cu
  Cu16     1.0000 0.36153  0.79152  0.71526  Biso   1.000  Cu
  Cu17     1.0000 0.42998  0.63847  0.71526  Biso   1.000  Cu
  Cu18     1.0000 0.20848  0.57002  0.71526  Biso   1.000  Cu
  Cu19     1.0000 0.09665  0.12485  0.54859  Biso   1.000  Cu
  Cu20     1.0000 0.87515  0.97180  0.54859  Biso   1.000  Cu
  Cu21     1.0000 0.02820  0.90335  0.54859  Biso   1.000  Cu
  Cu22     1.0000 0.97180  0.87515  0.95141  Biso   1.000  Cu
  Cu23     1.0000 0.90335  0.02820  0.95141  Biso   1.000  Cu
  Cu24     1.0000 0.12485  0.09665  0.95141  Biso   1.000  Cu
  Cu25     1.0000 0.76332  0.45818  0.88192  Biso   1.000  Cu
  Cu26     1.0000 0.54182  0.30513  0.88192  Biso   1.000  Cu
  Cu27     1.0000 0.69487  0.23668  0.88192  Biso   1.000  Cu
  Cu28     1.0000 0.63847  0.20848  0.28474  Biso   1.000  Cu
  Cu29     1.0000 0.57002  0.36153  0.28474  Biso   1.000  Cu
  Cu30     1.0000 0.79152  0.42998  0.28474  Biso   1.000  Cu
  Cu31     1.0000 0.42998  0.79152  0.21526  Biso   1.000  Cu
  Cu32     1.0000 0.20848  0.63847  0.21526  Biso   1.000  Cu
  Cu33     1.0000 0.36153  0.57002  0.21526  Biso   1.000  Cu
  Cu34     1.0000 0.30513  0.54182  0.61808  Biso   1.000  Cu
  Cu35     1.0000 0.23668  0.69487  0.61808  Biso   1.000  Cu
  Cu36     1.0000 0.45818  0.76332  0.61808  Biso   1.000  Cu
  P1       1.0000 0.66667  0.33333  0.48451  Biso   1.000  P
  P2       1.0000 0.33334  0.66667  0.01549  Biso   1.000  P
  P3       1.0000 0.33334  0.66666  0.81784  Biso   1.000  P
  P4       1.0000 0.00001  0.00000  0.34882  Biso   1.000  P
  P5       1.0000 0.00000  1.00000  0.15118  Biso   1.000  P
  P6       1.0000 0.66667  0.33334  0.68216  Biso   1.000  P
  P7       1.0000 0.33333  0.66667  0.51549  Biso   1.000  P
  P8       1.0000 0.66666  0.33333  0.98451  Biso   1.000  P
  P9       1.0000 1.00000  0.00000  0.84882  Biso   1.000  P
  P10      1.0000 0.33333  0.66666  0.31784  Biso   1.000  P
  P11      1.0000 0.66666  0.33334  0.18216  Biso   1.000  P
  P12      1.0000 0.99999  1.00000  0.65118  Biso   1.000  P
  N1       1.0000 0.79020  0.73240  0.46935  Biso   1.000  N
  N2       1.0000 0.26760  0.05780  0.46935  Biso   1.000  N
  N3       1.0000 0.94220  0.20980  0.46935  Biso   1.000  N
  N4       1.0000 0.05780  0.26760  0.03065  Biso   1.000  N
  N5       1.0000 0.20980  0.94220  0.03065  Biso   1.000  N
  N6       1.0000 0.73240  0.79020  0.03065  Biso   1.000  N
  N7       1.0000 0.45687  0.06573  0.80268  Biso   1.000  N
  N8       1.0000 0.93427  0.39113  0.80268  Biso   1.000  N
  N9       1.0000 0.60887  0.54313  0.80268  Biso   1.000  N
  N10      1.0000 0.72447  0.60093  0.36398  Biso   1.000  N
  N11      1.0000 0.87647  0.27553  0.36398  Biso   1.000  N
  N12      1.0000 0.39907  0.12353  0.36398  Biso   1.000  N
  N13      1.0000 0.12353  0.39907  0.13602  Biso   1.000  N
  N14      1.0000 0.60093  0.72447  0.13602  Biso   1.000  N
  N15      1.0000 0.27553  0.87647  0.13602  Biso   1.000  N
  N16      1.0000 0.39113  0.93427  0.69732  Biso   1.000  N
  N17      1.0000 0.54313  0.60887  0.69732  Biso   1.000  N
  N18      1.0000 0.06573  0.45687  0.69732  Biso   1.000  N
  N19      1.0000 0.20980  0.26760  0.53065  Biso   1.000  N
  N20      1.0000 0.73240  0.94220  0.53065  Biso   1.000  N
  N21      1.0000 0.05780  0.79020  0.53065  Biso   1.000  N
  N22      1.0000 0.94220  0.73240  0.96935  Biso   1.000  N
  N23      1.0000 0.79020  0.05780  0.96935  Biso   1.000  N
  N24      1.0000 0.26760  0.20980  0.96935  Biso   1.000  N
  N25      1.0000 0.87647  0.60093  0.86398  Biso   1.000  N
  N26      1.0000 0.39907  0.27553  0.86398  Biso   1.000  N
  N27      1.0000 0.72447  0.12353  0.86398  Biso   1.000  N
  N28      1.0000 0.60887  0.06573  0.30268  Biso   1.000  N
  N29      1.0000 0.45687  0.39113  0.30268  Biso   1.000  N
  N30      1.0000 0.93427  0.54313  0.30268  Biso   1.000  N
  N31      1.0000 0.54313  0.93427  0.19732  Biso   1.000  N
  N32      1.0000 0.06573  0.60887  0.19732  Biso   1.000  N
  N33      1.0000 0.39113  0.45687  0.19732  Biso   1.000  N
  N34      1.0000 0.27553  0.39907  0.63602  Biso   1.000  N
  N35      1.0000 0.12353  0.72447  0.63602  Biso   1.000  N
  N36      1.0000 0.60093  0.87647  0.63602  Biso   1.000  N
  C1       1.0000 0.72140  0.54420  0.47773  Biso   1.000  C
  C2       1.0000 0.45580  0.17720  0.47773  Biso   1.000  C
  C3       1.0000 0.82280  0.27860  0.47773  Biso   1.000  C
  C4       1.0000 0.17720  0.45580  0.02227  Biso   1.000  C
  C5       1.0000 0.27860  0.82280  0.02227  Biso   1.000  C
  C6       1.0000 0.54420  0.72140  0.02227  Biso   1.000  C
  C7       1.0000 0.38807  0.87753  0.81106  Biso   1.000  C
  C8       1.0000 0.12247  0.51053  0.81106  Biso   1.000  C
  C9       1.0000 0.48947  0.61193  0.81106  Biso   1.000  C
  C10      1.0000 0.84387  0.78913  0.35560  Biso   1.000  C
  C11      1.0000 0.94527  0.15613  0.35560  Biso   1.000  C
  C12      1.0000 0.21087  0.05473  0.35560  Biso   1.000  C
  C13      1.0000 0.05473  0.21087  0.14440  Biso   1.000  C
  C14      1.0000 0.78913  0.84387  0.14440  Biso   1.000  C
  C15      1.0000 0.15613  0.94527  0.14440  Biso   1.000  C
  C16      1.0000 0.51053  0.12247  0.68894  Biso   1.000  C
  C17      1.0000 0.61193  0.48947  0.68894  Biso   1.000  C
  C18      1.0000 0.87753  0.38807  0.68894  Biso   1.000  C
  C19      1.0000 0.27860  0.45580  0.52227  Biso   1.000  C
  C20      1.0000 0.54420  0.82280  0.52227  Biso   1.000  C
  C21      1.0000 0.17720  0.72140  0.52227  Biso   1.000  C
  C22      1.0000 0.82280  0.54420  0.97773  Biso   1.000  C
  C23      1.0000 0.72140  0.17720  0.97773  Biso   1.000  C
  C24      1.0000 0.45580  0.27860  0.97773  Biso   1.000  C
  C25      1.0000 0.94527  0.78913  0.85560  Biso   1.000  C
  C26      1.0000 0.21087  0.15613  0.85560  Biso   1.000  C
  C27      1.0000 0.84387  0.05473  0.85560  Biso   1.000  C
  C28      1.0000 0.48947  0.87753  0.31106  Biso   1.000  C
  C29      1.0000 0.38807  0.51053  0.31106  Biso   1.000  C
  C30      1.0000 0.12247  0.61193  0.31106  Biso   1.000  C
  C31      1.0000 0.61193  0.12247  0.18894  Biso   1.000  C
  C32      1.0000 0.87753  0.48947  0.18894  Biso   1.000  C
  C33      1.0000 0.51053  0.38807  0.18894  Biso   1.000  C
  C34      1.0000 0.15613  0.21087  0.64440  Biso   1.000  C
  C35      1.0000 0.05473  0.84387  0.64440  Biso   1.000  C
  C36      1.0000 0.78913  0.94527  0.64440  Biso   1.000  C
  N37      1.0000 0.72990  0.45370  0.47030  Biso   1.000  N
  N38      1.0000 0.54630  0.27620  0.47030  Biso   1.000  N
  N39      1.0000 0.72380  0.27010  0.47030  Biso   1.000  N
  N40      1.0000 0.27620  0.54630  0.02970  Biso   1.000  N
  N41      1.0000 0.27010  0.72380  0.02970  Biso   1.000  N
  N42      1.0000 0.45370  0.72990  0.02970  Biso   1.000  N
  N43      1.0000 0.39657  0.78703  0.80363  Biso   1.000  N
  N44      1.0000 0.21297  0.60953  0.80363  Biso   1.000  N
  N45      1.0000 0.39047  0.60343  0.80363  Biso   1.000  N
  N46      1.0000 0.94287  0.87963  0.36303  Biso   1.000  N
  N47      1.0000 0.93677  0.05713  0.36303  Biso   1.000  N
  N48      1.0000 0.12037  0.06323  0.36303  Biso   1.000  N
  N49      1.0000 0.06323  0.12037  0.13697  Biso   1.000  N
  N50      1.0000 0.87963  0.94287  0.13697  Biso   1.000  N
  N51      1.0000 0.05713  0.93677  0.13697  Biso   1.000  N
  N52      1.0000 0.60953  0.21297  0.69637  Biso   1.000  N
  N53      1.0000 0.60343  0.39047  0.69637  Biso   1.000  N
  N54      1.0000 0.78703  0.39657  0.69637  Biso   1.000  N
  N55      1.0000 0.27010  0.54630  0.52970  Biso   1.000  N
  N56      1.0000 0.45370  0.72380  0.52970  Biso   1.000  N
  N57      1.0000 0.27620  0.72990  0.52970  Biso   1.000  N
  N58      1.0000 0.72380  0.45370  0.97030  Biso   1.000  N
  N59      1.0000 0.72990  0.27620  0.97030  Biso   1.000  N
  N60      1.0000 0.54630  0.27010  0.97030  Biso   1.000  N
  N61      1.0000 0.93677  0.87963  0.86303  Biso   1.000  N
  N62      1.0000 0.12037  0.05713  0.86303  Biso   1.000  N
  N63      1.0000 0.94287  0.06323  0.86303  Biso   1.000  N
  N64      1.0000 0.39047  0.78703  0.30363  Biso   1.000  N
  N65      1.0000 0.39657  0.60953  0.30363  Biso   1.000  N
  N66      1.0000 0.21297  0.60343  0.30363  Biso   1.000  N
  N67      1.0000 0.60343  0.21297  0.19637  Biso   1.000  N
  N68      1.0000 0.78703  0.39047  0.19637  Biso   1.000  N
  N69      1.0000 0.60953  0.39657  0.19637  Biso   1.000  N
  N70      1.0000 0.05713  0.12037  0.63697  Biso   1.000  N
  N71      1.0000 0.06323  0.94287  0.63697  Biso   1.000  N
  N72      1.0000 0.87963  0.93677  0.63697  Biso   1.000  N
  H1       1.0000 0.77399  0.46262  0.45650  Biso   1.000  H
  H2       1.0000 0.53738  0.31137  0.45650  Biso   1.000  H
  H3       1.0000 0.68863  0.22601  0.45650  Biso   1.000  H
  H4       1.0000 0.31137  0.53738  0.04350  Biso   1.000  H
  H5       1.0000 0.22601  0.68863  0.04350  Biso   1.000  H
  H6       1.0000 0.46262  0.77399  0.04350  Biso   1.000  H
  H7       1.0000 0.44066  0.79595  0.78983  Biso   1.000  H
  H8       1.0000 0.20405  0.64470  0.78983  Biso   1.000  H
  H9       1.0000 0.35530  0.55934  0.78983  Biso   1.000  H
  H10      1.0000 0.97804  0.87071  0.37683  Biso   1.000  H
  H11      1.0000 0.89268  0.02196  0.37683  Biso   1.000  H
  H12      1.0000 0.12929  0.10732  0.37683  Biso   1.000  H
  H13      1.0000 0.10732  0.12929  0.12317  Biso   1.000  H
  H14      1.0000 0.87071  0.97804  0.12317  Biso   1.000  H
  H15      1.0000 0.02196  0.89268  0.12317  Biso   1.000  H
  H16      1.0000 0.64470  0.20405  0.71017  Biso   1.000  H
  H17      1.0000 0.55934  0.35530  0.71017  Biso   1.000  H
  H18      1.0000 0.79595  0.44066  0.71017  Biso   1.000  H
  H19      1.0000 0.22601  0.53738  0.54350  Biso   1.000  H
  H20      1.0000 0.46262  0.68863  0.54350  Biso   1.000  H
  H21      1.0000 0.31137  0.77399  0.54350  Biso   1.000  H
  H22      1.0000 0.68863  0.46262  0.95650  Biso   1.000  H
  H23      1.0000 0.77399  0.31137  0.95650  Biso   1.000  H
  H24      1.0000 0.53738  0.22601  0.95650  Biso   1.000  H
  H25      1.0000 0.89268  0.87071  0.87683  Biso   1.000  H
  H26      1.0000 0.12929  0.02196  0.87683  Biso   1.000  H
  H27      1.0000 0.97804  0.10732  0.87683  Biso   1.000  H
  H28      1.0000 0.35530  0.79595  0.28983  Biso   1.000  H
  H29      1.0000 0.44066  0.64470  0.28983  Biso   1.000  H
  H30      1.0000 0.20405  0.55934  0.28983  Biso   1.000  H
  H31      1.0000 0.55934  0.20405  0.21017  Biso   1.000  H
  H32      1.0000 0.79595  0.35530  0.21017  Biso   1.000  H
  H33      1.0000 0.64470  0.44066  0.21017  Biso   1.000  H
  H34      1.0000 0.02196  0.12929  0.62317  Biso   1.000  H
  H35      1.0000 0.10732  0.97804  0.62317  Biso   1.000  H
  H36      1.0000 0.87071  0.89268  0.62317  Biso   1.000  H
  C37      1.0000 0.78750  0.64060  0.46346  Biso   1.000  C
  C38      1.0000 0.35940  0.14690  0.46346  Biso   1.000  C
  C39      1.0000 0.85310  0.21250  0.46346  Biso   1.000  C
  C40      1.0000 0.14690  0.35940  0.03654  Biso   1.000  C
  C41      1.0000 0.21250  0.85310  0.03654  Biso   1.000  C
  C42      1.0000 0.64060  0.78750  0.03654  Biso   1.000  C
  C43      1.0000 0.45417  0.97393  0.79679  Biso   1.000  C
  C44      1.0000 0.02607  0.48023  0.79679  Biso   1.000  C
  C45      1.0000 0.51977  0.54583  0.79679  Biso   1.000  C
  C46      1.0000 0.81357  0.69273  0.36987  Biso   1.000  C
  C47      1.0000 0.87917  0.18643  0.36987  Biso   1.000  C
  C48      1.0000 0.30727  0.12083  0.36987  Biso   1.000  C
  C49      1.0000 0.12083  0.30727  0.13013  Biso   1.000  C
  C50      1.0000 0.69273  0.81357  0.13013  Biso   1.000  C
  C51      1.0000 0.18643  0.87917  0.13013  Biso   1.000  C
  C52      1.0000 0.48023  0.02607  0.70321  Biso   1.000  C
  C53      1.0000 0.54583  0.51977  0.70321  Biso   1.000  C
  C54      1.0000 0.97393  0.45417  0.70321  Biso   1.000  C
  C55      1.0000 0.21250  0.35940  0.53654  Biso   1.000  C
  C56      1.0000 0.64060  0.85310  0.53654  Biso   1.000  C
  C57      1.0000 0.14690  0.78750  0.53654  Biso   1.000  C
  C58      1.0000 0.85310  0.64060  0.96346  Biso   1.000  C
  C59      1.0000 0.78750  0.14690  0.96346  Biso   1.000  C
  C60      1.0000 0.35940  0.21250  0.96346  Biso   1.000  C
  C61      1.0000 0.87917  0.69273  0.86987  Biso   1.000  C
  C62      1.0000 0.30727  0.18643  0.86987  Biso   1.000  C
  C63      1.0000 0.81357  0.12083  0.86987  Biso   1.000  C
  C64      1.0000 0.51977  0.97393  0.29679  Biso   1.000  C
  C65      1.0000 0.45417  0.48023  0.29679  Biso   1.000  C
  C66      1.0000 0.02607  0.54583  0.29679  Biso   1.000  C
  C67      1.0000 0.54583  0.02607  0.20321  Biso   1.000  C
  C68      1.0000 0.97393  0.51977  0.20321  Biso   1.000  C
  C69      1.0000 0.48023  0.45417  0.20321  Biso   1.000  C
  C70      1.0000 0.18643  0.30727  0.63013  Biso   1.000  C
  C71      1.0000 0.12083  0.81357  0.63013  Biso   1.000  C
  C72      1.0000 0.69273  0.87917  0.63013  Biso   1.000  C
  H37      1.0000 0.83246  0.64026  0.44896  Biso   1.000  H
  H38      1.0000 0.35974  0.19220  0.44896  Biso   1.000  H
  H39      1.0000 0.80780  0.16754  0.44896  Biso   1.000  H
  H40      1.0000 0.19220  0.35974  0.05104  Biso   1.000  H
  H41      1.0000 0.16754  0.80780  0.05104  Biso   1.000  H
  H42      1.0000 0.64026  0.83246  0.05104  Biso   1.000  H
  H43      1.0000 0.49913  0.97359  0.78229  Biso   1.000  H
  H44      1.0000 0.02641  0.52553  0.78229  Biso   1.000  H
  H45      1.0000 0.47447  0.50087  0.78229  Biso   1.000  H
  H46      1.0000 0.85887  0.69307  0.38437  Biso   1.000  H
  H47      1.0000 0.83421  0.14113  0.38437  Biso   1.000  H
  H48      1.0000 0.30693  0.16579  0.38437  Biso   1.000  H
  H49      1.0000 0.16579  0.30693  0.11563  Biso   1.000  H
  H50      1.0000 0.69307  0.85887  0.11563  Biso   1.000  H
  H51      1.0000 0.14113  0.83421  0.11563  Biso   1.000  H
  H52      1.0000 0.52553  0.02641  0.71771  Biso   1.000  H
  H53      1.0000 0.50087  0.47447  0.71771  Biso   1.000  H
  H54      1.0000 0.97359  0.49913  0.71771  Biso   1.000  H
  H55      1.0000 0.16754  0.35974  0.55104  Biso   1.000  H
  H56      1.0000 0.64026  0.80780  0.55104  Biso   1.000  H
  H57      1.0000 0.19220  0.83246  0.55104  Biso   1.000  H
  H58      1.0000 0.80780  0.64026  0.94896  Biso   1.000  H
  H59      1.0000 0.83246  0.19220  0.94896  Biso   1.000  H
  H60      1.0000 0.35974  0.16754  0.94896  Biso   1.000  H
  H61      1.0000 0.83421  0.69307  0.88437  Biso   1.000  H
  H62      1.0000 0.30693  0.14113  0.88437  Biso   1.000  H
  H63      1.0000 0.85887  0.16579  0.88437  Biso   1.000  H
  H64      1.0000 0.47447  0.97359  0.28229  Biso   1.000  H
  H65      1.0000 0.49913  0.52553  0.28229  Biso   1.000  H
  H66      1.0000 0.02641  0.50087  0.28229  Biso   1.000  H
  H67      1.0000 0.50087  0.02641  0.21771  Biso   1.000  H
  H68      1.0000 0.97359  0.47447  0.21771  Biso   1.000  H
  H69      1.0000 0.52553  0.49913  0.21771  Biso   1.000  H
  H70      1.0000 0.14113  0.30693  0.61563  Biso   1.000  H
  H71      1.0000 0.16579  0.85887  0.61563  Biso   1.000  H
  H72      1.0000 0.69307  0.83421  0.61563  Biso   1.000  H
  C73      1.0000 0.65540  0.54440  0.49870  Biso   1.000  C
  C74      1.0000 0.45560  0.11100  0.49870  Biso   1.000  C
  C75      1.0000 0.88900  0.34460  0.49870  Biso   1.000  C
  C76      1.0000 0.11100  0.45560  0.00130  Biso   1.000  C
  C77      1.0000 0.34460  0.88900  0.00130  Biso   1.000  C
  C78      1.0000 0.54440  0.65540  0.00130  Biso   1.000  C
  C79      1.0000 0.32207  0.87773  0.83203  Biso   1.000  C
  C80      1.0000 0.12227  0.44433  0.83203  Biso   1.000  C
  C81      1.0000 0.55567  0.67793  0.83203  Biso   1.000  C
  C82      1.0000 0.77767  0.78893  0.33463  Biso   1.000  C
  C83      1.0000 0.01127  0.22233  0.33463  Biso   1.000  C
  C84      1.0000 0.21107  0.98873  0.33463  Biso   1.000  C
  C85      1.0000 0.98873  0.21107  0.16537  Biso   1.000  C
  C86      1.0000 0.78893  0.77767  0.16537  Biso   1.000  C
  C87      1.0000 0.22233  0.01127  0.16537  Biso   1.000  C
  C88      1.0000 0.44433  0.12227  0.66797  Biso   1.000  C
  C89      1.0000 0.67793  0.55567  0.66797  Biso   1.000  C
  C90      1.0000 0.87773  0.32207  0.66797  Biso   1.000  C
  C91      1.0000 0.34460  0.45560  0.50130  Biso   1.000  C
  C92      1.0000 0.54440  0.88900  0.50130  Biso   1.000  C
  C93      1.0000 0.11100  0.65540  0.50130  Biso   1.000  C
  C94      1.0000 0.88900  0.54440  0.99870  Biso   1.000  C
  C95      1.0000 0.65540  0.11100  0.99870  Biso   1.000  C
  C96      1.0000 0.45560  0.34460  0.99870  Biso   1.000  C
  C97      1.0000 0.01127  0.78893  0.83463  Biso   1.000  C
  C98      1.0000 0.21107  0.22233  0.83463  Biso   1.000  C
  C99      1.0000 0.77767  0.98873  0.83463  Biso   1.000  C
  C100     1.0000 0.55567  0.87773  0.33203  Biso   1.000  C
  C101     1.0000 0.32207  0.44433  0.33203  Biso   1.000  C
  C102     1.0000 0.12227  0.67793  0.33203  Biso   1.000  C
  C103     1.0000 0.67793  0.12227  0.16797  Biso   1.000  C
  C104     1.0000 0.87773  0.55567  0.16797  Biso   1.000  C
  C105     1.0000 0.44433  0.32207  0.16797  Biso   1.000  C
  C106     1.0000 0.22233  0.21107  0.66537  Biso   1.000  C
  C107     1.0000 0.98873  0.77767  0.66537  Biso   1.000  C
  C108     1.0000 0.78893  0.01127  0.66537  Biso   1.000  C
  H73      1.0000 0.61040  0.48116  0.50904  Biso   1.000  H
  H74      1.0000 0.51884  0.12924  0.50904  Biso   1.000  H
  H75      1.0000 0.87076  0.38960  0.50904  Biso   1.000  H
  H76      1.0000 0.12924  0.51884  0.99096  Biso   1.000  H
  H77      1.0000 0.38960  0.87076  0.99096  Biso   1.000  H
  H78      1.0000 0.48116  0.61040  0.99096  Biso   1.000  H
  H79      1.0000 0.27707  0.81449  0.84237  Biso   1.000  H
  H80      1.0000 0.18551  0.46257  0.84237  Biso   1.000  H
  H81      1.0000 0.53743  0.72293  0.84237  Biso   1.000  H
  H82      1.0000 0.79591  0.85217  0.32429  Biso   1.000  H
  H83      1.0000 0.05627  0.20409  0.32429  Biso   1.000  H
  H84      1.0000 0.14783  0.94373  0.32429  Biso   1.000  H
  H85      1.0000 0.94373  0.14783  0.17571  Biso   1.000  H
  H86      1.0000 0.85217  0.79591  0.17571  Biso   1.000  H
  H87      1.0000 0.20409  0.05627  0.17571  Biso   1.000  H
  H88      1.0000 0.46257  0.18551  0.65763  Biso   1.000  H
  H89      1.0000 0.72293  0.53743  0.65763  Biso   1.000  H
  H90      1.0000 0.81449  0.27707  0.65763  Biso   1.000  H
  H91      1.0000 0.38960  0.51884  0.49096  Biso   1.000  H
  H92      1.0000 0.48116  0.87076  0.49096  Biso   1.000  H
  H93      1.0000 0.12924  0.61040  0.49096  Biso   1.000  H
  H94      1.0000 0.87076  0.48116  0.00904  Biso   1.000  H
  H95      1.0000 0.61040  0.12924  0.00904  Biso   1.000  H
  H96      1.0000 0.51884  0.38960  0.00904  Biso   1.000  H
  H97      1.0000 0.05627  0.85217  0.82429  Biso   1.000  H
  H98      1.0000 0.14783  0.20409  0.82429  Biso   1.000  H
  H99      1.0000 0.79591  0.94373  0.82429  Biso   1.000  H
  H100     1.0000 0.53743  0.81449  0.34237  Biso   1.000  H
  H101     1.0000 0.27707  0.46257  0.34237  Biso   1.000  H
  H102     1.0000 0.18551  0.72293  0.34237  Biso   1.000  H
  H103     1.0000 0.72293  0.18551  0.15763  Biso   1.000  H
  H104     1.0000 0.81449  0.53743  0.15763  Biso   1.000  H
  H105     1.0000 0.46257  0.27707  0.15763  Biso   1.000  H
  H106     1.0000 0.20409  0.14783  0.67571  Biso   1.000  H
  H107     1.0000 0.94373  0.79591  0.67571  Biso   1.000  H
  H108     1.0000 0.85217  0.05627  0.67571  Biso   1.000  H
  C109     1.0000 0.65730  0.64090  0.50417  Biso   1.000  C
  C110     1.0000 0.35910  0.01640  0.50417  Biso   1.000  C
  C111     1.0000 0.98360  0.34270  0.50417  Biso   1.000  C
  C112     1.0000 0.01640  0.35910  0.99583  Biso   1.000  C
  C113     1.0000 0.34270  0.98360  0.99583  Biso   1.000  C
  C114     1.0000 0.64090  0.65730  0.99583  Biso   1.000  C
  C115     1.0000 0.32397  0.97423  0.83750  Biso   1.000  C
  C116     1.0000 0.02577  0.34973  0.83750  Biso   1.000  C
  C117     1.0000 0.65027  0.67603  0.83750  Biso   1.000  C
  C118     1.0000 0.68307  0.69243  0.32916  Biso   1.000  C
  C119     1.0000 0.00937  0.31693  0.32916  Biso   1.000  C
  C120     1.0000 0.30757  0.99063  0.32916  Biso   1.000  C
  C121     1.0000 0.99063  0.30757  0.17084  Biso   1.000  C
  C122     1.0000 0.69243  0.68307  0.17084  Biso   1.000  C
  C123     1.0000 0.31693  0.00937  0.17084  Biso   1.000  C
  C124     1.0000 0.34973  0.02577  0.66250  Biso   1.000  C
  C125     1.0000 0.67603  0.65027  0.66250  Biso   1.000  C
  C126     1.0000 0.97423  0.32397  0.66250  Biso   1.000  C
  C127     1.0000 0.34270  0.35910  0.49583  Biso   1.000  C
  C128     1.0000 0.64090  0.98360  0.49583  Biso   1.000  C
  C129     1.0000 0.01640  0.65730  0.49583  Biso   1.000  C
  C130     1.0000 0.98360  0.64090  0.00417  Biso   1.000  C
  C131     1.0000 0.65730  0.01640  0.00417  Biso   1.000  C
  C132     1.0000 0.35910  0.34270  0.00417  Biso   1.000  C
  C133     1.0000 0.00937  0.69243  0.82916  Biso   1.000  C
  C134     1.0000 0.30757  0.31693  0.82916  Biso   1.000  C
  C135     1.0000 0.68307  0.99063  0.82916  Biso   1.000  C
  C136     1.0000 0.65027  0.97423  0.33750  Biso   1.000  C
  C137     1.0000 0.32397  0.34973  0.33750  Biso   1.000  C
  C138     1.0000 0.02577  0.67603  0.33750  Biso   1.000  C
  C139     1.0000 0.67603  0.02577  0.16250  Biso   1.000  C
  C140     1.0000 0.97423  0.65027  0.16250  Biso   1.000  C
  C141     1.0000 0.34973  0.32397  0.16250  Biso   1.000  C
  C142     1.0000 0.31693  0.30757  0.67084  Biso   1.000  C
  C143     1.0000 0.99063  0.68307  0.67084  Biso   1.000  C
  C144     1.0000 0.69243  0.00937  0.67084  Biso   1.000  C
  H109     1.0000 0.61163  0.64331  0.51815  Biso   1.000  H
  H110     1.0000 0.35669  0.96832  0.51815  Biso   1.000  H
  H111     1.0000 0.03168  0.38837  0.51815  Biso   1.000  H
  H112     1.0000 0.96832  0.35669  0.98185  Biso   1.000  H
  H113     1.0000 0.38837  0.03168  0.98185  Biso   1.000  H
  H114     1.0000 0.64331  0.61163  0.98185  Biso   1.000  H
  H115     1.0000 0.27830  0.97664  0.85148  Biso   1.000  H
  H116     1.0000 0.02336  0.30165  0.85148  Biso   1.000  H
  H117     1.0000 0.69835  0.72170  0.85148  Biso   1.000  H
  H118     1.0000 0.63499  0.69002  0.31518  Biso   1.000  H
  H119     1.0000 0.05504  0.36501  0.31518  Biso   1.000  H
  H120     1.0000 0.30998  0.94496  0.31518  Biso   1.000  H
  H121     1.0000 0.94496  0.30998  0.18482  Biso   1.000  H
  H122     1.0000 0.69002  0.63499  0.18482  Biso   1.000  H
  H123     1.0000 0.36501  0.05504  0.18482  Biso   1.000  H
  H124     1.0000 0.30165  0.02336  0.64852  Biso   1.000  H
  H125     1.0000 0.72170  0.69835  0.64852  Biso   1.000  H
  H126     1.0000 0.97664  0.27830  0.64852  Biso   1.000  H
  H127     1.0000 0.38837  0.35669  0.48185  Biso   1.000  H
  H128     1.0000 0.64331  0.03168  0.48185  Biso   1.000  H
  H129     1.0000 0.96832  0.61163  0.48185  Biso   1.000  H
  H130     1.0000 0.03168  0.64331  0.01815  Biso   1.000  H
  H131     1.0000 0.61163  0.96832  0.01815  Biso   1.000  H
  H132     1.0000 0.35669  0.38837  0.01815  Biso   1.000  H
  H133     1.0000 0.05504  0.69002  0.81518  Biso   1.000  H
  H134     1.0000 0.30998  0.36501  0.81518  Biso   1.000  H
  H135     1.0000 0.63499  0.94496  0.81518  Biso   1.000  H
  H136     1.0000 0.69835  0.97664  0.35148  Biso   1.000  H
  H137     1.0000 0.27830  0.30165  0.35148  Biso   1.000  H
  H138     1.0000 0.02336  0.72170  0.35148  Biso   1.000  H
  H139     1.0000 0.72170  0.02336  0.14852  Biso   1.000  H
  H140     1.0000 0.97664  0.69835  0.14852  Biso   1.000  H
  H141     1.0000 0.30165  0.27830  0.14852  Biso   1.000  H
  H142     1.0000 0.36501  0.30998  0.68482  Biso   1.000  H
  H143     1.0000 0.94496  0.63499  0.68482  Biso   1.000  H
  H144     1.0000 0.69002  0.05504  0.68482  Biso   1.000  H
  C145     1.0000 0.72420  0.73170  0.48957  Biso   1.000  C
  C146     1.0000 0.26830  0.99250  0.48957  Biso   1.000  C
  C147     1.0000 0.00750  0.27580  0.48957  Biso   1.000  C
  C148     1.0000 0.99250  0.26830  0.01043  Biso   1.000  C
  C149     1.0000 0.27580  0.00750  0.01043  Biso   1.000  C
  C150     1.0000 0.73170  0.72420  0.01043  Biso   1.000  C
  C151     1.0000 0.39087  0.06503  0.82290  Biso   1.000  C
  C152     1.0000 0.93497  0.32583  0.82290  Biso   1.000  C
  C153     1.0000 0.67417  0.60913  0.82290  Biso   1.000  C
  C154     1.0000 0.65917  0.60163  0.34376  Biso   1.000  C
  C155     1.0000 0.94247  0.34083  0.34376  Biso   1.000  C
  C156     1.0000 0.39837  0.05753  0.34376  Biso   1.000  C
  C157     1.0000 0.05753  0.39837  0.15624  Biso   1.000  C
  C158     1.0000 0.60163  0.65917  0.15624  Biso   1.000  C
  C159     1.0000 0.34083  0.94247  0.15624  Biso   1.000  C
  C160     1.0000 0.32583  0.93497  0.67710  Biso   1.000  C
  C161     1.0000 0.60913  0.67417  0.67710  Biso   1.000  C
  C162     1.0000 0.06503  0.39087  0.67710  Biso   1.000  C
  C163     1.0000 0.27580  0.26830  0.51043  Biso   1.000  C
  C164     1.0000 0.73170  0.00750  0.51043  Biso   1.000  C
  C165     1.0000 0.99250  0.72420  0.51043  Biso   1.000  C
  C166     1.0000 0.00750  0.73170  0.98957  Biso   1.000  C
  C167     1.0000 0.72420  0.99250  0.98957  Biso   1.000  C
  C168     1.0000 0.26830  0.27580  0.98957  Biso   1.000  C
  C169     1.0000 0.94247  0.60163  0.84376  Biso   1.000  C
  C170     1.0000 0.39837  0.34083  0.84376  Biso   1.000  C
  C171     1.0000 0.65917  0.05753  0.84376  Biso   1.000  C
  C172     1.0000 0.67417  0.06503  0.32290  Biso   1.000  C
  C173     1.0000 0.39087  0.32583  0.32290  Biso   1.000  C
  C174     1.0000 0.93497  0.60913  0.32290  Biso   1.000  C
  C175     1.0000 0.60913  0.93497  0.17710  Biso   1.000  C
  C176     1.0000 0.06503  0.67417  0.17710  Biso   1.000  C
  C177     1.0000 0.32583  0.39087  0.17710  Biso   1.000  C
  C178     1.0000 0.34083  0.39837  0.65624  Biso   1.000  C
  C179     1.0000 0.05753  0.65917  0.65624  Biso   1.000  C
  C180     1.0000 0.60163  0.94247  0.65624  Biso   1.000  C
  H145     1.0000 0.72448  0.79653  0.49374  Biso   1.000  H
  H146     1.0000 0.20347  0.92795  0.49374  Biso   1.000  H
  H147     1.0000 0.07205  0.27552  0.49374  Biso   1.000  H
  H148     1.0000 0.92795  0.20347  0.00626  Biso   1.000  H
  H149     1.0000 0.27552  0.07205  0.00626  Biso   1.000  H
  H150     1.0000 0.79653  0.72448  0.00626  Biso   1.000  H
  H151     1.0000 0.39115  0.12986  0.82707  Biso   1.000  H
  H152     1.0000 0.87014  0.26128  0.82707  Biso   1.000  H
  H153     1.0000 0.73872  0.60885  0.82707  Biso   1.000  H
  H154     1.0000 0.59462  0.53680  0.33959  Biso   1.000  H
  H155     1.0000 0.94219  0.40538  0.33959  Biso   1.000  H
  H156     1.0000 0.46320  0.05781  0.33959  Biso   1.000  H
  H157     1.0000 0.05781  0.46320  0.16041  Biso   1.000  H
  H158     1.0000 0.53680  0.59462  0.16041  Biso   1.000  H
  H159     1.0000 0.40538  0.94219  0.16041  Biso   1.000  H
  H160     1.0000 0.26128  0.87014  0.67293  Biso   1.000  H
  H161     1.0000 0.60885  0.73872  0.67293  Biso   1.000  H
  H162     1.0000 0.12986  0.39115  0.67293  Biso   1.000  H
  H163     1.0000 0.27552  0.20347  0.50626  Biso   1.000  H
  H164     1.0000 0.79653  0.07205  0.50626  Biso   1.000  H
  H165     1.0000 0.92795  0.72448  0.50626  Biso   1.000  H
  H166     1.0000 0.07205  0.79653  0.99374  Biso   1.000  H
  H167     1.0000 0.72448  0.92795  0.99374  Biso   1.000  H
  H168     1.0000 0.20347  0.27552  0.99374  Biso   1.000  H
  H169     1.0000 0.94219  0.53680  0.83959  Biso   1.000  H
  H170     1.0000 0.46320  0.40538  0.83959  Biso   1.000  H
  H171     1.0000 0.59462  0.05781  0.83959  Biso   1.000  H
  H172     1.0000 0.73872  0.12986  0.32707  Biso   1.000  H
  H173     1.0000 0.39115  0.26128  0.32707  Biso   1.000  H
  H174     1.0000 0.87014  0.60885  0.32707  Biso   1.000  H
  H175     1.0000 0.60885  0.87014  0.17293  Biso   1.000  H
  H176     1.0000 0.12986  0.73872  0.17293  Biso   1.000  H
  H177     1.0000 0.26128  0.39115  0.17293  Biso   1.000  H
  H178     1.0000 0.40538  0.46320  0.66041  Biso   1.000  H
  H179     1.0000 0.05781  0.59462  0.66041  Biso   1.000  H
  H180     1.0000 0.53680  0.94219  0.66041  Biso   1.000  H
  O1       1.0000 0.66667  0.33333  0.51522  Biso   1.000  O
  O2       1.0000 0.33334  0.66667  0.98478  Biso   1.000  O
  O3       1.0000 0.33334  0.66666  0.84855  Biso   1.000  O
  O4       1.0000 0.00001  0.00000  0.31811  Biso   1.000  O
  O5       1.0000 0.00000  1.00000  0.18189  Biso   1.000  O
  O6       1.0000 0.66667  0.33334  0.65145  Biso   1.000  O
  O7       1.0000 0.33333  0.66667  0.48478  Biso   1.000  O
  O8       1.0000 0.66666  0.33333  0.01522  Biso   1.000  O
  O9       1.0000 1.00000  0.00000  0.81811  Biso   1.000  O
  O10      1.0000 0.33333  0.66666  0.34855  Biso   1.000  O
  O11      1.0000 0.66666  0.33334  0.15145  Biso   1.000  O
  O12      1.0000 0.99999  1.00000  0.68189  Biso   1.000  O
  Na1      1.0000 0.66667  0.33333  0.55950  Biso   1.000  Na
  Na2      1.0000 0.33334  0.66667  0.94050  Biso   1.000  Na
  Na3      1.0000 0.33334  0.66666  0.89283  Biso   1.000  Na
  Na4      1.0000 0.00001  0.00000  0.27383  Biso   1.000  Na
  Na5      1.0000 0.00000  1.00000  0.22617  Biso   1.000  Na
  Na6      1.0000 0.66667  0.33334  0.60717  Biso   1.000  Na
  Na7      1.0000 0.33333  0.66667  0.44050  Biso   1.000  Na
  Na8      1.0000 0.66666  0.33333  0.05950  Biso   1.000  Na
  Na9      1.0000 1.00000  0.00000  0.77383  Biso   1.000  Na
  Na10     1.0000 0.33333  0.66666  0.39283  Biso   1.000  Na
  Na11     1.0000 0.66666  0.33334  0.10717  Biso   1.000  Na
  Na12     1.0000 0.99999  1.00000  0.72617  Biso   1.000  Na
  O13      1.0000 0.87900  0.52850  0.56640  Biso   1.000  O
  O14      1.0000 0.47150  0.35050  0.56640  Biso   1.000  O
  O15      1.0000 0.64950  0.12100  0.56640  Biso   1.000  O
  O16      1.0000 0.35050  0.47150  0.93360  Biso   1.000  O
  O17      1.0000 0.12100  0.64950  0.93360  Biso   1.000  O
  O18      1.0000 0.52850  0.87900  0.93360  Biso   1.000  O
  O19      1.0000 0.54567  0.86183  0.89973  Biso   1.000  O
  O20      1.0000 0.13817  0.68383  0.89973  Biso   1.000  O
  O21      1.0000 0.31617  0.45433  0.89973  Biso   1.000  O
  O22      1.0000 0.01717  0.80483  0.26693  Biso   1.000  O
  O23      1.0000 0.78767  0.98283  0.26693  Biso   1.000  O
  O24      1.0000 0.19517  0.21233  0.26693  Biso   1.000  O
  O25      1.0000 0.21233  0.19517  0.23307  Biso   1.000  O
  O26      1.0000 0.80483  0.01717  0.23307  Biso   1.000  O
  O27      1.0000 0.98283  0.78767  0.23307  Biso   1.000  O
  O28      1.0000 0.68383  0.13817  0.60027  Biso   1.000  O
  O29      1.0000 0.45433  0.31617  0.60027  Biso   1.000  O
  O30      1.0000 0.86183  0.54567  0.60027  Biso   1.000  O
  O31      1.0000 0.12100  0.47150  0.43360  Biso   1.000  O
  O32      1.0000 0.52850  0.64950  0.43360  Biso   1.000  O
  O33      1.0000 0.35050  0.87900  0.43360  Biso   1.000  O
  O34      1.0000 0.64950  0.52850  0.06640  Biso   1.000  O
  O35      1.0000 0.87900  0.35050  0.06640  Biso   1.000  O
  O36      1.0000 0.47150  0.12100  0.06640  Biso   1.000  O
  O37      1.0000 0.78767  0.80483  0.76693  Biso   1.000  O
  O38      1.0000 0.19517  0.98283  0.76693  Biso   1.000  O
  O39      1.0000 0.01717  0.21233  0.76693  Biso   1.000  O
  O40      1.0000 0.31617  0.86183  0.39973  Biso   1.000  O
  O41      1.0000 0.54567  0.68383  0.39973  Biso   1.000  O
  O42      1.0000 0.13817  0.45433  0.39973  Biso   1.000  O
  O43      1.0000 0.45433  0.13817  0.10027  Biso   1.000  O
  O44      1.0000 0.86183  0.31617  0.10027  Biso   1.000  O
  O45      1.0000 0.68383  0.54567  0.10027  Biso   1.000  O
  O46      1.0000 0.98283  0.19517  0.73307  Biso   1.000  O
  O47      1.0000 0.21233  0.01717  0.73307  Biso   1.000  O
  O48      1.0000 0.80483  0.78767  0.73307  Biso   1.000  O
