data_image0
_cell_length_a       14.3646
_cell_length_b       14.3646
_cell_length_c       49.201
_cell_angle_alpha    90
_cell_angle_beta     90
_cell_angle_gamma    120

_symmetry_space_group_name_H-M    "P 1"
_symmetry_int_tables_number       1

loop_
  _symmetry_equiv_pos_as_xyz
  'x, y, z'

loop_
  _atom_site_label
  _atom_site_occupancy
  _atom_site_fract_x
  _atom_site_fract_y
  _atom_site_fract_z
  _atom_site_thermal_displace_type
  _atom_site_B_iso_or_equiv
  _atom_site_type_symbol
  I1       1.0000 0.00000  0.00000  0.50000  Biso   1.000  I
  I2       1.0000 0.00000  0.00000  0.00000  Biso   1.000  I
  I3       1.0000 0.66667  0.33333  0.83333  Biso   1.000  I
  I4       1.0000 0.66667  0.33333  0.33333  Biso   1.000  I
  I5       1.0000 0.33333  0.66667  0.16667  Biso   1.000  I
  I6       1.0000 0.33333  0.66667  0.66667  Biso   1.000  I
  I7       1.0000 0.84457  0.79708  0.57208  Biso   1.000  I
  I8       1.0000 0.20292  0.04749  0.57208  Biso   1.000  I
  I9       1.0000 0.95251  0.15543  0.57208  Biso   1.000  I
  I10      1.0000 0.04749  0.20292  0.92792  Biso   1.000  I
  I11      1.0000 0.15543  0.95251  0.92792  Biso   1.000  I
  I12      1.0000 0.79708  0.84457  0.92792  Biso   1.000  I
  I13      1.0000 0.51124  0.13041  0.90541  Biso   1.000  I
  I14      1.0000 0.86959  0.38082  0.90541  Biso   1.000  I
  I15      1.0000 0.61918  0.48876  0.90541  Biso   1.000  I
  I16      1.0000 0.71416  0.53625  0.26125  Biso   1.000  I
  I17      1.0000 0.82210  0.28584  0.26125  Biso   1.000  I
  I18      1.0000 0.46375  0.17790  0.26125  Biso   1.000  I
  I19      1.0000 0.17790  0.46375  0.23875  Biso   1.000  I
  I20      1.0000 0.53625  0.71416  0.23875  Biso   1.000  I
  I21      1.0000 0.28584  0.82210  0.23875  Biso   1.000  I
  I22      1.0000 0.38082  0.86959  0.59459  Biso   1.000  I
  I23      1.0000 0.48876  0.61918  0.59459  Biso   1.000  I
  I24      1.0000 0.13041  0.51124  0.59459  Biso   1.000  I
  I25      1.0000 0.15543  0.20292  0.42792  Biso   1.000  I
  I26      1.0000 0.79708  0.95251  0.42792  Biso   1.000  I
  I27      1.0000 0.04749  0.84457  0.42792  Biso   1.000  I
  I28      1.0000 0.95251  0.79708  0.07208  Biso   1.000  I
  I29      1.0000 0.84457  0.04749  0.07208  Biso   1.000  I
  I30      1.0000 0.20292  0.15543  0.07208  Biso   1.000  I
  I31      1.0000 0.82210  0.53625  0.76125  Biso   1.000  I
  I32      1.0000 0.46375  0.28584  0.76125  Biso   1.000  I
  I33      1.0000 0.71416  0.17790  0.76125  Biso   1.000  I
  I34      1.0000 0.61918  0.13041  0.40541  Biso   1.000  I
  I35      1.0000 0.51124  0.38082  0.40541  Biso   1.000  I
  I36      1.0000 0.86959  0.48876  0.40541  Biso   1.000  I
  I37      1.0000 0.48876  0.86959  0.09459  Biso   1.000  I
  I38      1.0000 0.13041  0.61918  0.09459  Biso   1.000  I
  I39      1.0000 0.38082  0.51124  0.09459  Biso   1.000  I
  I40      1.0000 0.28584  0.46375  0.73875  Biso   1.000  I
  I41      1.0000 0.17790  0.71416  0.73875  Biso   1.000  I
  I42      1.0000 0.53625  0.82210  0.73875  Biso   1.000  I
  Cu1      1.0000 0.87668  0.97108  0.54788  Biso   1.000  Cu
  Cu2      1.0000 0.02892  0.90560  0.54788  Biso   1.000  Cu
  Cu3      1.0000 0.09440  0.12332  0.54788  Biso   1.000  Cu
  Cu4      1.0000 0.90560  0.02892  0.95212  Biso   1.000  Cu
  Cu5      1.0000 0.12332  0.09440  0.95212  Biso   1.000  Cu
  Cu6      1.0000 0.97108  0.87668  0.95212  Biso   1.000  Cu
  Cu7      1.0000 0.54335  0.30441  0.88121  Biso   1.000  Cu
  Cu8      1.0000 0.69559  0.23893  0.88121  Biso   1.000  Cu
  Cu9      1.0000 0.76107  0.45665  0.88121  Biso   1.000  Cu
  Cu10     1.0000 0.57227  0.36225  0.28545  Biso   1.000  Cu
  Cu11     1.0000 0.78999  0.42773  0.28545  Biso   1.000  Cu
  Cu12     1.0000 0.63775  0.21001  0.28545  Biso   1.000  Cu
  Cu13     1.0000 0.21001  0.63775  0.21455  Biso   1.000  Cu
  Cu14     1.0000 0.36225  0.57227  0.21455  Biso   1.000  Cu
  Cu15     1.0000 0.42773  0.78999  0.21455  Biso   1.000  Cu
  Cu16     1.0000 0.23893  0.69559  0.61879  Biso   1.000  Cu
  Cu17     1.0000 0.45665  0.76107  0.61879  Biso   1.000  Cu
  Cu18     1.0000 0.30441  0.54335  0.61879  Biso   1.000  Cu
  Cu19     1.0000 0.12332  0.02892  0.45212  Biso   1.000  Cu
  Cu20     1.0000 0.97108  0.09440  0.45212  Biso   1.000  Cu
  Cu21     1.0000 0.90560  0.87668  0.45212  Biso   1.000  Cu
  Cu22     1.0000 0.09440  0.97108  0.04788  Biso   1.000  Cu
  Cu23     1.0000 0.87668  0.90560  0.04788  Biso   1.000  Cu
  Cu24     1.0000 0.02892  0.12332  0.04788  Biso   1.000  Cu
  Cu25     1.0000 0.78999  0.36225  0.78545  Biso   1.000  Cu
  Cu26     1.0000 0.63775  0.42773  0.78545  Biso   1.000  Cu
  Cu27     1.0000 0.57227  0.21001  0.78545  Biso   1.000  Cu
  Cu28     1.0000 0.76107  0.30441  0.38121  Biso   1.000  Cu
  Cu29     1.0000 0.54335  0.23893  0.38121  Biso   1.000  Cu
  Cu30     1.0000 0.69559  0.45665  0.38121  Biso   1.000  Cu
  Cu31     1.0000 0.45665  0.69559  0.11879  Biso   1.000  Cu
  Cu32     1.0000 0.30441  0.76107  0.11879  Biso   1.000  Cu
  Cu33     1.0000 0.23893  0.54335  0.11879  Biso   1.000  Cu
  Cu34     1.0000 0.42773  0.63775  0.71455  Biso   1.000  Cu
  Cu35     1.0000 0.21001  0.57227  0.71455  Biso   1.000  Cu
  Cu36     1.0000 0.36225  0.78999  0.71455  Biso   1.000  Cu
  C1       1.0000 0.54460  0.82140  0.52368  Biso   1.000  C
  C2       1.0000 0.17860  0.72320  0.52368  Biso   1.000  C
  C3       1.0000 0.27680  0.45540  0.52368  Biso   1.000  C
  C4       1.0000 0.72320  0.17860  0.97632  Biso   1.000  C
  C5       1.0000 0.45540  0.27680  0.97632  Biso   1.000  C
  C6       1.0000 0.82140  0.54460  0.97632  Biso   1.000  C
  C7       1.0000 0.21127  0.15473  0.85701  Biso   1.000  C
  C8       1.0000 0.84527  0.05653  0.85701  Biso   1.000  C
  C9       1.0000 0.94347  0.78873  0.85701  Biso   1.000  C
  C10      1.0000 0.38987  0.51193  0.30965  Biso   1.000  C
  C11      1.0000 0.12207  0.61013  0.30965  Biso   1.000  C
  C12      1.0000 0.48807  0.87793  0.30965  Biso   1.000  C
  C13      1.0000 0.87793  0.48807  0.19035  Biso   1.000  C
  C14      1.0000 0.51193  0.38987  0.19035  Biso   1.000  C
  C15      1.0000 0.61013  0.12207  0.19035  Biso   1.000  C
  C16      1.0000 0.05653  0.84527  0.64299  Biso   1.000  C
  C17      1.0000 0.78873  0.94347  0.64299  Biso   1.000  C
  C18      1.0000 0.15473  0.21127  0.64299  Biso   1.000  C
  C19      1.0000 0.45540  0.17860  0.47632  Biso   1.000  C
  C20      1.0000 0.82140  0.27680  0.47632  Biso   1.000  C
  C21      1.0000 0.72320  0.54460  0.47632  Biso   1.000  C
  C22      1.0000 0.27680  0.82140  0.02368  Biso   1.000  C
  C23      1.0000 0.54460  0.72320  0.02368  Biso   1.000  C
  C24      1.0000 0.17860  0.45540  0.02368  Biso   1.000  C
  C25      1.0000 0.12207  0.51193  0.80965  Biso   1.000  C
  C26      1.0000 0.48807  0.61013  0.80965  Biso   1.000  C
  C27      1.0000 0.38987  0.87793  0.80965  Biso   1.000  C
  C28      1.0000 0.94347  0.15473  0.35701  Biso   1.000  C
  C29      1.0000 0.21127  0.05653  0.35701  Biso   1.000  C
  C30      1.0000 0.84527  0.78873  0.35701  Biso   1.000  C
  C31      1.0000 0.78873  0.84527  0.14299  Biso   1.000  C
  C32      1.0000 0.15473  0.94347  0.14299  Biso   1.000  C
  C33      1.0000 0.05653  0.21127  0.14299  Biso   1.000  C
  C34      1.0000 0.61013  0.48807  0.69035  Biso   1.000  C
  C35      1.0000 0.87793  0.38987  0.69035  Biso   1.000  C
  C36      1.0000 0.51193  0.12207  0.69035  Biso   1.000  C
  N1       1.0000 0.73400  0.93970  0.53063  Biso   1.000  N
  N2       1.0000 0.06030  0.79430  0.53063  Biso   1.000  N
  N3       1.0000 0.20570  0.26600  0.53063  Biso   1.000  N
  N4       1.0000 0.79430  0.06030  0.96937  Biso   1.000  N
  N5       1.0000 0.26600  0.20570  0.96937  Biso   1.000  N
  N6       1.0000 0.93970  0.73400  0.96937  Biso   1.000  N
  N7       1.0000 0.40067  0.27303  0.86396  Biso   1.000  N
  N8       1.0000 0.72697  0.12763  0.86396  Biso   1.000  N
  N9       1.0000 0.87237  0.59933  0.86396  Biso   1.000  N
  N10      1.0000 0.46097  0.39363  0.30270  Biso   1.000  N
  N11      1.0000 0.93267  0.53903  0.30270  Biso   1.000  N
  N12      1.0000 0.60637  0.06733  0.30270  Biso   1.000  N
  N13      1.0000 0.06733  0.60637  0.19730  Biso   1.000  N
  N14      1.0000 0.39363  0.46097  0.19730  Biso   1.000  N
  N15      1.0000 0.53903  0.93267  0.19730  Biso   1.000  N
  N16      1.0000 0.12763  0.72697  0.63604  Biso   1.000  N
  N17      1.0000 0.59933  0.87237  0.63604  Biso   1.000  N
  N18      1.0000 0.27303  0.40067  0.63604  Biso   1.000  N
  N19      1.0000 0.26600  0.06030  0.46937  Biso   1.000  N
  N20      1.0000 0.93970  0.20570  0.46937  Biso   1.000  N
  N21      1.0000 0.79430  0.73400  0.46937  Biso   1.000  N
  N22      1.0000 0.20570  0.93970  0.03063  Biso   1.000  N
  N23      1.0000 0.73400  0.79430  0.03063  Biso   1.000  N
  N24      1.0000 0.06030  0.26600  0.03063  Biso   1.000  N
  N25      1.0000 0.93267  0.39363  0.80270  Biso   1.000  N
  N26      1.0000 0.60637  0.53903  0.80270  Biso   1.000  N
  N27      1.0000 0.46097  0.06733  0.80270  Biso   1.000  N
  N28      1.0000 0.87237  0.27303  0.36396  Biso   1.000  N
  N29      1.0000 0.40067  0.12763  0.36396  Biso   1.000  N
  N30      1.0000 0.72697  0.59933  0.36396  Biso   1.000  N
  N31      1.0000 0.59933  0.72697  0.13604  Biso   1.000  N
  N32      1.0000 0.27303  0.87237  0.13604  Biso   1.000  N
  N33      1.0000 0.12763  0.40067  0.13604  Biso   1.000  N
  N34      1.0000 0.53903  0.60637  0.69730  Biso   1.000  N
  N35      1.0000 0.06733  0.46097  0.69730  Biso   1.000  N
  N36      1.0000 0.39363  0.93267  0.69730  Biso   1.000  N
  C37      1.0000 0.64140  0.85120  0.53677  Biso   1.000  C
  C38      1.0000 0.14880  0.79020  0.53677  Biso   1.000  C
  C39      1.0000 0.20980  0.35860  0.53677  Biso   1.000  C
  C40      1.0000 0.79020  0.14880  0.96323  Biso   1.000  C
  C41      1.0000 0.35860  0.20980  0.96323  Biso   1.000  C
  C42      1.0000 0.85120  0.64140  0.96323  Biso   1.000  C
  C43      1.0000 0.30807  0.18453  0.87010  Biso   1.000  C
  C44      1.0000 0.81547  0.12353  0.87010  Biso   1.000  C
  C45      1.0000 0.87647  0.69193  0.87010  Biso   1.000  C
  C46      1.0000 0.45687  0.48213  0.29656  Biso   1.000  C
  C47      1.0000 0.02527  0.54313  0.29656  Biso   1.000  C
  C48      1.0000 0.51787  0.97473  0.29656  Biso   1.000  C
  C49      1.0000 0.97473  0.51787  0.20344  Biso   1.000  C
  C50      1.0000 0.48213  0.45687  0.20344  Biso   1.000  C
  C51      1.0000 0.54313  0.02527  0.20344  Biso   1.000  C
  C52      1.0000 0.12353  0.81547  0.62990  Biso   1.000  C
  C53      1.0000 0.69193  0.87647  0.62990  Biso   1.000  C
  C54      1.0000 0.18453  0.30807  0.62990  Biso   1.000  C
  C55      1.0000 0.35860  0.14880  0.46323  Biso   1.000  C
  C56      1.0000 0.85120  0.20980  0.46323  Biso   1.000  C
  C57      1.0000 0.79020  0.64140  0.46323  Biso   1.000  C
  C58      1.0000 0.20980  0.85120  0.03677  Biso   1.000  C
  C59      1.0000 0.64140  0.79020  0.03677  Biso   1.000  C
  C60      1.0000 0.14880  0.35860  0.03677  Biso   1.000  C
  C61      1.0000 0.02527  0.48213  0.79656  Biso   1.000  C
  C62      1.0000 0.51787  0.54313  0.79656  Biso   1.000  C
  C63      1.0000 0.45687  0.97473  0.79656  Biso   1.000  C
  C64      1.0000 0.87647  0.18453  0.37010  Biso   1.000  C
  C65      1.0000 0.30807  0.12353  0.37010  Biso   1.000  C
  C66      1.0000 0.81547  0.69193  0.37010  Biso   1.000  C
  C67      1.0000 0.69193  0.81547  0.12990  Biso   1.000  C
  C68      1.0000 0.18453  0.87647  0.12990  Biso   1.000  C
  C69      1.0000 0.12353  0.30807  0.12990  Biso   1.000  C
  C70      1.0000 0.54313  0.51787  0.70344  Biso   1.000  C
  C71      1.0000 0.97473  0.45687  0.70344  Biso   1.000  C
  C72      1.0000 0.48213  0.02527  0.70344  Biso   1.000  C
  H1       1.0000 0.64160  0.80620  0.55090  Biso   1.000  H
  H2       1.0000 0.19380  0.83540  0.55090  Biso   1.000  H
  H3       1.0000 0.16460  0.35840  0.55090  Biso   1.000  H
  H4       1.0000 0.83540  0.19380  0.94910  Biso   1.000  H
  H5       1.0000 0.35840  0.16460  0.94910  Biso   1.000  H
  H6       1.0000 0.80620  0.64160  0.94910  Biso   1.000  H
  H7       1.0000 0.30827  0.13953  0.88423  Biso   1.000  H
  H8       1.0000 0.86047  0.16873  0.88423  Biso   1.000  H
  H9       1.0000 0.83127  0.69173  0.88423  Biso   1.000  H
  H10      1.0000 0.50207  0.52713  0.28243  Biso   1.000  H
  H11      1.0000 0.02507  0.49793  0.28243  Biso   1.000  H
  H12      1.0000 0.47287  0.97493  0.28243  Biso   1.000  H
  H13      1.0000 0.97493  0.47287  0.21757  Biso   1.000  H
  H14      1.0000 0.52713  0.50207  0.21757  Biso   1.000  H
  H15      1.0000 0.49793  0.02507  0.21757  Biso   1.000  H
  H16      1.0000 0.16873  0.86047  0.61577  Biso   1.000  H
  H17      1.0000 0.69173  0.83127  0.61577  Biso   1.000  H
  H18      1.0000 0.13953  0.30827  0.61577  Biso   1.000  H
  H19      1.0000 0.35840  0.19380  0.44910  Biso   1.000  H
  H20      1.0000 0.80620  0.16460  0.44910  Biso   1.000  H
  H21      1.0000 0.83540  0.64160  0.44910  Biso   1.000  H
  H22      1.0000 0.16460  0.80620  0.05090  Biso   1.000  H
  H23      1.0000 0.64160  0.83540  0.05090  Biso   1.000  H
  H24      1.0000 0.19380  0.35840  0.05090  Biso   1.000  H
  H25      1.0000 0.02507  0.52713  0.78243  Biso   1.000  H
  H26      1.0000 0.47287  0.49793  0.78243  Biso   1.000  H
  H27      1.0000 0.50207  0.97493  0.78243  Biso   1.000  H
  H28      1.0000 0.83127  0.13953  0.38423  Biso   1.000  H
  H29      1.0000 0.30827  0.16873  0.38423  Biso   1.000  H
  H30      1.0000 0.86047  0.69173  0.38423  Biso   1.000  H
  H31      1.0000 0.69173  0.86047  0.11577  Biso   1.000  H
  H32      1.0000 0.13953  0.83127  0.11577  Biso   1.000  H
  H33      1.0000 0.16873  0.30827  0.11577  Biso   1.000  H
  H34      1.0000 0.49793  0.47287  0.71757  Biso   1.000  H
  H35      1.0000 0.97493  0.50207  0.71757  Biso   1.000  H
  H36      1.0000 0.52713  0.02507  0.71757  Biso   1.000  H
  C73      1.0000 0.54400  0.88590  0.50310  Biso   1.000  C
  C74      1.0000 0.11410  0.65810  0.50310  Biso   1.000  C
  C75      1.0000 0.34190  0.45600  0.50310  Biso   1.000  C
  C76      1.0000 0.65810  0.11410  0.99690  Biso   1.000  C
  C77      1.0000 0.45600  0.34190  0.99690  Biso   1.000  C
  C78      1.0000 0.88590  0.54400  0.99690  Biso   1.000  C
  C79      1.0000 0.21067  0.21923  0.83643  Biso   1.000  C
  C80      1.0000 0.78077  0.99143  0.83643  Biso   1.000  C
  C81      1.0000 0.00857  0.78933  0.83643  Biso   1.000  C
  C82      1.0000 0.32477  0.44743  0.33023  Biso   1.000  C
  C83      1.0000 0.12267  0.67523  0.33023  Biso   1.000  C
  C84      1.0000 0.55257  0.87733  0.33023  Biso   1.000  C
  C85      1.0000 0.87733  0.55257  0.16977  Biso   1.000  C
  C86      1.0000 0.44743  0.32477  0.16977  Biso   1.000  C
  C87      1.0000 0.67523  0.12267  0.16977  Biso   1.000  C
  C88      1.0000 0.99143  0.78077  0.66357  Biso   1.000  C
  C89      1.0000 0.78933  0.00857  0.66357  Biso   1.000  C
  C90      1.0000 0.21923  0.21067  0.66357  Biso   1.000  C
  C91      1.0000 0.45600  0.11410  0.49690  Biso   1.000  C
  C92      1.0000 0.88590  0.34190  0.49690  Biso   1.000  C
  C93      1.0000 0.65810  0.54400  0.49690  Biso   1.000  C
  C94      1.0000 0.34190  0.88590  0.00310  Biso   1.000  C
  C95      1.0000 0.54400  0.65810  0.00310  Biso   1.000  C
  C96      1.0000 0.11410  0.45600  0.00310  Biso   1.000  C
  C97      1.0000 0.12267  0.44743  0.83023  Biso   1.000  C
  C98      1.0000 0.55257  0.67523  0.83023  Biso   1.000  C
  C99      1.0000 0.32477  0.87733  0.83023  Biso   1.000  C
  C100     1.0000 0.00857  0.21923  0.33643  Biso   1.000  C
  C101     1.0000 0.21067  0.99143  0.33643  Biso   1.000  C
  C102     1.0000 0.78077  0.78933  0.33643  Biso   1.000  C
  C103     1.0000 0.78933  0.78077  0.16357  Biso   1.000  C
  C104     1.0000 0.21923  0.00857  0.16357  Biso   1.000  C
  C105     1.0000 0.99143  0.21067  0.16357  Biso   1.000  C
  C106     1.0000 0.67523  0.55257  0.66977  Biso   1.000  C
  C107     1.0000 0.87733  0.32477  0.66977  Biso   1.000  C
  C108     1.0000 0.44743  0.12267  0.66977  Biso   1.000  C
  H37      1.0000 0.48020  0.86650  0.49310  Biso   1.000  H
  H38      1.0000 0.13350  0.61370  0.49310  Biso   1.000  H
  H39      1.0000 0.38630  0.51980  0.49310  Biso   1.000  H
  H40      1.0000 0.61370  0.13350  0.00690  Biso   1.000  H
  H41      1.0000 0.51980  0.38630  0.00690  Biso   1.000  H
  H42      1.0000 0.86650  0.48020  0.00690  Biso   1.000  H
  H43      1.0000 0.14687  0.19983  0.82643  Biso   1.000  H
  H44      1.0000 0.80017  0.94703  0.82643  Biso   1.000  H
  H45      1.0000 0.05297  0.85313  0.82643  Biso   1.000  H
  H46      1.0000 0.28037  0.46683  0.34023  Biso   1.000  H
  H47      1.0000 0.18647  0.71963  0.34023  Biso   1.000  H
  H48      1.0000 0.53317  0.81353  0.34023  Biso   1.000  H
  H49      1.0000 0.81353  0.53317  0.15977  Biso   1.000  H
  H50      1.0000 0.46683  0.28037  0.15977  Biso   1.000  H
  H51      1.0000 0.71963  0.18647  0.15977  Biso   1.000  H
  H52      1.0000 0.94703  0.80017  0.67357  Biso   1.000  H
  H53      1.0000 0.85313  0.05297  0.67357  Biso   1.000  H
  H54      1.0000 0.19983  0.14687  0.67357  Biso   1.000  H
  H55      1.0000 0.51980  0.13350  0.50690  Biso   1.000  H
  H56      1.0000 0.86650  0.38630  0.50690  Biso   1.000  H
  H57      1.0000 0.61370  0.48020  0.50690  Biso   1.000  H
  H58      1.0000 0.38630  0.86650  0.99310  Biso   1.000  H
  H59      1.0000 0.48020  0.61370  0.99310  Biso   1.000  H
  H60      1.0000 0.13350  0.51980  0.99310  Biso   1.000  H
  H61      1.0000 0.18647  0.46683  0.84023  Biso   1.000  H
  H62      1.0000 0.53317  0.71963  0.84023  Biso   1.000  H
  H63      1.0000 0.28037  0.81353  0.84023  Biso   1.000  H
  H64      1.0000 0.05297  0.19983  0.32643  Biso   1.000  H
  H65      1.0000 0.14687  0.94703  0.32643  Biso   1.000  H
  H66      1.0000 0.80017  0.85313  0.32643  Biso   1.000  H
  H67      1.0000 0.85313  0.80017  0.17357  Biso   1.000  H
  H68      1.0000 0.19983  0.05297  0.17357  Biso   1.000  H
  H69      1.0000 0.94703  0.14687  0.17357  Biso   1.000  H
  H70      1.0000 0.71963  0.53317  0.65977  Biso   1.000  H
  H71      1.0000 0.81353  0.28037  0.65977  Biso   1.000  H
  H72      1.0000 0.46683  0.18647  0.65977  Biso   1.000  H
  C109     1.0000 0.73220  0.00500  0.51100  Biso   1.000  C
  C110     1.0000 0.99500  0.72720  0.51100  Biso   1.000  C
  C111     1.0000 0.27280  0.26780  0.51100  Biso   1.000  C
  C112     1.0000 0.72720  0.99500  0.98900  Biso   1.000  C
  C113     1.0000 0.26780  0.27280  0.98900  Biso   1.000  C
  C114     1.0000 0.00500  0.73220  0.98900  Biso   1.000  C
  C115     1.0000 0.39887  0.33833  0.84433  Biso   1.000  C
  C116     1.0000 0.66167  0.06053  0.84433  Biso   1.000  C
  C117     1.0000 0.93947  0.60113  0.84433  Biso   1.000  C
  C118     1.0000 0.39387  0.32833  0.32233  Biso   1.000  C
  C119     1.0000 0.93447  0.60613  0.32233  Biso   1.000  C
  C120     1.0000 0.67167  0.06553  0.32233  Biso   1.000  C
  C121     1.0000 0.06553  0.67167  0.17767  Biso   1.000  C
  C122     1.0000 0.32833  0.39387  0.17767  Biso   1.000  C
  C123     1.0000 0.60613  0.93447  0.17767  Biso   1.000  C
  C124     1.0000 0.06053  0.66167  0.65567  Biso   1.000  C
  C125     1.0000 0.60113  0.93947  0.65567  Biso   1.000  C
  C126     1.0000 0.33833  0.39887  0.65567  Biso   1.000  C
  C127     1.0000 0.26780  0.99500  0.48900  Biso   1.000  C
  C128     1.0000 0.00500  0.27280  0.48900  Biso   1.000  C
  C129     1.0000 0.72720  0.73220  0.48900  Biso   1.000  C
  C130     1.0000 0.27280  0.00500  0.01100  Biso   1.000  C
  C131     1.0000 0.73220  0.72720  0.01100  Biso   1.000  C
  C132     1.0000 0.99500  0.26780  0.01100  Biso   1.000  C
  C133     1.0000 0.93447  0.32833  0.82233  Biso   1.000  C
  C134     1.0000 0.67167  0.60613  0.82233  Biso   1.000  C
  C135     1.0000 0.39387  0.06553  0.82233  Biso   1.000  C
  C136     1.0000 0.93947  0.33833  0.34433  Biso   1.000  C
  C137     1.0000 0.39887  0.06053  0.34433  Biso   1.000  C
  C138     1.0000 0.66167  0.60113  0.34433  Biso   1.000  C
  C139     1.0000 0.60113  0.66167  0.15567  Biso   1.000  C
  C140     1.0000 0.33833  0.93947  0.15567  Biso   1.000  C
  C141     1.0000 0.06053  0.39887  0.15567  Biso   1.000  C
  C142     1.0000 0.60613  0.67167  0.67767  Biso   1.000  C
  C143     1.0000 0.06553  0.39387  0.67767  Biso   1.000  C
  C144     1.0000 0.32833  0.93447  0.67767  Biso   1.000  C
  H73      1.0000 0.79660  0.06950  0.50670  Biso   1.000  H
  H74      1.0000 0.93050  0.72710  0.50670  Biso   1.000  H
  H75      1.0000 0.27290  0.20340  0.50670  Biso   1.000  H
  H76      1.0000 0.72710  0.93050  0.99330  Biso   1.000  H
  H77      1.0000 0.20340  0.27290  0.99330  Biso   1.000  H
  H78      1.0000 0.06950  0.79660  0.99330  Biso   1.000  H
  H79      1.0000 0.46327  0.40283  0.84003  Biso   1.000  H
  H80      1.0000 0.59717  0.06043  0.84003  Biso   1.000  H
  H81      1.0000 0.93957  0.53673  0.84003  Biso   1.000  H
  H82      1.0000 0.39377  0.26383  0.32663  Biso   1.000  H
  H83      1.0000 0.87007  0.60623  0.32663  Biso   1.000  H
  H84      1.0000 0.73617  0.12993  0.32663  Biso   1.000  H
  H85      1.0000 0.12993  0.73617  0.17337  Biso   1.000  H
  H86      1.0000 0.26383  0.39377  0.17337  Biso   1.000  H
  H87      1.0000 0.60623  0.87007  0.17337  Biso   1.000  H
  H88      1.0000 0.06043  0.59717  0.65997  Biso   1.000  H
  H89      1.0000 0.53673  0.93957  0.65997  Biso   1.000  H
  H90      1.0000 0.40283  0.46327  0.65997  Biso   1.000  H
  H91      1.0000 0.20340  0.93050  0.49330  Biso   1.000  H
  H92      1.0000 0.06950  0.27290  0.49330  Biso   1.000  H
  H93      1.0000 0.72710  0.79660  0.49330  Biso   1.000  H
  H94      1.0000 0.27290  0.06950  0.00670  Biso   1.000  H
  H95      1.0000 0.79660  0.72710  0.00670  Biso   1.000  H
  H96      1.0000 0.93050  0.20340  0.00670  Biso   1.000  H
  H97      1.0000 0.87007  0.26383  0.82663  Biso   1.000  H
  H98      1.0000 0.73617  0.60623  0.82663  Biso   1.000  H
  H99      1.0000 0.39377  0.12993  0.82663  Biso   1.000  H
  H100     1.0000 0.93957  0.40283  0.34003  Biso   1.000  H
  H101     1.0000 0.46327  0.06043  0.34003  Biso   1.000  H
  H102     1.0000 0.59717  0.53673  0.34003  Biso   1.000  H
  H103     1.0000 0.53673  0.59717  0.15997  Biso   1.000  H
  H104     1.0000 0.40283  0.93957  0.15997  Biso   1.000  H
  H105     1.0000 0.06043  0.46327  0.15997  Biso   1.000  H
  H106     1.0000 0.60623  0.73617  0.67337  Biso   1.000  H
  H107     1.0000 0.12993  0.39377  0.67337  Biso   1.000  H
  H108     1.0000 0.26383  0.87007  0.67337  Biso   1.000  H
  P1       1.0000 0.33330  0.66670  0.51769  Biso   1.000  P
  P2       1.0000 0.66660  0.33330  0.98231  Biso   1.000  P
  P3       1.0000 0.99997  0.00003  0.85102  Biso   1.000  P
  P4       1.0000 0.33327  0.66663  0.31564  Biso   1.000  P
  P5       1.0000 0.66663  0.33337  0.18436  Biso   1.000  P
  P6       1.0000 0.99993  0.99997  0.64898  Biso   1.000  P
  P7       1.0000 0.66670  0.33330  0.48231  Biso   1.000  P
  P8       1.0000 0.33340  0.66670  0.01769  Biso   1.000  P
  P9       1.0000 0.33337  0.66663  0.81564  Biso   1.000  P
  P10      1.0000 0.00007  0.00003  0.35102  Biso   1.000  P
  P11      1.0000 0.00003  0.99997  0.14898  Biso   1.000  P
  P12      1.0000 0.66673  0.33337  0.68436  Biso   1.000  P
  O1       1.0000 0.33330  0.66670  0.48780  Biso   1.000  O
  O2       1.0000 0.66660  0.33330  0.01220  Biso   1.000  O
  O3       1.0000 0.99997  0.00003  0.82113  Biso   1.000  O
  O4       1.0000 0.33327  0.66663  0.34553  Biso   1.000  O
  O5       1.0000 0.66663  0.33337  0.15447  Biso   1.000  O
  O6       1.0000 0.99993  0.99997  0.67887  Biso   1.000  O
  O7       1.0000 0.66670  0.33330  0.51220  Biso   1.000  O
  O8       1.0000 0.33340  0.66670  0.98780  Biso   1.000  O
  O9       1.0000 0.33337  0.66663  0.84553  Biso   1.000  O
  O10      1.0000 0.00007  0.00003  0.32113  Biso   1.000  O
  O11      1.0000 0.00003  0.99997  0.17887  Biso   1.000  O
  O12      1.0000 0.66673  0.33337  0.65447  Biso   1.000  O
  N37      1.0000 0.45440  0.72410  0.53126  Biso   1.000  N
  N38      1.0000 0.27590  0.73030  0.53126  Biso   1.000  N
  N39      1.0000 0.26970  0.54560  0.53126  Biso   1.000  N
  N40      1.0000 0.73030  0.27590  0.96874  Biso   1.000  N
  N41      1.0000 0.54560  0.26970  0.96874  Biso   1.000  N
  N42      1.0000 0.72410  0.45440  0.96874  Biso   1.000  N
  N43      1.0000 0.12107  0.05743  0.86459  Biso   1.000  N
  N44      1.0000 0.94257  0.06363  0.86459  Biso   1.000  N
  N45      1.0000 0.93637  0.87893  0.86459  Biso   1.000  N
  N46      1.0000 0.39697  0.60923  0.30207  Biso   1.000  N
  N47      1.0000 0.21227  0.60303  0.30207  Biso   1.000  N
  N48      1.0000 0.39077  0.78773  0.30207  Biso   1.000  N
  N49      1.0000 0.78773  0.39077  0.19793  Biso   1.000  N
  N50      1.0000 0.60923  0.39697  0.19793  Biso   1.000  N
  N51      1.0000 0.60303  0.21227  0.19793  Biso   1.000  N
  N52      1.0000 0.06363  0.94257  0.63541  Biso   1.000  N
  N53      1.0000 0.87893  0.93637  0.63541  Biso   1.000  N
  N54      1.0000 0.05743  0.12107  0.63541  Biso   1.000  N
  N55      1.0000 0.54560  0.27590  0.46874  Biso   1.000  N
  N56      1.0000 0.72410  0.26970  0.46874  Biso   1.000  N
  N57      1.0000 0.73030  0.45440  0.46874  Biso   1.000  N
  N58      1.0000 0.26970  0.72410  0.03126  Biso   1.000  N
  N59      1.0000 0.45440  0.73030  0.03126  Biso   1.000  N
  N60      1.0000 0.27590  0.54560  0.03126  Biso   1.000  N
  N61      1.0000 0.21227  0.60923  0.80207  Biso   1.000  N
  N62      1.0000 0.39077  0.60303  0.80207  Biso   1.000  N
  N63      1.0000 0.39697  0.78773  0.80207  Biso   1.000  N
  N64      1.0000 0.93637  0.05743  0.36459  Biso   1.000  N
  N65      1.0000 0.12107  0.06363  0.36459  Biso   1.000  N
  N66      1.0000 0.94257  0.87893  0.36459  Biso   1.000  N
  N67      1.0000 0.87893  0.94257  0.13541  Biso   1.000  N
  N68      1.0000 0.05743  0.93637  0.13541  Biso   1.000  N
  N69      1.0000 0.06363  0.12107  0.13541  Biso   1.000  N
  N70      1.0000 0.60303  0.39077  0.69793  Biso   1.000  N
  N71      1.0000 0.78773  0.39697  0.69793  Biso   1.000  N
  N72      1.0000 0.60923  0.21227  0.69793  Biso   1.000  N
  H109     1.0000 0.46350  0.68950  0.54480  Biso   1.000  H
  H110     1.0000 0.31050  0.77400  0.54480  Biso   1.000  H
  H111     1.0000 0.22600  0.53650  0.54480  Biso   1.000  H
  H112     1.0000 0.77400  0.31050  0.95520  Biso   1.000  H
  H113     1.0000 0.53650  0.22600  0.95520  Biso   1.000  H
  H114     1.0000 0.68950  0.46350  0.95520  Biso   1.000  H
  H115     1.0000 0.13017  0.02283  0.87813  Biso   1.000  H
  H116     1.0000 0.97717  0.10733  0.87813  Biso   1.000  H
  H117     1.0000 0.89267  0.86983  0.87813  Biso   1.000  H
  H118     1.0000 0.44067  0.64383  0.28853  Biso   1.000  H
  H119     1.0000 0.20317  0.55933  0.28853  Biso   1.000  H
  H120     1.0000 0.35617  0.79683  0.28853  Biso   1.000  H
  H121     1.0000 0.79683  0.35617  0.21147  Biso   1.000  H
  H122     1.0000 0.64383  0.44067  0.21147  Biso   1.000  H
  H123     1.0000 0.55933  0.20317  0.21147  Biso   1.000  H
  H124     1.0000 0.10733  0.97717  0.62187  Biso   1.000  H
  H125     1.0000 0.86983  0.89267  0.62187  Biso   1.000  H
  H126     1.0000 0.02283  0.13017  0.62187  Biso   1.000  H
  H127     1.0000 0.53650  0.31050  0.45520  Biso   1.000  H
  H128     1.0000 0.68950  0.22600  0.45520  Biso   1.000  H
  H129     1.0000 0.77400  0.46350  0.45520  Biso   1.000  H
  H130     1.0000 0.22600  0.68950  0.04480  Biso   1.000  H
  H131     1.0000 0.46350  0.77400  0.04480  Biso   1.000  H
  H132     1.0000 0.31050  0.53650  0.04480  Biso   1.000  H
  H133     1.0000 0.20317  0.64383  0.78853  Biso   1.000  H
  H134     1.0000 0.35617  0.55933  0.78853  Biso   1.000  H
  H135     1.0000 0.44067  0.79683  0.78853  Biso   1.000  H
  H136     1.0000 0.89267  0.02283  0.37813  Biso   1.000  H
  H137     1.0000 0.13017  0.10733  0.37813  Biso   1.000  H
  H138     1.0000 0.97717  0.86983  0.37813  Biso   1.000  H
  H139     1.0000 0.86983  0.97717  0.12187  Biso   1.000  H
  H140     1.0000 0.02283  0.89267  0.12187  Biso   1.000  H
  H141     1.0000 0.10733  0.13017  0.12187  Biso   1.000  H
  H142     1.0000 0.55933  0.35617  0.71147  Biso   1.000  H
  H143     1.0000 0.79683  0.44067  0.71147  Biso   1.000  H
  H144     1.0000 0.64383  0.20317  0.71147  Biso   1.000  H
  C145     1.0000 0.63940  0.98030  0.49720  Biso   1.000  C
  C146     1.0000 0.01970  0.65910  0.49720  Biso   1.000  C
  C147     1.0000 0.34090  0.36060  0.49720  Biso   1.000  C
  C148     1.0000 0.65910  0.01970  0.00280  Biso   1.000  C
  C149     1.0000 0.36060  0.34090  0.00280  Biso   1.000  C
  C150     1.0000 0.98030  0.63940  0.00280  Biso   1.000  C
  C151     1.0000 0.30607  0.31363  0.83053  Biso   1.000  C
  C152     1.0000 0.68637  0.99243  0.83053  Biso   1.000  C
  C153     1.0000 0.00757  0.69393  0.83053  Biso   1.000  C
  C154     1.0000 0.32577  0.35303  0.33613  Biso   1.000  C
  C155     1.0000 0.02727  0.67423  0.33613  Biso   1.000  C
  C156     1.0000 0.64697  0.97273  0.33613  Biso   1.000  C
  C157     1.0000 0.97273  0.64697  0.16387  Biso   1.000  C
  C158     1.0000 0.35303  0.32577  0.16387  Biso   1.000  C
  C159     1.0000 0.67423  0.02727  0.16387  Biso   1.000  C
  C160     1.0000 0.99243  0.68637  0.66947  Biso   1.000  C
  C161     1.0000 0.69393  0.00757  0.66947  Biso   1.000  C
  C162     1.0000 0.31363  0.30607  0.66947  Biso   1.000  C
  C163     1.0000 0.36060  0.01970  0.50280  Biso   1.000  C
  C164     1.0000 0.98030  0.34090  0.50280  Biso   1.000  C
  C165     1.0000 0.65910  0.63940  0.50280  Biso   1.000  C
  C166     1.0000 0.34090  0.98030  0.99720  Biso   1.000  C
  C167     1.0000 0.63940  0.65910  0.99720  Biso   1.000  C
  C168     1.0000 0.01970  0.36060  0.99720  Biso   1.000  C
  C169     1.0000 0.02727  0.35303  0.83613  Biso   1.000  C
  C170     1.0000 0.64697  0.67423  0.83613  Biso   1.000  C
  C171     1.0000 0.32577  0.97273  0.83613  Biso   1.000  C
  C172     1.0000 0.00757  0.31363  0.33053  Biso   1.000  C
  C173     1.0000 0.30607  0.99243  0.33053  Biso   1.000  C
  C174     1.0000 0.68637  0.69393  0.33053  Biso   1.000  C
  C175     1.0000 0.69393  0.68637  0.16947  Biso   1.000  C
  C176     1.0000 0.31363  0.00757  0.16947  Biso   1.000  C
  C177     1.0000 0.99243  0.30607  0.16947  Biso   1.000  C
  C178     1.0000 0.67423  0.64697  0.66387  Biso   1.000  C
  C179     1.0000 0.97273  0.32577  0.66387  Biso   1.000  C
  C180     1.0000 0.35303  0.02727  0.66387  Biso   1.000  C
  H145     1.0000 0.64040  0.02780  0.48360  Biso   1.000  H
  H146     1.0000 0.97220  0.61260  0.48360  Biso   1.000  H
  H147     1.0000 0.38740  0.35960  0.48360  Biso   1.000  H
  H148     1.0000 0.61260  0.97220  0.01640  Biso   1.000  H
  H149     1.0000 0.35960  0.38740  0.01640  Biso   1.000  H
  H150     1.0000 0.02780  0.64040  0.01640  Biso   1.000  H
  H151     1.0000 0.30707  0.36113  0.81693  Biso   1.000  H
  H152     1.0000 0.63887  0.94593  0.81693  Biso   1.000  H
  H153     1.0000 0.05407  0.69293  0.81693  Biso   1.000  H
  H154     1.0000 0.27927  0.30553  0.34973  Biso   1.000  H
  H155     1.0000 0.02627  0.72073  0.34973  Biso   1.000  H
  H156     1.0000 0.69447  0.97373  0.34973  Biso   1.000  H
  H157     1.0000 0.97373  0.69447  0.15027  Biso   1.000  H
  H158     1.0000 0.30553  0.27927  0.15027  Biso   1.000  H
  H159     1.0000 0.72073  0.02627  0.15027  Biso   1.000  H
  H160     1.0000 0.94593  0.63887  0.68307  Biso   1.000  H
  H161     1.0000 0.69293  0.05407  0.68307  Biso   1.000  H
  H162     1.0000 0.36113  0.30707  0.68307  Biso   1.000  H
  H163     1.0000 0.35960  0.97220  0.51640  Biso   1.000  H
  H164     1.0000 0.02780  0.38740  0.51640  Biso   1.000  H
  H165     1.0000 0.61260  0.64040  0.51640  Biso   1.000  H
  H166     1.0000 0.38740  0.02780  0.98360  Biso   1.000  H
  H167     1.0000 0.64040  0.61260  0.98360  Biso   1.000  H
  H168     1.0000 0.97220  0.35960  0.98360  Biso   1.000  H
  H169     1.0000 0.02627  0.30553  0.84973  Biso   1.000  H
  H170     1.0000 0.69447  0.72073  0.84973  Biso   1.000  H
  H171     1.0000 0.27927  0.97373  0.84973  Biso   1.000  H
  H172     1.0000 0.05407  0.36113  0.31693  Biso   1.000  H
  H173     1.0000 0.30707  0.94593  0.31693  Biso   1.000  H
  H174     1.0000 0.63887  0.69293  0.31693  Biso   1.000  H
  H175     1.0000 0.69293  0.63887  0.18307  Biso   1.000  H
  H176     1.0000 0.36113  0.05407  0.18307  Biso   1.000  H
  H177     1.0000 0.94593  0.30707  0.18307  Biso   1.000  H
  H178     1.0000 0.72073  0.69447  0.65027  Biso   1.000  H
  H179     1.0000 0.97373  0.27927  0.65027  Biso   1.000  H
  H180     1.0000 0.30553  0.02627  0.65027  Biso   1.000  H
  K1       1.0000 0.33330  0.66670  0.43730  Biso   1.000  K
  K2       1.0000 0.66660  0.33330  0.06270  Biso   1.000  K
  K3       1.0000 0.99997  0.00003  0.77063  Biso   1.000  K
  K4       1.0000 0.33327  0.66663  0.39603  Biso   1.000  K
  K5       1.0000 0.66663  0.33337  0.10397  Biso   1.000  K
  K6       1.0000 0.99993  0.99997  0.72937  Biso   1.000  K
  K7       1.0000 0.66670  0.33330  0.56270  Biso   1.000  K
  K8       1.0000 0.33340  0.66670  0.93730  Biso   1.000  K
  K9       1.0000 0.33337  0.66663  0.89603  Biso   1.000  K
  K10      1.0000 0.00007  0.00003  0.27063  Biso   1.000  K
  K11      1.0000 0.00003  0.99997  0.22937  Biso   1.000  K
  K12      1.0000 0.66673  0.33337  0.60397  Biso   1.000  K
