data_image0
_cell_length_a       14.343
_cell_length_b       14.343
_cell_length_c       48.4451
_cell_angle_alpha    90
_cell_angle_beta     90
_cell_angle_gamma    120

_symmetry_space_group_name_H-M    "P 1"
_symmetry_int_tables_number       1

loop_
  _symmetry_equiv_pos_as_xyz
  'x, y, z'

loop_
  _atom_site_label
  _atom_site_occupancy
  _atom_site_fract_x
  _atom_site_fract_y
  _atom_site_fract_z
  _atom_site_thermal_displace_type
  _atom_site_B_iso_or_equiv
  _atom_site_type_symbol
  I1       1.0000 0.00000  0.00000  0.50000  Biso   1.000  I
  I2       1.0000 0.00000  0.00000  0.00000  Biso   1.000  I
  I3       1.0000 0.66667  0.33333  0.83333  Biso   1.000  I
  I4       1.0000 0.66667  0.33333  0.33333  Biso   1.000  I
  I5       1.0000 0.33333  0.66667  0.16667  Biso   1.000  I
  I6       1.0000 0.33333  0.66667  0.66667  Biso   1.000  I
  I7       1.0000 0.04641  0.84232  0.42765  Biso   1.000  I
  I8       1.0000 0.15768  0.20409  0.42765  Biso   1.000  I
  I9       1.0000 0.79591  0.95359  0.42765  Biso   1.000  I
  I10      1.0000 0.20409  0.15768  0.07235  Biso   1.000  I
  I11      1.0000 0.95359  0.79591  0.07235  Biso   1.000  I
  I12      1.0000 0.84232  0.04641  0.07235  Biso   1.000  I
  I13      1.0000 0.71308  0.17565  0.76098  Biso   1.000  I
  I14      1.0000 0.82435  0.53742  0.76098  Biso   1.000  I
  I15      1.0000 0.46258  0.28692  0.76098  Biso   1.000  I
  I16      1.0000 0.87076  0.49101  0.40568  Biso   1.000  I
  I17      1.0000 0.62026  0.12924  0.40568  Biso   1.000  I
  I18      1.0000 0.50899  0.37974  0.40568  Biso   1.000  I
  I19      1.0000 0.37974  0.50899  0.09432  Biso   1.000  I
  I20      1.0000 0.49101  0.87076  0.09432  Biso   1.000  I
  I21      1.0000 0.12924  0.62026  0.09432  Biso   1.000  I
  I22      1.0000 0.53742  0.82435  0.73902  Biso   1.000  I
  I23      1.0000 0.28692  0.46258  0.73902  Biso   1.000  I
  I24      1.0000 0.17565  0.71308  0.73902  Biso   1.000  I
  I25      1.0000 0.95359  0.15768  0.57235  Biso   1.000  I
  I26      1.0000 0.84232  0.79591  0.57235  Biso   1.000  I
  I27      1.0000 0.20409  0.04641  0.57235  Biso   1.000  I
  I28      1.0000 0.79591  0.84232  0.92765  Biso   1.000  I
  I29      1.0000 0.04641  0.20409  0.92765  Biso   1.000  I
  I30      1.0000 0.15768  0.95359  0.92765  Biso   1.000  I
  I31      1.0000 0.62026  0.49101  0.90568  Biso   1.000  I
  I32      1.0000 0.50899  0.12924  0.90568  Biso   1.000  I
  I33      1.0000 0.87076  0.37974  0.90568  Biso   1.000  I
  I34      1.0000 0.46258  0.17565  0.26098  Biso   1.000  I
  I35      1.0000 0.71308  0.53742  0.26098  Biso   1.000  I
  I36      1.0000 0.82435  0.28692  0.26098  Biso   1.000  I
  I37      1.0000 0.28692  0.82435  0.23902  Biso   1.000  I
  I38      1.0000 0.17565  0.46258  0.23902  Biso   1.000  I
  I39      1.0000 0.53742  0.71308  0.23902  Biso   1.000  I
  I40      1.0000 0.12924  0.50899  0.59432  Biso   1.000  I
  I41      1.0000 0.37974  0.87076  0.59432  Biso   1.000  I
  I42      1.0000 0.49101  0.62026  0.59432  Biso   1.000  I
  Cu1      1.0000 0.90421  0.87630  0.45166  Biso   1.000  Cu
  Cu2      1.0000 0.12370  0.02791  0.45166  Biso   1.000  Cu
  Cu3      1.0000 0.97209  0.09579  0.45166  Biso   1.000  Cu
  Cu4      1.0000 0.02791  0.12370  0.04834  Biso   1.000  Cu
  Cu5      1.0000 0.09579  0.97209  0.04834  Biso   1.000  Cu
  Cu6      1.0000 0.87630  0.90421  0.04834  Biso   1.000  Cu
  Cu7      1.0000 0.57088  0.20963  0.78499  Biso   1.000  Cu
  Cu8      1.0000 0.79037  0.36124  0.78499  Biso   1.000  Cu
  Cu9      1.0000 0.63876  0.42912  0.78499  Biso   1.000  Cu
  Cu10     1.0000 0.69458  0.45703  0.38167  Biso   1.000  Cu
  Cu11     1.0000 0.76246  0.30542  0.38167  Biso   1.000  Cu
  Cu12     1.0000 0.54297  0.23754  0.38167  Biso   1.000  Cu
  Cu13     1.0000 0.23754  0.54297  0.11833  Biso   1.000  Cu
  Cu14     1.0000 0.45703  0.69458  0.11833  Biso   1.000  Cu
  Cu15     1.0000 0.30542  0.76246  0.11833  Biso   1.000  Cu
  Cu16     1.0000 0.36124  0.79037  0.71501  Biso   1.000  Cu
  Cu17     1.0000 0.42912  0.63876  0.71501  Biso   1.000  Cu
  Cu18     1.0000 0.20963  0.57088  0.71501  Biso   1.000  Cu
  Cu19     1.0000 0.09579  0.12370  0.54834  Biso   1.000  Cu
  Cu20     1.0000 0.87630  0.97209  0.54834  Biso   1.000  Cu
  Cu21     1.0000 0.02791  0.90421  0.54834  Biso   1.000  Cu
  Cu22     1.0000 0.97209  0.87630  0.95166  Biso   1.000  Cu
  Cu23     1.0000 0.90421  0.02791  0.95166  Biso   1.000  Cu
  Cu24     1.0000 0.12370  0.09579  0.95166  Biso   1.000  Cu
  Cu25     1.0000 0.76246  0.45703  0.88167  Biso   1.000  Cu
  Cu26     1.0000 0.54297  0.30542  0.88167  Biso   1.000  Cu
  Cu27     1.0000 0.69458  0.23754  0.88167  Biso   1.000  Cu
  Cu28     1.0000 0.63876  0.20963  0.28499  Biso   1.000  Cu
  Cu29     1.0000 0.57088  0.36124  0.28499  Biso   1.000  Cu
  Cu30     1.0000 0.79037  0.42912  0.28499  Biso   1.000  Cu
  Cu31     1.0000 0.42912  0.79037  0.21501  Biso   1.000  Cu
  Cu32     1.0000 0.20963  0.63876  0.21501  Biso   1.000  Cu
  Cu33     1.0000 0.36124  0.57088  0.21501  Biso   1.000  Cu
  Cu34     1.0000 0.30542  0.54297  0.61833  Biso   1.000  Cu
  Cu35     1.0000 0.23754  0.69458  0.61833  Biso   1.000  Cu
  Cu36     1.0000 0.45703  0.76246  0.61833  Biso   1.000  Cu
  P1       1.0000 0.66670  0.33330  0.48346  Biso   1.000  P
  P2       1.0000 0.33340  0.66670  0.01654  Biso   1.000  P
  P3       1.0000 0.33337  0.66663  0.81679  Biso   1.000  P
  P4       1.0000 0.00007  0.00003  0.34987  Biso   1.000  P
  P5       1.0000 0.00003  0.99997  0.15013  Biso   1.000  P
  P6       1.0000 0.66673  0.33337  0.68321  Biso   1.000  P
  P7       1.0000 0.33330  0.66670  0.51654  Biso   1.000  P
  P8       1.0000 0.66660  0.33330  0.98346  Biso   1.000  P
  P9       1.0000 0.99997  0.00003  0.84987  Biso   1.000  P
  P10      1.0000 0.33327  0.66663  0.31679  Biso   1.000  P
  P11      1.0000 0.66663  0.33337  0.18321  Biso   1.000  P
  P12      1.0000 0.99993  0.99997  0.65013  Biso   1.000  P
  C1       1.0000 0.72190  0.54450  0.47705  Biso   1.000  C
  C2       1.0000 0.45550  0.17740  0.47705  Biso   1.000  C
  C3       1.0000 0.82260  0.27810  0.47705  Biso   1.000  C
  C4       1.0000 0.17740  0.45550  0.02295  Biso   1.000  C
  C5       1.0000 0.27810  0.82260  0.02295  Biso   1.000  C
  C6       1.0000 0.54450  0.72190  0.02295  Biso   1.000  C
  C7       1.0000 0.38857  0.87783  0.81038  Biso   1.000  C
  C8       1.0000 0.12217  0.51073  0.81038  Biso   1.000  C
  C9       1.0000 0.48927  0.61143  0.81038  Biso   1.000  C
  C10      1.0000 0.84407  0.78883  0.35628  Biso   1.000  C
  C11      1.0000 0.94477  0.15593  0.35628  Biso   1.000  C
  C12      1.0000 0.21117  0.05523  0.35628  Biso   1.000  C
  C13      1.0000 0.05523  0.21117  0.14372  Biso   1.000  C
  C14      1.0000 0.78883  0.84407  0.14372  Biso   1.000  C
  C15      1.0000 0.15593  0.94477  0.14372  Biso   1.000  C
  C16      1.0000 0.51073  0.12217  0.68962  Biso   1.000  C
  C17      1.0000 0.61143  0.48927  0.68962  Biso   1.000  C
  C18      1.0000 0.87783  0.38857  0.68962  Biso   1.000  C
  C19      1.0000 0.27810  0.45550  0.52295  Biso   1.000  C
  C20      1.0000 0.54450  0.82260  0.52295  Biso   1.000  C
  C21      1.0000 0.17740  0.72190  0.52295  Biso   1.000  C
  C22      1.0000 0.82260  0.54450  0.97705  Biso   1.000  C
  C23      1.0000 0.72190  0.17740  0.97705  Biso   1.000  C
  C24      1.0000 0.45550  0.27810  0.97705  Biso   1.000  C
  C25      1.0000 0.94477  0.78883  0.85628  Biso   1.000  C
  C26      1.0000 0.21117  0.15593  0.85628  Biso   1.000  C
  C27      1.0000 0.84407  0.05523  0.85628  Biso   1.000  C
  C28      1.0000 0.48927  0.87783  0.31038  Biso   1.000  C
  C29      1.0000 0.38857  0.51073  0.31038  Biso   1.000  C
  C30      1.0000 0.12217  0.61143  0.31038  Biso   1.000  C
  C31      1.0000 0.61143  0.12217  0.18962  Biso   1.000  C
  C32      1.0000 0.87783  0.48927  0.18962  Biso   1.000  C
  C33      1.0000 0.51073  0.38857  0.18962  Biso   1.000  C
  C34      1.0000 0.15593  0.21117  0.64372  Biso   1.000  C
  C35      1.0000 0.05523  0.84407  0.64372  Biso   1.000  C
  C36      1.0000 0.78883  0.94477  0.64372  Biso   1.000  C
  N1       1.0000 0.73010  0.45430  0.46952  Biso   1.000  N
  N2       1.0000 0.54570  0.27580  0.46952  Biso   1.000  N
  N3       1.0000 0.72420  0.26990  0.46952  Biso   1.000  N
  N4       1.0000 0.27580  0.54570  0.03048  Biso   1.000  N
  N5       1.0000 0.26990  0.72420  0.03048  Biso   1.000  N
  N6       1.0000 0.45430  0.73010  0.03048  Biso   1.000  N
  N7       1.0000 0.39677  0.78763  0.80285  Biso   1.000  N
  N8       1.0000 0.21237  0.60913  0.80285  Biso   1.000  N
  N9       1.0000 0.39087  0.60323  0.80285  Biso   1.000  N
  N10      1.0000 0.94247  0.87903  0.36381  Biso   1.000  N
  N11      1.0000 0.93657  0.05753  0.36381  Biso   1.000  N
  N12      1.0000 0.12097  0.06343  0.36381  Biso   1.000  N
  N13      1.0000 0.06343  0.12097  0.13619  Biso   1.000  N
  N14      1.0000 0.87903  0.94247  0.13619  Biso   1.000  N
  N15      1.0000 0.05753  0.93657  0.13619  Biso   1.000  N
  N16      1.0000 0.60913  0.21237  0.69715  Biso   1.000  N
  N17      1.0000 0.60323  0.39087  0.69715  Biso   1.000  N
  N18      1.0000 0.78763  0.39677  0.69715  Biso   1.000  N
  N19      1.0000 0.26990  0.54570  0.53048  Biso   1.000  N
  N20      1.0000 0.45430  0.72420  0.53048  Biso   1.000  N
  N21      1.0000 0.27580  0.73010  0.53048  Biso   1.000  N
  N22      1.0000 0.72420  0.45430  0.96952  Biso   1.000  N
  N23      1.0000 0.73010  0.27580  0.96952  Biso   1.000  N
  N24      1.0000 0.54570  0.26990  0.96952  Biso   1.000  N
  N25      1.0000 0.93657  0.87903  0.86381  Biso   1.000  N
  N26      1.0000 0.12097  0.05753  0.86381  Biso   1.000  N
  N27      1.0000 0.94247  0.06343  0.86381  Biso   1.000  N
  N28      1.0000 0.39087  0.78763  0.30285  Biso   1.000  N
  N29      1.0000 0.39677  0.60913  0.30285  Biso   1.000  N
  N30      1.0000 0.21237  0.60323  0.30285  Biso   1.000  N
  N31      1.0000 0.60323  0.21237  0.19715  Biso   1.000  N
  N32      1.0000 0.78763  0.39087  0.19715  Biso   1.000  N
  N33      1.0000 0.60913  0.39677  0.19715  Biso   1.000  N
  N34      1.0000 0.05753  0.12097  0.63619  Biso   1.000  N
  N35      1.0000 0.06343  0.94247  0.63619  Biso   1.000  N
  N36      1.0000 0.87903  0.93657  0.63619  Biso   1.000  N
  H1       1.0000 0.77310  0.46320  0.45610  Biso   1.000  H
  H2       1.0000 0.53680  0.30990  0.45610  Biso   1.000  H
  H3       1.0000 0.69010  0.22690  0.45610  Biso   1.000  H
  H4       1.0000 0.30990  0.53680  0.04390  Biso   1.000  H
  H5       1.0000 0.22690  0.69010  0.04390  Biso   1.000  H
  H6       1.0000 0.46320  0.77310  0.04390  Biso   1.000  H
  H7       1.0000 0.43977  0.79653  0.78943  Biso   1.000  H
  H8       1.0000 0.20347  0.64323  0.78943  Biso   1.000  H
  H9       1.0000 0.35677  0.56023  0.78943  Biso   1.000  H
  H10      1.0000 0.97657  0.87013  0.37723  Biso   1.000  H
  H11      1.0000 0.89357  0.02343  0.37723  Biso   1.000  H
  H12      1.0000 0.12987  0.10643  0.37723  Biso   1.000  H
  H13      1.0000 0.10643  0.12987  0.12277  Biso   1.000  H
  H14      1.0000 0.87013  0.97657  0.12277  Biso   1.000  H
  H15      1.0000 0.02343  0.89357  0.12277  Biso   1.000  H
  H16      1.0000 0.64323  0.20347  0.71057  Biso   1.000  H
  H17      1.0000 0.56023  0.35677  0.71057  Biso   1.000  H
  H18      1.0000 0.79653  0.43977  0.71057  Biso   1.000  H
  H19      1.0000 0.22690  0.53680  0.54390  Biso   1.000  H
  H20      1.0000 0.46320  0.69010  0.54390  Biso   1.000  H
  H21      1.0000 0.30990  0.77310  0.54390  Biso   1.000  H
  H22      1.0000 0.69010  0.46320  0.95610  Biso   1.000  H
  H23      1.0000 0.77310  0.30990  0.95610  Biso   1.000  H
  H24      1.0000 0.53680  0.22690  0.95610  Biso   1.000  H
  H25      1.0000 0.89357  0.87013  0.87723  Biso   1.000  H
  H26      1.0000 0.12987  0.02343  0.87723  Biso   1.000  H
  H27      1.0000 0.97657  0.10643  0.87723  Biso   1.000  H
  H28      1.0000 0.35677  0.79653  0.28943  Biso   1.000  H
  H29      1.0000 0.43977  0.64323  0.28943  Biso   1.000  H
  H30      1.0000 0.20347  0.56023  0.28943  Biso   1.000  H
  H31      1.0000 0.56023  0.20347  0.21057  Biso   1.000  H
  H32      1.0000 0.79653  0.35677  0.21057  Biso   1.000  H
  H33      1.0000 0.64323  0.43977  0.21057  Biso   1.000  H
  H34      1.0000 0.02343  0.12987  0.62277  Biso   1.000  H
  H35      1.0000 0.10643  0.97657  0.62277  Biso   1.000  H
  H36      1.0000 0.87013  0.89357  0.62277  Biso   1.000  H
  N37      1.0000 0.79063  0.73334  0.46926  Biso   1.000  N
  N38      1.0000 0.26666  0.05729  0.46926  Biso   1.000  N
  N39      1.0000 0.94271  0.20937  0.46926  Biso   1.000  N
  N40      1.0000 0.05729  0.26666  0.03074  Biso   1.000  N
  N41      1.0000 0.20937  0.94271  0.03074  Biso   1.000  N
  N42      1.0000 0.73334  0.79063  0.03074  Biso   1.000  N
  N43      1.0000 0.45730  0.06667  0.80259  Biso   1.000  N
  N44      1.0000 0.93333  0.39062  0.80259  Biso   1.000  N
  N45      1.0000 0.60938  0.54270  0.80259  Biso   1.000  N
  N46      1.0000 0.72396  0.59999  0.36407  Biso   1.000  N
  N47      1.0000 0.87604  0.27604  0.36407  Biso   1.000  N
  N48      1.0000 0.40001  0.12396  0.36407  Biso   1.000  N
  N49      1.0000 0.12396  0.40001  0.13593  Biso   1.000  N
  N50      1.0000 0.59999  0.72396  0.13593  Biso   1.000  N
  N51      1.0000 0.27604  0.87604  0.13593  Biso   1.000  N
  N52      1.0000 0.39062  0.93333  0.69741  Biso   1.000  N
  N53      1.0000 0.54270  0.60938  0.69741  Biso   1.000  N
  N54      1.0000 0.06667  0.45730  0.69741  Biso   1.000  N
  N55      1.0000 0.20937  0.26666  0.53074  Biso   1.000  N
  N56      1.0000 0.73334  0.94271  0.53074  Biso   1.000  N
  N57      1.0000 0.05729  0.79063  0.53074  Biso   1.000  N
  N58      1.0000 0.94271  0.73334  0.96926  Biso   1.000  N
  N59      1.0000 0.79063  0.05729  0.96926  Biso   1.000  N
  N60      1.0000 0.26666  0.20937  0.96926  Biso   1.000  N
  N61      1.0000 0.87604  0.59999  0.86407  Biso   1.000  N
  N62      1.0000 0.40001  0.27604  0.86407  Biso   1.000  N
  N63      1.0000 0.72396  0.12396  0.86407  Biso   1.000  N
  N64      1.0000 0.60938  0.06667  0.30259  Biso   1.000  N
  N65      1.0000 0.45730  0.39062  0.30259  Biso   1.000  N
  N66      1.0000 0.93333  0.54270  0.30259  Biso   1.000  N
  N67      1.0000 0.54270  0.93333  0.19741  Biso   1.000  N
  N68      1.0000 0.06667  0.60938  0.19741  Biso   1.000  N
  N69      1.0000 0.39062  0.45730  0.19741  Biso   1.000  N
  N70      1.0000 0.27604  0.40001  0.63593  Biso   1.000  N
  N71      1.0000 0.12396  0.72396  0.63593  Biso   1.000  N
  N72      1.0000 0.59999  0.87604  0.63593  Biso   1.000  N
  C37      1.0000 0.78800  0.64100  0.46316  Biso   1.000  C
  C38      1.0000 0.35900  0.14700  0.46316  Biso   1.000  C
  C39      1.0000 0.85300  0.21200  0.46316  Biso   1.000  C
  C40      1.0000 0.14700  0.35900  0.03684  Biso   1.000  C
  C41      1.0000 0.21200  0.85300  0.03684  Biso   1.000  C
  C42      1.0000 0.64100  0.78800  0.03684  Biso   1.000  C
  C43      1.0000 0.45467  0.97433  0.79649  Biso   1.000  C
  C44      1.0000 0.02567  0.48033  0.79649  Biso   1.000  C
  C45      1.0000 0.51967  0.54533  0.79649  Biso   1.000  C
  C46      1.0000 0.81367  0.69233  0.37017  Biso   1.000  C
  C47      1.0000 0.87867  0.18633  0.37017  Biso   1.000  C
  C48      1.0000 0.30767  0.12133  0.37017  Biso   1.000  C
  C49      1.0000 0.12133  0.30767  0.12983  Biso   1.000  C
  C50      1.0000 0.69233  0.81367  0.12983  Biso   1.000  C
  C51      1.0000 0.18633  0.87867  0.12983  Biso   1.000  C
  C52      1.0000 0.48033  0.02567  0.70351  Biso   1.000  C
  C53      1.0000 0.54533  0.51967  0.70351  Biso   1.000  C
  C54      1.0000 0.97433  0.45467  0.70351  Biso   1.000  C
  C55      1.0000 0.21200  0.35900  0.53684  Biso   1.000  C
  C56      1.0000 0.64100  0.85300  0.53684  Biso   1.000  C
  C57      1.0000 0.14700  0.78800  0.53684  Biso   1.000  C
  C58      1.0000 0.85300  0.64100  0.96316  Biso   1.000  C
  C59      1.0000 0.78800  0.14700  0.96316  Biso   1.000  C
  C60      1.0000 0.35900  0.21200  0.96316  Biso   1.000  C
  C61      1.0000 0.87867  0.69233  0.87017  Biso   1.000  C
  C62      1.0000 0.30767  0.18633  0.87017  Biso   1.000  C
  C63      1.0000 0.81367  0.12133  0.87017  Biso   1.000  C
  C64      1.0000 0.51967  0.97433  0.29649  Biso   1.000  C
  C65      1.0000 0.45467  0.48033  0.29649  Biso   1.000  C
  C66      1.0000 0.02567  0.54533  0.29649  Biso   1.000  C
  C67      1.0000 0.54533  0.02567  0.20351  Biso   1.000  C
  C68      1.0000 0.97433  0.51967  0.20351  Biso   1.000  C
  C69      1.0000 0.48033  0.45467  0.20351  Biso   1.000  C
  C70      1.0000 0.18633  0.30767  0.62983  Biso   1.000  C
  C71      1.0000 0.12133  0.81367  0.62983  Biso   1.000  C
  C72      1.0000 0.69233  0.87867  0.62983  Biso   1.000  C
  H37      1.0000 0.83200  0.64110  0.44910  Biso   1.000  H
  H38      1.0000 0.35890  0.19090  0.44910  Biso   1.000  H
  H39      1.0000 0.80910  0.16800  0.44910  Biso   1.000  H
  H40      1.0000 0.19090  0.35890  0.05090  Biso   1.000  H
  H41      1.0000 0.16800  0.80910  0.05090  Biso   1.000  H
  H42      1.0000 0.64110  0.83200  0.05090  Biso   1.000  H
  H43      1.0000 0.49867  0.97443  0.78243  Biso   1.000  H
  H44      1.0000 0.02557  0.52423  0.78243  Biso   1.000  H
  H45      1.0000 0.47577  0.50133  0.78243  Biso   1.000  H
  H46      1.0000 0.85757  0.69223  0.38423  Biso   1.000  H
  H47      1.0000 0.83467  0.14243  0.38423  Biso   1.000  H
  H48      1.0000 0.30777  0.16533  0.38423  Biso   1.000  H
  H49      1.0000 0.16533  0.30777  0.11577  Biso   1.000  H
  H50      1.0000 0.69223  0.85757  0.11577  Biso   1.000  H
  H51      1.0000 0.14243  0.83467  0.11577  Biso   1.000  H
  H52      1.0000 0.52423  0.02557  0.71757  Biso   1.000  H
  H53      1.0000 0.50133  0.47577  0.71757  Biso   1.000  H
  H54      1.0000 0.97443  0.49867  0.71757  Biso   1.000  H
  H55      1.0000 0.16800  0.35890  0.55090  Biso   1.000  H
  H56      1.0000 0.64110  0.80910  0.55090  Biso   1.000  H
  H57      1.0000 0.19090  0.83200  0.55090  Biso   1.000  H
  H58      1.0000 0.80910  0.64110  0.94910  Biso   1.000  H
  H59      1.0000 0.83200  0.19090  0.94910  Biso   1.000  H
  H60      1.0000 0.35890  0.16800  0.94910  Biso   1.000  H
  H61      1.0000 0.83467  0.69223  0.88423  Biso   1.000  H
  H62      1.0000 0.30777  0.14243  0.88423  Biso   1.000  H
  H63      1.0000 0.85757  0.16533  0.88423  Biso   1.000  H
  H64      1.0000 0.47577  0.97443  0.28243  Biso   1.000  H
  H65      1.0000 0.49867  0.52423  0.28243  Biso   1.000  H
  H66      1.0000 0.02557  0.50133  0.28243  Biso   1.000  H
  H67      1.0000 0.50133  0.02557  0.21757  Biso   1.000  H
  H68      1.0000 0.97443  0.47577  0.21757  Biso   1.000  H
  H69      1.0000 0.52423  0.49867  0.21757  Biso   1.000  H
  H70      1.0000 0.14243  0.30777  0.61577  Biso   1.000  H
  H71      1.0000 0.16533  0.85757  0.61577  Biso   1.000  H
  H72      1.0000 0.69223  0.83467  0.61577  Biso   1.000  H
  C73      1.0000 0.65490  0.54430  0.49765  Biso   1.000  C
  C74      1.0000 0.45570  0.11060  0.49765  Biso   1.000  C
  C75      1.0000 0.88940  0.34510  0.49765  Biso   1.000  C
  C76      1.0000 0.11060  0.45570  0.00235  Biso   1.000  C
  C77      1.0000 0.34510  0.88940  0.00235  Biso   1.000  C
  C78      1.0000 0.54430  0.65490  0.00235  Biso   1.000  C
  C79      1.0000 0.32157  0.87763  0.83098  Biso   1.000  C
  C80      1.0000 0.12237  0.44393  0.83098  Biso   1.000  C
  C81      1.0000 0.55607  0.67843  0.83098  Biso   1.000  C
  C82      1.0000 0.77727  0.78903  0.33568  Biso   1.000  C
  C83      1.0000 0.01177  0.22273  0.33568  Biso   1.000  C
  C84      1.0000 0.21097  0.98823  0.33568  Biso   1.000  C
  C85      1.0000 0.98823  0.21097  0.16432  Biso   1.000  C
  C86      1.0000 0.78903  0.77727  0.16432  Biso   1.000  C
  C87      1.0000 0.22273  0.01177  0.16432  Biso   1.000  C
  C88      1.0000 0.44393  0.12237  0.66902  Biso   1.000  C
  C89      1.0000 0.67843  0.55607  0.66902  Biso   1.000  C
  C90      1.0000 0.87763  0.32157  0.66902  Biso   1.000  C
  C91      1.0000 0.34510  0.45570  0.50235  Biso   1.000  C
  C92      1.0000 0.54430  0.88940  0.50235  Biso   1.000  C
  C93      1.0000 0.11060  0.65490  0.50235  Biso   1.000  C
  C94      1.0000 0.88940  0.54430  0.99765  Biso   1.000  C
  C95      1.0000 0.65490  0.11060  0.99765  Biso   1.000  C
  C96      1.0000 0.45570  0.34510  0.99765  Biso   1.000  C
  C97      1.0000 0.01177  0.78903  0.83568  Biso   1.000  C
  C98      1.0000 0.21097  0.22273  0.83568  Biso   1.000  C
  C99      1.0000 0.77727  0.98823  0.83568  Biso   1.000  C
  C100     1.0000 0.55607  0.87763  0.33098  Biso   1.000  C
  C101     1.0000 0.32157  0.44393  0.33098  Biso   1.000  C
  C102     1.0000 0.12237  0.67843  0.33098  Biso   1.000  C
  C103     1.0000 0.67843  0.12237  0.16902  Biso   1.000  C
  C104     1.0000 0.87763  0.55607  0.16902  Biso   1.000  C
  C105     1.0000 0.44393  0.32157  0.16902  Biso   1.000  C
  C106     1.0000 0.22273  0.21097  0.66432  Biso   1.000  C
  C107     1.0000 0.98823  0.77727  0.66432  Biso   1.000  C
  C108     1.0000 0.78903  0.01177  0.66432  Biso   1.000  C
  H73      1.0000 0.60980  0.48160  0.50730  Biso   1.000  H
  H74      1.0000 0.51840  0.12820  0.50730  Biso   1.000  H
  H75      1.0000 0.87180  0.39020  0.50730  Biso   1.000  H
  H76      1.0000 0.12820  0.51840  0.99270  Biso   1.000  H
  H77      1.0000 0.39020  0.87180  0.99270  Biso   1.000  H
  H78      1.0000 0.48160  0.60980  0.99270  Biso   1.000  H
  H79      1.0000 0.27647  0.81493  0.84063  Biso   1.000  H
  H80      1.0000 0.18507  0.46153  0.84063  Biso   1.000  H
  H81      1.0000 0.53847  0.72353  0.84063  Biso   1.000  H
  H82      1.0000 0.79487  0.85173  0.32603  Biso   1.000  H
  H83      1.0000 0.05687  0.20513  0.32603  Biso   1.000  H
  H84      1.0000 0.14827  0.94313  0.32603  Biso   1.000  H
  H85      1.0000 0.94313  0.14827  0.17397  Biso   1.000  H
  H86      1.0000 0.85173  0.79487  0.17397  Biso   1.000  H
  H87      1.0000 0.20513  0.05687  0.17397  Biso   1.000  H
  H88      1.0000 0.46153  0.18507  0.65937  Biso   1.000  H
  H89      1.0000 0.72353  0.53847  0.65937  Biso   1.000  H
  H90      1.0000 0.81493  0.27647  0.65937  Biso   1.000  H
  H91      1.0000 0.39020  0.51840  0.49270  Biso   1.000  H
  H92      1.0000 0.48160  0.87180  0.49270  Biso   1.000  H
  H93      1.0000 0.12820  0.60980  0.49270  Biso   1.000  H
  H94      1.0000 0.87180  0.48160  0.00730  Biso   1.000  H
  H95      1.0000 0.60980  0.12820  0.00730  Biso   1.000  H
  H96      1.0000 0.51840  0.39020  0.00730  Biso   1.000  H
  H97      1.0000 0.05687  0.85173  0.82603  Biso   1.000  H
  H98      1.0000 0.14827  0.20513  0.82603  Biso   1.000  H
  H99      1.0000 0.79487  0.94313  0.82603  Biso   1.000  H
  H100     1.0000 0.53847  0.81493  0.34063  Biso   1.000  H
  H101     1.0000 0.27647  0.46153  0.34063  Biso   1.000  H
  H102     1.0000 0.18507  0.72353  0.34063  Biso   1.000  H
  H103     1.0000 0.72353  0.18507  0.15937  Biso   1.000  H
  H104     1.0000 0.81493  0.53847  0.15937  Biso   1.000  H
  H105     1.0000 0.46153  0.27647  0.15937  Biso   1.000  H
  H106     1.0000 0.20513  0.14827  0.67397  Biso   1.000  H
  H107     1.0000 0.94313  0.79487  0.67397  Biso   1.000  H
  H108     1.0000 0.85173  0.05687  0.67397  Biso   1.000  H
  C109     1.0000 0.65630  0.63960  0.50354  Biso   1.000  C
  C110     1.0000 0.36040  0.01670  0.50354  Biso   1.000  C
  C111     1.0000 0.98330  0.34370  0.50354  Biso   1.000  C
  C112     1.0000 0.01670  0.36040  0.99646  Biso   1.000  C
  C113     1.0000 0.34370  0.98330  0.99646  Biso   1.000  C
  C114     1.0000 0.63960  0.65630  0.99646  Biso   1.000  C
  C115     1.0000 0.32297  0.97293  0.83687  Biso   1.000  C
  C116     1.0000 0.02707  0.35003  0.83687  Biso   1.000  C
  C117     1.0000 0.64997  0.67703  0.83687  Biso   1.000  C
  C118     1.0000 0.68337  0.69373  0.32979  Biso   1.000  C
  C119     1.0000 0.01037  0.31663  0.32979  Biso   1.000  C
  C120     1.0000 0.30627  0.98963  0.32979  Biso   1.000  C
  C121     1.0000 0.98963  0.30627  0.17021  Biso   1.000  C
  C122     1.0000 0.69373  0.68337  0.17021  Biso   1.000  C
  C123     1.0000 0.31663  0.01037  0.17021  Biso   1.000  C
  C124     1.0000 0.35003  0.02707  0.66313  Biso   1.000  C
  C125     1.0000 0.67703  0.64997  0.66313  Biso   1.000  C
  C126     1.0000 0.97293  0.32297  0.66313  Biso   1.000  C
  C127     1.0000 0.34370  0.36040  0.49646  Biso   1.000  C
  C128     1.0000 0.63960  0.98330  0.49646  Biso   1.000  C
  C129     1.0000 0.01670  0.65630  0.49646  Biso   1.000  C
  C130     1.0000 0.98330  0.63960  0.00354  Biso   1.000  C
  C131     1.0000 0.65630  0.01670  0.00354  Biso   1.000  C
  C132     1.0000 0.36040  0.34370  0.00354  Biso   1.000  C
  C133     1.0000 0.01037  0.69373  0.82979  Biso   1.000  C
  C134     1.0000 0.30627  0.31663  0.82979  Biso   1.000  C
  C135     1.0000 0.68337  0.98963  0.82979  Biso   1.000  C
  C136     1.0000 0.64997  0.97293  0.33687  Biso   1.000  C
  C137     1.0000 0.32297  0.35003  0.33687  Biso   1.000  C
  C138     1.0000 0.02707  0.67703  0.33687  Biso   1.000  C
  C139     1.0000 0.67703  0.02707  0.16313  Biso   1.000  C
  C140     1.0000 0.97293  0.64997  0.16313  Biso   1.000  C
  C141     1.0000 0.35003  0.32297  0.16313  Biso   1.000  C
  C142     1.0000 0.31663  0.30627  0.67021  Biso   1.000  C
  C143     1.0000 0.98963  0.68337  0.67021  Biso   1.000  C
  C144     1.0000 0.69373  0.01037  0.67021  Biso   1.000  C
  H109     1.0000 0.61180  0.64130  0.51720  Biso   1.000  H
  H110     1.0000 0.35870  0.97050  0.51720  Biso   1.000  H
  H111     1.0000 0.02950  0.38820  0.51720  Biso   1.000  H
  H112     1.0000 0.97050  0.35870  0.98280  Biso   1.000  H
  H113     1.0000 0.38820  0.02950  0.98280  Biso   1.000  H
  H114     1.0000 0.64130  0.61180  0.98280  Biso   1.000  H
  H115     1.0000 0.27847  0.97463  0.85053  Biso   1.000  H
  H116     1.0000 0.02537  0.30383  0.85053  Biso   1.000  H
  H117     1.0000 0.69617  0.72153  0.85053  Biso   1.000  H
  H118     1.0000 0.63717  0.69203  0.31613  Biso   1.000  H
  H119     1.0000 0.05487  0.36283  0.31613  Biso   1.000  H
  H120     1.0000 0.30797  0.94513  0.31613  Biso   1.000  H
  H121     1.0000 0.94513  0.30797  0.18387  Biso   1.000  H
  H122     1.0000 0.69203  0.63717  0.18387  Biso   1.000  H
  H123     1.0000 0.36283  0.05487  0.18387  Biso   1.000  H
  H124     1.0000 0.30383  0.02537  0.64947  Biso   1.000  H
  H125     1.0000 0.72153  0.69617  0.64947  Biso   1.000  H
  H126     1.0000 0.97463  0.27847  0.64947  Biso   1.000  H
  H127     1.0000 0.38820  0.35870  0.48280  Biso   1.000  H
  H128     1.0000 0.64130  0.02950  0.48280  Biso   1.000  H
  H129     1.0000 0.97050  0.61180  0.48280  Biso   1.000  H
  H130     1.0000 0.02950  0.64130  0.01720  Biso   1.000  H
  H131     1.0000 0.61180  0.97050  0.01720  Biso   1.000  H
  H132     1.0000 0.35870  0.38820  0.01720  Biso   1.000  H
  H133     1.0000 0.05487  0.69203  0.81613  Biso   1.000  H
  H134     1.0000 0.30797  0.36283  0.81613  Biso   1.000  H
  H135     1.0000 0.63717  0.94513  0.81613  Biso   1.000  H
  H136     1.0000 0.69617  0.97463  0.35053  Biso   1.000  H
  H137     1.0000 0.27847  0.30383  0.35053  Biso   1.000  H
  H138     1.0000 0.02537  0.72153  0.35053  Biso   1.000  H
  H139     1.0000 0.72153  0.02537  0.14947  Biso   1.000  H
  H140     1.0000 0.97463  0.69617  0.14947  Biso   1.000  H
  H141     1.0000 0.30383  0.27847  0.14947  Biso   1.000  H
  H142     1.0000 0.36283  0.30797  0.68387  Biso   1.000  H
  H143     1.0000 0.94513  0.63717  0.68387  Biso   1.000  H
  H144     1.0000 0.69203  0.05487  0.68387  Biso   1.000  H
  C145     1.0000 0.72440  0.73230  0.48897  Biso   1.000  C
  C146     1.0000 0.26770  0.99210  0.48897  Biso   1.000  C
  C147     1.0000 0.00790  0.27560  0.48897  Biso   1.000  C
  C148     1.0000 0.99210  0.26770  0.01103  Biso   1.000  C
  C149     1.0000 0.27560  0.00790  0.01103  Biso   1.000  C
  C150     1.0000 0.73230  0.72440  0.01103  Biso   1.000  C
  C151     1.0000 0.39107  0.06563  0.82230  Biso   1.000  C
  C152     1.0000 0.93437  0.32543  0.82230  Biso   1.000  C
  C153     1.0000 0.67457  0.60893  0.82230  Biso   1.000  C
  C154     1.0000 0.65877  0.60103  0.34436  Biso   1.000  C
  C155     1.0000 0.94227  0.34123  0.34436  Biso   1.000  C
  C156     1.0000 0.39897  0.05773  0.34436  Biso   1.000  C
  C157     1.0000 0.05773  0.39897  0.15564  Biso   1.000  C
  C158     1.0000 0.60103  0.65877  0.15564  Biso   1.000  C
  C159     1.0000 0.34123  0.94227  0.15564  Biso   1.000  C
  C160     1.0000 0.32543  0.93437  0.67770  Biso   1.000  C
  C161     1.0000 0.60893  0.67457  0.67770  Biso   1.000  C
  C162     1.0000 0.06563  0.39107  0.67770  Biso   1.000  C
  C163     1.0000 0.27560  0.26770  0.51103  Biso   1.000  C
  C164     1.0000 0.73230  0.00790  0.51103  Biso   1.000  C
  C165     1.0000 0.99210  0.72440  0.51103  Biso   1.000  C
  C166     1.0000 0.00790  0.73230  0.98897  Biso   1.000  C
  C167     1.0000 0.72440  0.99210  0.98897  Biso   1.000  C
  C168     1.0000 0.26770  0.27560  0.98897  Biso   1.000  C
  C169     1.0000 0.94227  0.60103  0.84436  Biso   1.000  C
  C170     1.0000 0.39897  0.34123  0.84436  Biso   1.000  C
  C171     1.0000 0.65877  0.05773  0.84436  Biso   1.000  C
  C172     1.0000 0.67457  0.06563  0.32230  Biso   1.000  C
  C173     1.0000 0.39107  0.32543  0.32230  Biso   1.000  C
  C174     1.0000 0.93437  0.60893  0.32230  Biso   1.000  C
  C175     1.0000 0.60893  0.93437  0.17770  Biso   1.000  C
  C176     1.0000 0.06563  0.67457  0.17770  Biso   1.000  C
  C177     1.0000 0.32543  0.39107  0.17770  Biso   1.000  C
  C178     1.0000 0.34123  0.39897  0.65564  Biso   1.000  C
  C179     1.0000 0.05773  0.65877  0.65564  Biso   1.000  C
  C180     1.0000 0.60103  0.94227  0.65564  Biso   1.000  C
  H145     1.0000 0.72420  0.79560  0.49300  Biso   1.000  H
  H146     1.0000 0.20440  0.92860  0.49300  Biso   1.000  H
  H147     1.0000 0.07140  0.27580  0.49300  Biso   1.000  H
  H148     1.0000 0.92860  0.20440  0.00700  Biso   1.000  H
  H149     1.0000 0.27580  0.07140  0.00700  Biso   1.000  H
  H150     1.0000 0.79560  0.72420  0.00700  Biso   1.000  H
  H151     1.0000 0.39087  0.12893  0.82633  Biso   1.000  H
  H152     1.0000 0.87107  0.26193  0.82633  Biso   1.000  H
  H153     1.0000 0.73807  0.60913  0.82633  Biso   1.000  H
  H154     1.0000 0.59527  0.53773  0.34033  Biso   1.000  H
  H155     1.0000 0.94247  0.40473  0.34033  Biso   1.000  H
  H156     1.0000 0.46227  0.05753  0.34033  Biso   1.000  H
  H157     1.0000 0.05753  0.46227  0.15967  Biso   1.000  H
  H158     1.0000 0.53773  0.59527  0.15967  Biso   1.000  H
  H159     1.0000 0.40473  0.94247  0.15967  Biso   1.000  H
  H160     1.0000 0.26193  0.87107  0.67367  Biso   1.000  H
  H161     1.0000 0.60913  0.73807  0.67367  Biso   1.000  H
  H162     1.0000 0.12893  0.39087  0.67367  Biso   1.000  H
  H163     1.0000 0.27580  0.20440  0.50700  Biso   1.000  H
  H164     1.0000 0.79560  0.07140  0.50700  Biso   1.000  H
  H165     1.0000 0.92860  0.72420  0.50700  Biso   1.000  H
  H166     1.0000 0.07140  0.79560  0.99300  Biso   1.000  H
  H167     1.0000 0.72420  0.92860  0.99300  Biso   1.000  H
  H168     1.0000 0.20440  0.27580  0.99300  Biso   1.000  H
  H169     1.0000 0.94247  0.53773  0.84033  Biso   1.000  H
  H170     1.0000 0.46227  0.40473  0.84033  Biso   1.000  H
  H171     1.0000 0.59527  0.05753  0.84033  Biso   1.000  H
  H172     1.0000 0.73807  0.12893  0.32633  Biso   1.000  H
  H173     1.0000 0.39087  0.26193  0.32633  Biso   1.000  H
  H174     1.0000 0.87107  0.60913  0.32633  Biso   1.000  H
  H175     1.0000 0.60913  0.87107  0.17367  Biso   1.000  H
  H176     1.0000 0.12893  0.73807  0.17367  Biso   1.000  H
  H177     1.0000 0.26193  0.39087  0.17367  Biso   1.000  H
  H178     1.0000 0.40473  0.46227  0.65967  Biso   1.000  H
  H179     1.0000 0.05753  0.59527  0.65967  Biso   1.000  H
  H180     1.0000 0.53773  0.94247  0.65967  Biso   1.000  H
  O1       1.0000 0.66670  0.33330  0.51380  Biso   1.000  O
  O2       1.0000 0.33340  0.66670  0.98620  Biso   1.000  O
  O3       1.0000 0.33337  0.66663  0.84713  Biso   1.000  O
  O4       1.0000 0.00007  0.00003  0.31953  Biso   1.000  O
  O5       1.0000 0.00003  0.99997  0.18047  Biso   1.000  O
  O6       1.0000 0.66673  0.33337  0.65287  Biso   1.000  O
  O7       1.0000 0.33330  0.66670  0.48620  Biso   1.000  O
  O8       1.0000 0.66660  0.33330  0.01380  Biso   1.000  O
  O9       1.0000 0.99997  0.00003  0.81953  Biso   1.000  O
  O10      1.0000 0.33327  0.66663  0.34713  Biso   1.000  O
  O11      1.0000 0.66663  0.33337  0.15287  Biso   1.000  O
  O12      1.0000 0.99993  0.99997  0.68047  Biso   1.000  O
