data_image0
_cell_length_a       9.0437
_cell_length_b       10.8072
_cell_length_c       10.8381
_cell_angle_alpha    116.35
_cell_angle_beta     102.549
_cell_angle_gamma    96.607

_symmetry_space_group_name_H-M    "P 1"
_symmetry_int_tables_number       1

loop_
  _symmetry_equiv_pos_as_xyz
  'x, y, z'

loop_
  _atom_site_label
  _atom_site_occupancy
  _atom_site_fract_x
  _atom_site_fract_y
  _atom_site_fract_z
  _atom_site_thermal_displace_type
  _atom_site_B_iso_or_equiv
  _atom_site_type_symbol
  I1       1.0000 0.04924  0.22221  0.02566  Biso   1.000  I
  I2       1.0000 0.95076  0.77779  0.97434  Biso   1.000  I
  Cu1      1.0000 0.96969  0.05191  0.12457  Biso   1.000  Cu
  Cu2      1.0000 0.03031  0.94809  0.87543  Biso   1.000  Cu
  P1       1.0000 0.43369  0.55024  0.81658  Biso   1.000  P
  P2       1.0000 0.56631  0.44976  0.18342  Biso   1.000  P
  O1       1.0000 0.35630  0.56330  0.92710  Biso   1.000  O
  O2       1.0000 0.64370  0.43670  0.07290  Biso   1.000  O
  N1       1.0000 0.12120  0.12180  0.32700  Biso   1.000  N
  N2       1.0000 0.87880  0.87820  0.67300  Biso   1.000  N
  N3       1.0000 0.31440  0.46530  0.64850  Biso   1.000  N
  N4       1.0000 0.68560  0.53470  0.35150  Biso   1.000  N
  H1       1.0000 0.28725  0.51774  0.60837  Biso   1.000  H
  H2       1.0000 0.71275  0.48226  0.39163  Biso   1.000  H
  N5       1.0000 0.51960  0.70010  0.82850  Biso   1.000  N
  N6       1.0000 0.48040  0.29990  0.17150  Biso   1.000  N
  H3       1.0000 0.62028  0.71230  0.83859  Biso   1.000  H
  H4       1.0000 0.37972  0.28770  0.16141  Biso   1.000  H
  N7       1.0000 0.57360  0.46740  0.82730  Biso   1.000  N
  N8       1.0000 0.42640  0.53260  0.17270  Biso   1.000  N
  H5       1.0000 0.58964  0.44669  0.89825  Biso   1.000  H
  H6       1.0000 0.41036  0.55331  0.10175  Biso   1.000  H
  N9       1.0000 0.24350  0.92700  0.83910  Biso   1.000  N
  N10      1.0000 0.75650  0.07300  0.16090  Biso   1.000  N
  N11      1.0000 0.74410  0.39890  0.52960  Biso   1.000  N
  N12      1.0000 0.25590  0.60110  0.47040  Biso   1.000  N
  C1       1.0000 0.67070  0.42510  0.73900  Biso   1.000  C
  C2       1.0000 0.32930  0.57490  0.26100  Biso   1.000  C
  C3       1.0000 0.45500  0.81040  0.82490  Biso   1.000  C
  C4       1.0000 0.54500  0.18960  0.17510  Biso   1.000  C
  C5       1.0000 0.13540  0.03190  0.38130  Biso   1.000  C
  C6       1.0000 0.86460  0.96810  0.61870  Biso   1.000  C
  H7       1.0000 0.09721  0.93240  0.31790  Biso   1.000  H
  H8       1.0000 0.90279  0.06760  0.68210  Biso   1.000  H
  C7       1.0000 0.25310  0.31860  0.56500  Biso   1.000  C
  C8       1.0000 0.74690  0.68140  0.43500  Biso   1.000  C
  C9       1.0000 0.30470  0.81900  0.83740  Biso   1.000  C
  C10      1.0000 0.69530  0.18100  0.16260  Biso   1.000  C
  H9       1.0000 0.24446  0.74612  0.84495  Biso   1.000  H
  H10      1.0000 0.75554  0.25388  0.15505  Biso   1.000  H
  C11      1.0000 0.86710  0.35310  0.57130  Biso   1.000  C
  C12      1.0000 0.13290  0.64690  0.42870  Biso   1.000  C
  H11      1.0000 0.93540  0.32795  0.51358  Biso   1.000  H
  H12      1.0000 0.06460  0.67205  0.48642  Biso   1.000  H
  C13      1.0000 0.18090  0.26120  0.41720  Biso   1.000  C
  C14      1.0000 0.81910  0.73880  0.58280  Biso   1.000  C
  H13      1.0000 0.17362  0.32454  0.37850  Biso   1.000  H
  H14      1.0000 0.82638  0.67546  0.62150  Biso   1.000  H
  C15      1.0000 0.89780  0.34110  0.69640  Biso   1.000  C
  C16      1.0000 0.10220  0.65890  0.30360  Biso   1.000  C
  H15      1.0000 0.98619  0.30851  0.72326  Biso   1.000  H
  H16      1.0000 0.01381  0.69149  0.27674  Biso   1.000  H
  C17      1.0000 0.54180  0.91710  0.81220  Biso   1.000  C
  C18      1.0000 0.45820  0.08290  0.18780  Biso   1.000  C
  H17      1.0000 0.64374  0.91438  0.80337  Biso   1.000  H
  H18      1.0000 0.35626  0.08562  0.19663  Biso   1.000  H
  C19      1.0000 0.26170  0.22430  0.62030  Biso   1.000  C
  C20      1.0000 0.73830  0.77570  0.37970  Biso   1.000  C
  H19      1.0000 0.30667  0.25855  0.72069  Biso   1.000  H
  H20      1.0000 0.69333  0.74145  0.27931  Biso   1.000  H
  C21      1.0000 0.79910  0.37700  0.78200  Biso   1.000  C
  C22      1.0000 0.20090  0.62300  0.21800  Biso   1.000  C
  H21      1.0000 0.81830  0.36899  0.86760  Biso   1.000  H
  H22      1.0000 0.18170  0.63101  0.13240  Biso   1.000  H
  C23      1.0000 0.64900  0.43380  0.61200  Biso   1.000  C
  C24      1.0000 0.35100  0.56620  0.38800  Biso   1.000  C
  H23      1.0000 0.56185  0.46634  0.58239  Biso   1.000  H
  H24      1.0000 0.43815  0.53366  0.41761  Biso   1.000  H
  C25      1.0000 0.47680  0.02680  0.81260  Biso   1.000  C
  C26      1.0000 0.52320  0.97320  0.18740  Biso   1.000  C
  H25      1.0000 0.53329  0.10036  0.80331  Biso   1.000  H
  H26      1.0000 0.46671  0.89964  0.19669  Biso   1.000  H
  C27      1.0000 0.20370  0.07990  0.52640  Biso   1.000  C
  C28      1.0000 0.79630  0.92010  0.47360  Biso   1.000  C
  H27      1.0000 0.21097  0.01395  0.56185  Biso   1.000  H
  H28      1.0000 0.78903  0.98605  0.43815  Biso   1.000  H
  C29      1.0000 0.32750  0.02820  0.82680  Biso   1.000  C
  C30      1.0000 0.67250  0.97180  0.17320  Biso   1.000  C
  H29      1.0000 0.28391  0.10444  0.82779  Biso   1.000  H
  H30      1.0000 0.71609  0.89556  0.17221  Biso   1.000  H
