data_image0
_cell_length_a       10.5333
_cell_length_b       12.8234
_cell_length_c       13.1215
_cell_angle_alpha    84.199
_cell_angle_beta     82.718
_cell_angle_gamma    67.584

_symmetry_space_group_name_H-M    "P 1"
_symmetry_int_tables_number       1

loop_
  _symmetry_equiv_pos_as_xyz
  'x, y, z'

loop_
  _atom_site_label
  _atom_site_occupancy
  _atom_site_fract_x
  _atom_site_fract_y
  _atom_site_fract_z
  _atom_site_thermal_displace_type
  _atom_site_B_iso_or_equiv
  _atom_site_type_symbol
  Cu1      1.0000 0.44827  0.40961  0.38570  Biso   1.000  Cu
  Cu2      1.0000 0.55173  0.59039  0.61430  Biso   1.000  Cu
  Cu3      1.0000 0.32594  0.51856  0.63006  Biso   1.000  Cu
  Cu4      1.0000 0.67406  0.48144  0.36994  Biso   1.000  Cu
  Cu5      1.0000 0.06490  0.74895  0.52021  Biso   1.000  Cu
  Cu6      1.0000 0.93510  0.25105  0.47979  Biso   1.000  Cu
  Cu7      1.0000 0.18407  0.64129  0.27741  Biso   1.000  Cu
  Cu8      1.0000 0.81593  0.35871  0.72259  Biso   1.000  Cu
  Cl1      1.0000 0.18050  0.54176  0.46684  Biso   1.000  Cl
  Cl2      1.0000 0.81950  0.45824  0.53316  Biso   1.000  Cl
  Na1      1.0000 0.66760  0.04310  0.96950  Biso   1.000  Na
  Na2      1.0000 0.33240  0.95690  0.03050  Biso   1.000  Na
  O1       1.0000 0.72370  0.09880  0.76350  Biso   1.000  O
  O2       1.0000 0.27630  0.90120  0.23650  Biso   1.000  O
  O3       1.0000 0.80100  0.03330  0.61340  Biso   1.000  O
  O4       1.0000 0.19900  0.96670  0.38660  Biso   1.000  O
  O5       1.0000 0.57710  0.27540  0.97300  Biso   1.000  O
  O6       1.0000 0.42290  0.72460  0.02700  Biso   1.000  O
  O7       1.0000 0.40500  0.41200  0.90840  Biso   1.000  O
  O8       1.0000 0.59500  0.58800  0.09160  Biso   1.000  O
  O9       1.0000 0.78090  0.05970  0.14370  Biso   1.000  O
  O10      1.0000 0.21910  0.94030  0.85630  Biso   1.000  O
  O11      1.0000 0.70030  0.12140  0.29420  Biso   1.000  O
  O12      1.0000 0.29970  0.87860  0.70580  Biso   1.000  O
  O13      1.0000 0.93630  0.88770  0.93140  Biso   1.000  O
  O14      1.0000 0.06370  0.11230  0.06860  Biso   1.000  O
  O15      1.0000 0.09190  0.74390  0.99920  Biso   1.000  O
  O16      1.0000 0.90810  0.25610  0.00080  Biso   1.000  O
  N1       1.0000 0.72570  0.10860  0.66900  Biso   1.000  N
  N2       1.0000 0.27430  0.89140  0.33100  Biso   1.000  N
  N3       1.0000 0.47670  0.38240  0.60550  Biso   1.000  N
  N4       1.0000 0.52330  0.61760  0.39450  Biso   1.000  N
  N5       1.0000 0.52360  0.33970  0.50830  Biso   1.000  N
  N6       1.0000 0.47640  0.66030  0.49170  Biso   1.000  N
  N7       1.0000 0.42080  0.43200  0.24470  Biso   1.000  N
  N8       1.0000 0.57920  0.56800  0.75530  Biso   1.000  N
  N9       1.0000 0.31480  0.52180  0.20350  Biso   1.000  N
  N10      1.0000 0.68520  0.47820  0.79650  Biso   1.000  N
  N11      1.0000 0.47310  0.36200  0.98150  Biso   1.000  N
  N12      1.0000 0.52690  0.63800  0.01850  Biso   1.000  N
  N13      1.0000 0.04820  0.78560  0.29890  Biso   1.000  N
  N14      1.0000 0.95180  0.21440  0.70110  Biso   1.000  N
  N15      1.0000 0.99570  0.82500  0.39740  Biso   1.000  N
  N16      1.0000 0.00430  0.17500  0.60260  Biso   1.000  N
  N17      1.0000 0.78180  0.05000  0.23840  Biso   1.000  N
  N18      1.0000 0.21820  0.95000  0.76160  Biso   1.000  N
  N19      1.0000 0.09870  0.73370  0.65960  Biso   1.000  N
  N20      1.0000 0.90130  0.26630  0.34040  Biso   1.000  N
  N21      1.0000 0.19830  0.63860  0.70310  Biso   1.000  N
  N22      1.0000 0.80170  0.36140  0.29690  Biso   1.000  N
  N23      1.0000 0.03360  0.79740  0.92490  Biso   1.000  N
  N24      1.0000 0.96640  0.20260  0.07510  Biso   1.000  N
  C1       1.0000 0.54590  0.30430  0.67320  Biso   1.000  C
  C2       1.0000 0.45410  0.69570  0.32680  Biso   1.000  C
  H1       1.0000 0.53420  0.31070  0.74400  Biso   1.000  H
  H2       1.0000 0.46580  0.68930  0.25600  Biso   1.000  H
  C3       1.0000 0.63750  0.21260  0.62290  Biso   1.000  C
  C4       1.0000 0.36250  0.78740  0.37710  Biso   1.000  C
  C5       1.0000 0.62060  0.23770  0.52080  Biso   1.000  C
  C6       1.0000 0.37940  0.76230  0.47920  Biso   1.000  C
  H3       1.0000 0.66940  0.19060  0.46810  Biso   1.000  H
  H4       1.0000 0.33060  0.80940  0.53190  Biso   1.000  H
  C7       1.0000 0.48890  0.36440  0.16870  Biso   1.000  C
  C8       1.0000 0.51110  0.63560  0.83130  Biso   1.000  C
  H5       1.0000 0.56450  0.29720  0.17560  Biso   1.000  H
  H6       1.0000 0.43550  0.70280  0.82440  Biso   1.000  H
  C9       1.0000 0.43080  0.40880  0.07970  Biso   1.000  C
  C10      1.0000 0.56920  0.59120  0.92030  Biso   1.000  C
  C11      1.0000 0.32010  0.50740  0.10400  Biso   1.000  C
  C12      1.0000 0.67990  0.49260  0.89600  Biso   1.000  C
  H7       1.0000 0.25980  0.55530  0.05840  Biso   1.000  H
  H8       1.0000 0.74020  0.44470  0.94160  Biso   1.000  H
  C13      1.0000 0.97720  0.86250  0.23190  Biso   1.000  C
  C14      1.0000 0.02280  0.13750  0.76810  Biso   1.000  C
  H9       1.0000 0.99160  0.85750  0.16080  Biso   1.000  H
  H10      1.0000 0.00840  0.14250  0.83920  Biso   1.000  H
  C15      1.0000 0.87950  0.95070  0.28200  Biso   1.000  C
  C16      1.0000 0.12050  0.04930  0.71800  Biso   1.000  C
  C17      1.0000 0.89470  0.92530  0.38520  Biso   1.000  C
  C18      1.0000 0.10530  0.07470  0.61480  Biso   1.000  C
  H11      1.0000 0.84270  0.97100  0.43800  Biso   1.000  H
  H12      1.0000 0.15730  0.02900  0.56200  Biso   1.000  H
  C19      1.0000 0.02790  0.80140  0.73370  Biso   1.000  C
  C20      1.0000 0.97210  0.19860  0.26630  Biso   1.000  C
  H13      1.0000 0.95600  0.87070  0.72490  Biso   1.000  H
  H14      1.0000 0.04400  0.12930  0.27510  Biso   1.000  H
  C21      1.0000 0.07870  0.75200  0.82660  Biso   1.000  C
  C22      1.0000 0.92130  0.24800  0.17340  Biso   1.000  C
  C23      1.0000 0.18560  0.65300  0.80310  Biso   1.000  C
  C24      1.0000 0.81440  0.34700  0.19690  Biso   1.000  C
  H15      1.0000 0.24130  0.60310  0.85050  Biso   1.000  H
  H16      1.0000 0.75870  0.39690  0.14950  Biso   1.000  H
  Cu9      1.0000 0.19608  0.32725  0.55789  Biso   1.000  Cu
  Cu10     1.0000 0.80392  0.67275  0.44211  Biso   1.000  Cu
  Cu11     1.0000 0.07534  0.44346  0.32173  Biso   1.000  Cu
  Cu12     1.0000 0.92466  0.55654  0.67827  Biso   1.000  Cu
  O17      1.0000 0.16210  0.33030  0.04060  Biso   1.000  O
  O18      1.0000 0.83790  0.66970  0.95940  Biso   1.000  O
  O19      1.0000 0.32310  0.18810  0.96820  Biso   1.000  O
  O20      1.0000 0.67690  0.81190  0.03180  Biso   1.000  O
  O21      1.0000 0.54170  0.95590  0.32260  Biso   1.000  O
  O22      1.0000 0.45830  0.04410  0.67740  Biso   1.000  O
  O23      1.0000 0.47810  0.03700  0.17330  Biso   1.000  O
  O24      1.0000 0.52190  0.96300  0.82670  Biso   1.000  O
  N25      1.0000 0.22210  0.27830  0.96420  Biso   1.000  N
  N26      1.0000 0.77790  0.72170  0.03580  Biso   1.000  N
  N27      1.0000 0.05670  0.43610  0.74610  Biso   1.000  N
  N28      1.0000 0.94330  0.56390  0.25390  Biso   1.000  N
  N29      1.0000 0.16310  0.34730  0.70000  Biso   1.000  N
  N30      1.0000 0.83690  0.65270  0.30000  Biso   1.000  N
  N31      1.0000 0.26110  0.25300  0.43540  Biso   1.000  N
  N32      1.0000 0.73890  0.74700  0.56460  Biso   1.000  N
  N33      1.0000 0.21190  0.30000  0.34060  Biso   1.000  N
  N34      1.0000 0.78810  0.70000  0.65940  Biso   1.000  N
  N35      1.0000 0.47060  0.03660  0.26900  Biso   1.000  N
  N36      1.0000 0.52940  0.96340  0.73100  Biso   1.000  N
  C25      1.0000 0.06570  0.42180  0.84670  Biso   1.000  C
  C26      1.0000 0.93430  0.57820  0.15330  Biso   1.000  C
  H17      1.0000 0.00690  0.47000  0.89560  Biso   1.000  H
  H18      1.0000 0.99310  0.53000  0.10440  Biso   1.000  H
  C27      1.0000 0.17610  0.32400  0.86720  Biso   1.000  C
  C28      1.0000 0.82390  0.67600  0.13280  Biso   1.000  C
  C29      1.0000 0.23470  0.27950  0.77270  Biso   1.000  C
  C30      1.0000 0.76530  0.72050  0.22730  Biso   1.000  C
  H19      1.0000 0.31140  0.21330  0.76230  Biso   1.000  H
  H20      1.0000 0.68860  0.78670  0.23770  Biso   1.000  H
  C31      1.0000 0.36000  0.15200  0.41920  Biso   1.000  C
  C32      1.0000 0.64000  0.84800  0.58080  Biso   1.000  C
  H21      1.0000 0.40990  0.10200  0.46930  Biso   1.000  H
  H22      1.0000 0.59010  0.89800  0.53070  Biso   1.000  H
  C33      1.0000 0.37610  0.13390  0.31560  Biso   1.000  C
  C34      1.0000 0.62390  0.86610  0.68440  Biso   1.000  C
  C35      1.0000 0.28150  0.22800  0.27030  Biso   1.000  C
  C36      1.0000 0.71850  0.77200  0.72970  Biso   1.000  C
  H23      1.0000 0.26870  0.23890  0.20060  Biso   1.000  H
  H24      1.0000 0.73130  0.76110  0.79940  Biso   1.000  H
