data_image0
_cell_length_a       10.327
_cell_length_b       13.165
_cell_length_c       13.182
_cell_angle_alpha    89.986
_cell_angle_beta     81.289
_cell_angle_gamma    68.559

_symmetry_space_group_name_H-M    "P 1"
_symmetry_int_tables_number       1

loop_
  _symmetry_equiv_pos_as_xyz
  'x, y, z'

loop_
  _atom_site_label
  _atom_site_occupancy
  _atom_site_fract_x
  _atom_site_fract_y
  _atom_site_fract_z
  _atom_site_thermal_displace_type
  _atom_site_B_iso_or_equiv
  _atom_site_type_symbol
  Br1      1.0000 0.29290  0.05139  0.52640  Biso   1.000  Br
  Br2      1.0000 0.70710  0.94861  0.47360  Biso   1.000  Br
  Cu1      1.0000 0.17197  0.15332  0.72000  Biso   1.000  Cu
  Cu2      1.0000 0.82803  0.84668  0.28000  Biso   1.000  Cu
  Cu3      1.0000 0.17549  0.26449  0.47713  Biso   1.000  Cu
  Cu4      1.0000 0.82451  0.73551  0.52287  Biso   1.000  Cu
  Cu5      1.0000 0.15079  0.02923  0.36738  Biso   1.000  Cu
  Cu6      1.0000 0.84921  0.97077  0.63262  Biso   1.000  Cu
  Cu7      1.0000 0.14666  0.91749  0.61120  Biso   1.000  Cu
  Cu8      1.0000 0.85334  0.08251  0.38880  Biso   1.000  Cu
  Na1      1.0000 0.29280  0.55540  0.02680  Biso   1.000  Na
  Na2      1.0000 0.70720  0.44460  0.97320  Biso   1.000  Na
  O1       1.0000 0.15520  0.78340  0.02140  Biso   1.000  O
  O2       1.0000 0.84480  0.21660  0.97860  Biso   1.000  O
  O3       1.0000 0.18200  0.92300  0.08620  Biso   1.000  O
  O4       1.0000 0.81800  0.07700  0.91380  Biso   1.000  O
  O5       1.0000 0.16350  0.56710  0.85190  Biso   1.000  O
  O6       1.0000 0.83650  0.43290  0.14810  Biso   1.000  O
  O7       1.0000 0.18120  0.63030  0.70150  Biso   1.000  O
  O8       1.0000 0.81880  0.36970  0.29850  Biso   1.000  O
  O9       1.0000 0.16660  0.40010  0.06810  Biso   1.000  O
  O10      1.0000 0.83340  0.59990  0.93190  Biso   1.000  O
  O11      1.0000 0.16270  0.25360  0.00000  Biso   1.000  O
  O12      1.0000 0.83730  0.74640  0.00000  Biso   1.000  O
  O13      1.0000 0.17490  0.61230  0.23270  Biso   1.000  O
  O14      1.0000 0.82510  0.38770  0.76730  Biso   1.000  O
  O15      1.0000 0.17410  0.54300  0.38150  Biso   1.000  O
  O16      1.0000 0.82590  0.45700  0.61850  Biso   1.000  O
  N1       1.0000 0.16860  0.87210  0.01320  Biso   1.000  N
  N2       1.0000 0.83140  0.12790  0.98680  Biso   1.000  N
  N3       1.0000 0.15030  0.94100  0.75210  Biso   1.000  N
  N4       1.0000 0.84970  0.05900  0.24790  Biso   1.000  N
  N5       1.0000 0.16070  0.03350  0.79400  Biso   1.000  N
  N6       1.0000 0.83930  0.96650  0.20600  Biso   1.000  N
  N7       1.0000 0.16330  0.29730  0.69790  Biso   1.000  N
  N8       1.0000 0.83670  0.70270  0.30210  Biso   1.000  N
  N9       1.0000 0.17050  0.33850  0.60100  Biso   1.000  N
  N10      1.0000 0.82950  0.66150  0.39900  Biso   1.000  N
  N11      1.0000 0.17140  0.55730  0.75820  Biso   1.000  N
  N12      1.0000 0.82860  0.44270  0.24180  Biso   1.000  N
  N13      1.0000 0.15880  0.24670  0.33810  Biso   1.000  N
  N14      1.0000 0.84120  0.75330  0.66190  Biso   1.000  N
  N15      1.0000 0.15580  0.15170  0.29450  Biso   1.000  N
  N16      1.0000 0.84420  0.84830  0.70550  Biso   1.000  N
  N17      1.0000 0.16370  0.31010  0.07330  Biso   1.000  N
  N18      1.0000 0.83630  0.68990  0.92670  Biso   1.000  N
  N19      1.0000 0.13830  0.89160  0.39310  Biso   1.000  N
  N20      1.0000 0.86170  0.10840  0.60690  Biso   1.000  N
  N21      1.0000 0.13930  0.84780  0.48840  Biso   1.000  N
  N22      1.0000 0.86070  0.15220  0.51160  Biso   1.000  N
  N23      1.0000 0.16680  0.62050  0.32590  Biso   1.000  N
  N24      1.0000 0.83320  0.37950  0.67410  Biso   1.000  N
  C1       1.0000 0.15020  0.87240  0.82490  Biso   1.000  C
  C2       1.0000 0.84980  0.12760  0.17510  Biso   1.000  C
  H1       1.0000 0.14290  0.80460  0.81710  Biso   1.000  H
  H2       1.0000 0.85710  0.19540  0.18290  Biso   1.000  H
  C3       1.0000 0.16300  0.91920  0.91540  Biso   1.000  C
  C4       1.0000 0.83700  0.08080  0.08460  Biso   1.000  C
  C5       1.0000 0.17010  0.01940  0.89300  Biso   1.000  C
  C6       1.0000 0.82990  0.98060  0.10700  Biso   1.000  C
  H3       1.0000 0.17990  0.06870  0.93900  Biso   1.000  H
  H4       1.0000 0.82010  0.93130  0.06100  Biso   1.000  H
  C7       1.0000 0.16150  0.37230  0.76610  Biso   1.000  C
  C8       1.0000 0.83850  0.62770  0.23390  Biso   1.000  C
  H5       1.0000 0.15700  0.36540  0.83660  Biso   1.000  H
  H6       1.0000 0.84300  0.63460  0.16340  Biso   1.000  H
  C9       1.0000 0.16740  0.46160  0.71490  Biso   1.000  C
  C10      1.0000 0.83260  0.53840  0.28510  Biso   1.000  C
  C11      1.0000 0.17200  0.43790  0.61290  Biso   1.000  C
  C12      1.0000 0.82800  0.56210  0.38710  Biso   1.000  C
  H7       1.0000 0.17550  0.48440  0.56030  Biso   1.000  H
  H8       1.0000 0.82450  0.51560  0.43970  Biso   1.000  H
  C13      1.0000 0.16260  0.31280  0.26380  Biso   1.000  C
  C14      1.0000 0.83740  0.68720  0.73620  Biso   1.000  C
  H9       1.0000 0.16540  0.38200  0.27220  Biso   1.000  H
  H10      1.0000 0.83460  0.61800  0.72780  Biso   1.000  H
  C15      1.0000 0.16170  0.26420  0.17190  Biso   1.000  C
  C16      1.0000 0.83830  0.73580  0.82810  Biso   1.000  C
  C17      1.0000 0.15780  0.16260  0.19460  Biso   1.000  C
  C18      1.0000 0.84220  0.83740  0.80540  Biso   1.000  C
  H11      1.0000 0.15670  0.11050  0.14740  Biso   1.000  H
  H12      1.0000 0.84330  0.88950  0.85260  Biso   1.000  H
  C19      1.0000 0.14470  0.81740  0.32450  Biso   1.000  C
  C20      1.0000 0.85530  0.18260  0.67550  Biso   1.000  C
  H13      1.0000 0.14470  0.82670  0.25450  Biso   1.000  H
  H14      1.0000 0.85530  0.17330  0.74550  Biso   1.000  H
  C21      1.0000 0.15150  0.72230  0.37350  Biso   1.000  C
  C22      1.0000 0.84850  0.27770  0.62650  Biso   1.000  C
  C23      1.0000 0.14740  0.74520  0.47510  Biso   1.000  C
  C24      1.0000 0.85260  0.25480  0.52490  Biso   1.000  C
  H15      1.0000 0.14990  0.69680  0.52690  Biso   1.000  H
  H16      1.0000 0.85010  0.30320  0.47310  Biso   1.000  H
  Cu9      1.0000 0.49524  0.94133  0.67707  Biso   1.000  Cu
  Cu10     1.0000 0.50476  0.05867  0.32293  Biso   1.000  Cu
  Cu11     1.0000 0.48673  0.82538  0.44099  Biso   1.000  Cu
  Cu12     1.0000 0.51327  0.17462  0.55901  Biso   1.000  Cu
  O17      1.0000 0.50180  0.46050  0.67460  Biso   1.000  O
  O18      1.0000 0.49820  0.53950  0.32540  Biso   1.000  O
  O19      1.0000 0.49810  0.53560  0.82370  Biso   1.000  O
  O20      1.0000 0.50190  0.46440  0.17630  Biso   1.000  O
  O21      1.0000 0.49550  0.17430  0.03820  Biso   1.000  O
  O22      1.0000 0.50450  0.82570  0.96180  Biso   1.000  O
  O23      1.0000 0.50280  0.32030  0.96500  Biso   1.000  O
  O24      1.0000 0.49720  0.67970  0.03500  Biso   1.000  O
  N25      1.0000 0.49820  0.53900  0.72950  Biso   1.000  N
  N26      1.0000 0.50180  0.46100  0.27050  Biso   1.000  N
  N27      1.0000 0.49960  0.22820  0.96320  Biso   1.000  N
  N28      1.0000 0.50040  0.77180  0.03680  Biso   1.000  N
  N29      1.0000 0.50820  0.15500  0.70100  Biso   1.000  N
  N30      1.0000 0.49180  0.84500  0.29900  Biso   1.000  N
  N31      1.0000 0.50160  0.06290  0.74720  Biso   1.000  N
  N32      1.0000 0.49840  0.93710  0.25280  Biso   1.000  N
  N33      1.0000 0.49430  0.80050  0.65710  Biso   1.000  N
  N34      1.0000 0.50570  0.19950  0.34290  Biso   1.000  N
  N35      1.0000 0.49170  0.75470  0.56450  Biso   1.000  N
  N36      1.0000 0.50830  0.24530  0.43550  Biso   1.000  N
  C25      1.0000 0.49380  0.65470  0.57860  Biso   1.000  C
  C26      1.0000 0.50620  0.34530  0.42140  Biso   1.000  C
  H17      1.0000 0.49390  0.60600  0.52760  Biso   1.000  H
  H18      1.0000 0.50610  0.39400  0.47240  Biso   1.000  H
  C27      1.0000 0.49590  0.63410  0.68150  Biso   1.000  C
  C28      1.0000 0.50410  0.36590  0.31850  Biso   1.000  C
  C29      1.0000 0.49660  0.72990  0.72790  Biso   1.000  C
  C30      1.0000 0.50340  0.27010  0.27210  Biso   1.000  C
  H19      1.0000 0.49850  0.74150  0.79720  Biso   1.000  H
  H20      1.0000 0.50150  0.25850  0.20280  Biso   1.000  H
  C31      1.0000 0.49670  0.07730  0.84580  Biso   1.000  C
  C32      1.0000 0.50330  0.92270  0.15420  Biso   1.000  C
  H21      1.0000 0.49140  0.02700  0.89430  Biso   1.000  H
  H22      1.0000 0.50860  0.97300  0.10570  Biso   1.000  H
  C33      1.0000 0.50060  0.17970  0.86730  Biso   1.000  C
  C34      1.0000 0.49940  0.82030  0.13270  Biso   1.000  C
  C35      1.0000 0.50830  0.22510  0.77340  Biso   1.000  C
  C36      1.0000 0.49170  0.77490  0.22660  Biso   1.000  C
  H23      1.0000 0.51280  0.29360  0.76250  Biso   1.000  H
  H24      1.0000 0.48720  0.70640  0.23750  Biso   1.000  H
