data_image0
_cell_length_a       10.2886
_cell_length_b       13.1326
_cell_length_c       13.1248
_cell_angle_alpha    89.9
_cell_angle_beta     68.551
_cell_angle_gamma    81.119

_symmetry_space_group_name_H-M    "P 1"
_symmetry_int_tables_number       1

loop_
  _symmetry_equiv_pos_as_xyz
  'x, y, z'

loop_
  _atom_site_label
  _atom_site_occupancy
  _atom_site_fract_x
  _atom_site_fract_y
  _atom_site_fract_z
  _atom_site_thermal_displace_type
  _atom_site_B_iso_or_equiv
  _atom_site_type_symbol
  Br1      1.0000 0.79177  0.52651  0.05321  Biso   1.000  Br
  Br2      1.0000 0.20823  0.47349  0.94679  Biso   1.000  Br
  Cu1      1.0000 0.65087  0.36665  0.03168  Biso   1.000  Cu
  Cu2      1.0000 0.34913  0.63335  0.96832  Biso   1.000  Cu
  Cu3      1.0000 0.64637  0.61072  0.91825  Biso   1.000  Cu
  Cu4      1.0000 0.35363  0.38928  0.08175  Biso   1.000  Cu
  Cu5      1.0000 0.66800  0.72094  0.15578  Biso   1.000  Cu
  Cu6      1.0000 0.33200  0.27906  0.84422  Biso   1.000  Cu
  Cu7      1.0000 0.67416  0.47740  0.26753  Biso   1.000  Cu
  Cu8      1.0000 0.32584  0.52260  0.73247  Biso   1.000  Cu
  K1       1.0000 0.78930  0.02696  0.55689  Biso   1.000  K
  K2       1.0000 0.21070  0.97304  0.44311  Biso   1.000  K
  O1       1.0000 0.68010  0.22850  0.61330  Biso   1.000  O
  O2       1.0000 0.31990  0.77150  0.38670  Biso   1.000  O
  O3       1.0000 0.67480  0.37870  0.54310  Biso   1.000  O
  O4       1.0000 0.32520  0.62130  0.45690  Biso   1.000  O
  O5       1.0000 0.66710  0.02070  0.77890  Biso   1.000  O
  O6       1.0000 0.33290  0.97930  0.22110  Biso   1.000  O
  O7       1.0000 0.68360  0.08630  0.92350  Biso   1.000  O
  O8       1.0000 0.31640  0.91370  0.07650  Biso   1.000  O
  O9       1.0000 0.66820  0.85490  0.56780  Biso   1.000  O
  O10      1.0000 0.33180  0.14510  0.43220  Biso   1.000  O
  O11      1.0000 0.68260  0.70410  0.63310  Biso   1.000  O
  O12      1.0000 0.31740  0.29590  0.36690  Biso   1.000  O
  O13      1.0000 0.66740  0.06690  0.40540  Biso   1.000  O
  O14      1.0000 0.33260  0.93310  0.59460  Biso   1.000  O
  O15      1.0000 0.65850  0.99880  0.25970  Biso   1.000  O
  O16      1.0000 0.34150  0.00120  0.74030  Biso   1.000  O
  N1       1.0000 0.63930  0.39170  0.89330  Biso   1.000  N
  N2       1.0000 0.36070  0.60830  0.10670  Biso   1.000  N
  N3       1.0000 0.63980  0.48690  0.84810  Biso   1.000  N
  N4       1.0000 0.36020  0.51310  0.15190  Biso   1.000  N
  N5       1.0000 0.67040  0.32330  0.61960  Biso   1.000  N
  N6       1.0000 0.32960  0.67670  0.38040  Biso   1.000  N
  N7       1.0000 0.64900  0.75220  0.94110  Biso   1.000  N
  N8       1.0000 0.35100  0.24780  0.05890  Biso   1.000  N
  N9       1.0000 0.65890  0.79480  0.03440  Biso   1.000  N
  N10      1.0000 0.34110  0.20520  0.96560  Biso   1.000  N
  N11      1.0000 0.67180  0.01390  0.87100  Biso   1.000  N
  N12      1.0000 0.32820  0.98610  0.12900  Biso   1.000  N
  N13      1.0000 0.65990  0.69890  0.29960  Biso   1.000  N
  N14      1.0000 0.34010  0.30110  0.70040  Biso   1.000  N
  N15      1.0000 0.66940  0.60140  0.34100  Biso   1.000  N
  N16      1.0000 0.33060  0.39860  0.65900  Biso   1.000  N
  N17      1.0000 0.67180  0.76070  0.56070  Biso   1.000  N
  N18      1.0000 0.32820  0.23930  0.43930  Biso   1.000  N
  N19      1.0000 0.65780  0.33850  0.24970  Biso   1.000  N
  N20      1.0000 0.34220  0.66150  0.75030  Biso   1.000  N
  N21      1.0000 0.65470  0.29400  0.15590  Biso   1.000  N
  N22      1.0000 0.34530  0.70600  0.84410  Biso   1.000  N
  N23      1.0000 0.66140  0.07370  0.31450  Biso   1.000  N
  N24      1.0000 0.33860  0.92630  0.68550  Biso   1.000  N
  C1       1.0000 0.64800  0.32220  0.81670  Biso   1.000  C
  C2       1.0000 0.35200  0.67780  0.18330  Biso   1.000  C
  H1       1.0000 0.64990  0.25180  0.82580  Biso   1.000  H
  H2       1.0000 0.35010  0.74820  0.17420  Biso   1.000  H
  C3       1.0000 0.65380  0.36970  0.72170  Biso   1.000  C
  C4       1.0000 0.34620  0.63030  0.27830  Biso   1.000  C
  C5       1.0000 0.64740  0.47450  0.74530  Biso   1.000  C
  C6       1.0000 0.35260  0.52550  0.25470  Biso   1.000  C
  H3       1.0000 0.64830  0.52680  0.69730  Biso   1.000  H
  H4       1.0000 0.35170  0.47320  0.30270  Biso   1.000  H
  C7       1.0000 0.65350  0.82560  0.87310  Biso   1.000  C
  C8       1.0000 0.34650  0.17440  0.12690  Biso   1.000  C
  H5       1.0000 0.65000  0.81750  0.80390  Biso   1.000  H
  H6       1.0000 0.35000  0.18250  0.19610  Biso   1.000  H
  C9       1.0000 0.66420  0.91600  0.91850  Biso   1.000  C
  C10      1.0000 0.33580  0.08400  0.08150  Biso   1.000  C
  C11      1.0000 0.66650  0.89440  0.01950  Biso   1.000  C
  C12      1.0000 0.33350  0.10560  0.98050  Biso   1.000  C
  H7       1.0000 0.67250  0.94150  0.06980  Biso   1.000  H
  H8       1.0000 0.32750  0.05850  0.93020  Biso   1.000  H
  C13      1.0000 0.65960  0.76710  0.37410  Biso   1.000  C
  C14      1.0000 0.34040  0.23290  0.62590  Biso   1.000  C
  H9       1.0000 0.65400  0.83800  0.36710  Biso   1.000  H
  H10      1.0000 0.34600  0.16200  0.63290  Biso   1.000  H
  C15      1.0000 0.66880  0.71630  0.46360  Biso   1.000  C
  C16      1.0000 0.33120  0.28370  0.53640  Biso   1.000  C
  C17      1.0000 0.67200  0.61290  0.44110  Biso   1.000  C
  C18      1.0000 0.32800  0.38710  0.55890  Biso   1.000  C
  H11      1.0000 0.67540  0.56030  0.48800  Biso   1.000  H
  H12      1.0000 0.32460  0.43970  0.51200  Biso   1.000  H
  C19      1.0000 0.66130  0.26370  0.31750  Biso   1.000  C
  C20      1.0000 0.33870  0.73630  0.68250  Biso   1.000  C
  H13      1.0000 0.66410  0.27250  0.38690  Biso   1.000  H
  H14      1.0000 0.33590  0.72750  0.61310  Biso   1.000  H
  C21      1.0000 0.66000  0.17080  0.26910  Biso   1.000  C
  C22      1.0000 0.34000  0.82920  0.73090  Biso   1.000  C
  C23      1.0000 0.65550  0.19340  0.16710  Biso   1.000  C
  C24      1.0000 0.34450  0.80660  0.83290  Biso   1.000  C
  H15      1.0000 0.65350  0.14610  0.11530  Biso   1.000  H
  H16      1.0000 0.34650  0.85390  0.88470  Biso   1.000  H
  Cu9      1.0000 0.98818  0.44242  0.82394  Biso   1.000  Cu
  Cu10     1.0000 0.01182  0.55758  0.17606  Biso   1.000  Cu
  Cu11     1.0000 0.99650  0.67788  0.94250  Biso   1.000  Cu
  Cu12     1.0000 0.00350  0.32212  0.05750  Biso   1.000  Cu
  O17      1.0000 0.00660  0.96110  0.81970  Biso   1.000  O
  O18      1.0000 0.99340  0.03890  0.18030  Biso   1.000  O
  O19      1.0000 0.00280  0.03540  0.67270  Biso   1.000  O
  O20      1.0000 0.99720  0.96460  0.32730  Biso   1.000  O
  O21      1.0000 0.00130  0.68280  0.46150  Biso   1.000  O
  O22      1.0000 0.99870  0.31720  0.53850  Biso   1.000  O
  O23      1.0000 0.99570  0.83060  0.53930  Biso   1.000  O
  O24      1.0000 0.00430  0.16940  0.46070  Biso   1.000  O
  N25      1.0000 0.99880  0.25390  0.93420  Biso   1.000  N
  N26      1.0000 0.00120  0.74610  0.06580  Biso   1.000  N
  N27      1.0000 0.99350  0.30080  0.84170  Biso   1.000  N
  N28      1.0000 0.00650  0.69920  0.15830  Biso   1.000  N
  N29      1.0000 0.00450  0.03850  0.76700  Biso   1.000  N
  N30      1.0000 0.99550  0.96150  0.23300  Biso   1.000  N
  N31      1.0000 0.99120  0.56730  0.75440  Biso   1.000  N
  N32      1.0000 0.00880  0.43270  0.24560  Biso   1.000  N
  N33      1.0000 0.99460  0.66020  0.80160  Biso   1.000  N
  N34      1.0000 0.00540  0.33980  0.19840  Biso   1.000  N
  N35      1.0000 0.99960  0.73570  0.53900  Biso   1.000  N
  N36      1.0000 0.00040  0.26430  0.46100  Biso   1.000  N
  C25      1.0000 0.00430  0.15310  0.91720  Biso   1.000  C
  C26      1.0000 0.99570  0.84690  0.08280  Biso   1.000  C
  H17      1.0000 0.00980  0.10300  0.96630  Biso   1.000  H
  H18      1.0000 0.99020  0.89700  0.03370  Biso   1.000  H
  C27      1.0000 0.00040  0.13490  0.81550  Biso   1.000  C
  C28      1.0000 0.99960  0.86510  0.18450  Biso   1.000  C
  C29      1.0000 0.99470  0.22870  0.77090  Biso   1.000  C
  C30      1.0000 0.00530  0.77130  0.22910  Biso   1.000  C
  H19      1.0000 0.99200  0.24010  0.70170  Biso   1.000  H
  H20      1.0000 0.00800  0.75990  0.29830  Biso   1.000  H
  C31      1.0000 0.99370  0.58220  0.65350  Biso   1.000  C
  C32      1.0000 0.00630  0.41780  0.34650  Biso   1.000  C
  H21      1.0000 0.99320  0.53180  0.60400  Biso   1.000  H
  H22      1.0000 0.00680  0.46820  0.39600  Biso   1.000  H
  C33      1.0000 0.99700  0.68630  0.63510  Biso   1.000  C
  C34      1.0000 0.00300  0.31370  0.36490  Biso   1.000  C
  C35      1.0000 0.99640  0.73160  0.73050  Biso   1.000  C
  C36      1.0000 0.00360  0.26840  0.26950  Biso   1.000  C
  H23      1.0000 0.99710  0.80120  0.74260  Biso   1.000  H
  H24      1.0000 0.00290  0.19880  0.25740  Biso   1.000  H
