data_image0
_cell_length_a       10.397
_cell_length_b       13.176
_cell_length_c       13.196
_cell_angle_alpha    89.966
_cell_angle_beta     81.245
_cell_angle_gamma    69.982

_symmetry_space_group_name_H-M    "P 1"
_symmetry_int_tables_number       1

loop_
  _symmetry_equiv_pos_as_xyz
  'x, y, z'

loop_
  _atom_site_label
  _atom_site_occupancy
  _atom_site_fract_x
  _atom_site_fract_y
  _atom_site_fract_z
  _atom_site_thermal_displace_type
  _atom_site_B_iso_or_equiv
  _atom_site_type_symbol
  I1       1.0000 0.29434  0.55594  0.52634  Biso   1.000  I
  I2       1.0000 0.70566  0.44406  0.47366  Biso   1.000  I
  Cu1      1.0000 0.14504  0.53550  0.36703  Biso   1.000  Cu
  Cu2      1.0000 0.85496  0.46450  0.63297  Biso   1.000  Cu
  Cu3      1.0000 0.16612  0.77385  0.47784  Biso   1.000  Cu
  Cu4      1.0000 0.83388  0.22615  0.52216  Biso   1.000  Cu
  Cu5      1.0000 0.16164  0.66194  0.72286  Biso   1.000  Cu
  Cu6      1.0000 0.83836  0.33806  0.27714  Biso   1.000  Cu
  Cu7      1.0000 0.14212  0.42243  0.61232  Biso   1.000  Cu
  Cu8      1.0000 0.85788  0.57757  0.38768  Biso   1.000  Cu
  Na1      1.0000 0.29530  0.05880  0.02560  Biso   1.000  Na
  Na2      1.0000 0.70470  0.94120  0.97440  Biso   1.000  Na
  O1       1.0000 0.15880  0.76120  0.99950  Biso   1.000  O
  O2       1.0000 0.84120  0.23880  0.00050  Biso   1.000  O
  O3       1.0000 0.16250  0.90950  0.06880  Biso   1.000  O
  O4       1.0000 0.83750  0.09050  0.93120  Biso   1.000  O
  O5       1.0000 0.18160  0.13600  0.70270  Biso   1.000  O
  O6       1.0000 0.81840  0.86400  0.29730  Biso   1.000  O
  O7       1.0000 0.16480  0.07330  0.85320  Biso   1.000  O
  O8       1.0000 0.83520  0.92670  0.14680  Biso   1.000  O
  O9       1.0000 0.18270  0.43000  0.08720  Biso   1.000  O
  O10      1.0000 0.81730  0.57000  0.91280  Biso   1.000  O
  O11      1.0000 0.16670  0.28440  0.02090  Biso   1.000  O
  O12      1.0000 0.83330  0.71560  0.97910  Biso   1.000  O
  O13      1.0000 0.17800  0.04680  0.37980  Biso   1.000  O
  O14      1.0000 0.82200  0.95320  0.62020  Biso   1.000  O
  O15      1.0000 0.17840  0.11590  0.23190  Biso   1.000  O
  O16      1.0000 0.82160  0.88410  0.76810  Biso   1.000  O
  N1       1.0000 0.14900  0.65930  0.29420  Biso   1.000  N
  N2       1.0000 0.85100  0.34070  0.70580  Biso   1.000  N
  N3       1.0000 0.15230  0.75350  0.33800  Biso   1.000  N
  N4       1.0000 0.84770  0.24650  0.66200  Biso   1.000  N
  N5       1.0000 0.16020  0.81540  0.07410  Biso   1.000  N
  N6       1.0000 0.83980  0.18460  0.92590  Biso   1.000  N
  N7       1.0000 0.16220  0.84800  0.60290  Biso   1.000  N
  N8       1.0000 0.83780  0.15200  0.39710  Biso   1.000  N
  N9       1.0000 0.15550  0.80540  0.69890  Biso   1.000  N
  N10      1.0000 0.84450  0.19460  0.30110  Biso   1.000  N
  N11      1.0000 0.17100  0.06450  0.75950  Biso   1.000  N
  N12      1.0000 0.82900  0.93550  0.24050  Biso   1.000  N
  N13      1.0000 0.15270  0.54050  0.79660  Biso   1.000  N
  N14      1.0000 0.84730  0.45950  0.20340  Biso   1.000  N
  N15      1.0000 0.14560  0.44610  0.75460  Biso   1.000  N
  N16      1.0000 0.85440  0.55390  0.24540  Biso   1.000  N
  N17      1.0000 0.17290  0.37580  0.01380  Biso   1.000  N
  N18      1.0000 0.82710  0.62420  0.98620  Biso   1.000  N
  N19      1.0000 0.13600  0.35110  0.48730  Biso   1.000  N
  N20      1.0000 0.86400  0.64890  0.51270  Biso   1.000  N
  N21      1.0000 0.13560  0.39630  0.39320  Biso   1.000  N
  N22      1.0000 0.86440  0.60370  0.60680  Biso   1.000  N
  N23      1.0000 0.17040  0.12370  0.32550  Biso   1.000  N
  N24      1.0000 0.82960  0.87630  0.67450  Biso   1.000  N
  C1       1.0000 0.15270  0.67050  0.19460  Biso   1.000  C
  C2       1.0000 0.84730  0.32950  0.80540  Biso   1.000  C
  H1       1.0000 0.15260  0.61820  0.14730  Biso   1.000  H
  H2       1.0000 0.84740  0.38180  0.85270  Biso   1.000  H
  C3       1.0000 0.15680  0.77110  0.17120  Biso   1.000  C
  C4       1.0000 0.84320  0.22890  0.82880  Biso   1.000  C
  C5       1.0000 0.15690  0.82090  0.26360  Biso   1.000  C
  C6       1.0000 0.84310  0.17910  0.73640  Biso   1.000  C
  H3       1.0000 0.15970  0.89010  0.27230  Biso   1.000  H
  H4       1.0000 0.84030  0.10990  0.72770  Biso   1.000  H
  C7       1.0000 0.16710  0.94550  0.61390  Biso   1.000  C
  C8       1.0000 0.83290  0.05450  0.38610  Biso   1.000  C
  H5       1.0000 0.17200  0.99120  0.56090  Biso   1.000  H
  H6       1.0000 0.82800  0.00880  0.43910  Biso   1.000  H
  C9       1.0000 0.16380  0.96980  0.71610  Biso   1.000  C
  C10      1.0000 0.83620  0.03020  0.28390  Biso   1.000  C
  C11      1.0000 0.15780  0.87840  0.76590  Biso   1.000  C
  C12      1.0000 0.84220  0.12160  0.23410  Biso   1.000  C
  H7       1.0000 0.15560  0.87010  0.83600  Biso   1.000  H
  H8       1.0000 0.84440  0.12990  0.16400  Biso   1.000  H
  C13      1.0000 0.16150  0.52690  0.89450  Biso   1.000  C
  C14      1.0000 0.83850  0.47310  0.10550  Biso   1.000  C
  H9       1.0000 0.16620  0.57820  0.94080  Biso   1.000  H
  H10      1.0000 0.83380  0.42180  0.05920  Biso   1.000  H
  C15      1.0000 0.16260  0.42420  0.91730  Biso   1.000  C
  C16      1.0000 0.83740  0.57580  0.08270  Biso   1.000  C
  C17      1.0000 0.15290  0.37670  0.82700  Biso   1.000  C
  C18      1.0000 0.84710  0.62330  0.17300  Biso   1.000  C
  H11      1.0000 0.15170  0.30700  0.81870  Biso   1.000  H
  H12      1.0000 0.84830  0.69300  0.18130  Biso   1.000  H
  C19      1.0000 0.14650  0.24870  0.47530  Biso   1.000  C
  C20      1.0000 0.85350  0.75130  0.52470  Biso   1.000  C
  H13      1.0000 0.14840  0.20110  0.52750  Biso   1.000  H
  H14      1.0000 0.85160  0.79890  0.47250  Biso   1.000  H
  C21      1.0000 0.15420  0.22430  0.37180  Biso   1.000  C
  C22      1.0000 0.84580  0.77570  0.62820  Biso   1.000  C
  C23      1.0000 0.14620  0.32020  0.32260  Biso   1.000  C
  C24      1.0000 0.85380  0.67980  0.67740  Biso   1.000  C
  H15      1.0000 0.14810  0.32920  0.25260  Biso   1.000  H
  H16      1.0000 0.85190  0.67080  0.74740  Biso   1.000  H
  Cu9      1.0000 0.49341  0.32374  0.43903  Biso   1.000  Cu
  Cu10     1.0000 0.50659  0.67626  0.56097  Biso   1.000  Cu
  Cu11     1.0000 0.50057  0.56128  0.32307  Biso   1.000  Cu
  Cu12     1.0000 0.49943  0.43872  0.67693  Biso   1.000  Cu
  O17      1.0000 0.49960  0.03170  0.81960  Biso   1.000  O
  O18      1.0000 0.50040  0.96830  0.18040  Biso   1.000  O
  O19      1.0000 0.50300  0.95800  0.67170  Biso   1.000  O
  O20      1.0000 0.49700  0.04200  0.32830  Biso   1.000  O
  O21      1.0000 0.50320  0.18000  0.03070  Biso   1.000  O
  O22      1.0000 0.49680  0.82000  0.96930  Biso   1.000  O
  O23      1.0000 0.50700  0.32740  0.95880  Biso   1.000  O
  O24      1.0000 0.49300  0.67260  0.04120  Biso   1.000  O
  N25      1.0000 0.49560  0.29870  0.65700  Biso   1.000  N
  N26      1.0000 0.50440  0.70130  0.34300  Biso   1.000  N
  N27      1.0000 0.49490  0.25190  0.56370  Biso   1.000  N
  N28      1.0000 0.50510  0.74810  0.43630  Biso   1.000  N
  N29      1.0000 0.50060  0.03520  0.72550  Biso   1.000  N
  N30      1.0000 0.49940  0.96480  0.27450  Biso   1.000  N
  N31      1.0000 0.49400  0.34440  0.29670  Biso   1.000  N
  N32      1.0000 0.50600  0.65560  0.70330  Biso   1.000  N
  N33      1.0000 0.49600  0.43810  0.25160  Biso   1.000  N
  N34      1.0000 0.50400  0.56190  0.74840  Biso   1.000  N
  N35      1.0000 0.50240  0.27410  0.03530  Biso   1.000  N
  N36      1.0000 0.49760  0.72590  0.96470  Biso   1.000  N
  C25      1.0000 0.49750  0.22450  0.72590  Biso   1.000  C
  C26      1.0000 0.50250  0.77550  0.27410  Biso   1.000  C
  H17      1.0000 0.49800  0.23450  0.79560  Biso   1.000  H
  H18      1.0000 0.50200  0.76550  0.20440  Biso   1.000  H
  C27      1.0000 0.49880  0.13140  0.67930  Biso   1.000  C
  C28      1.0000 0.50120  0.86860  0.32070  Biso   1.000  C
  C29      1.0000 0.49620  0.15230  0.57760  Biso   1.000  C
  C30      1.0000 0.50380  0.84770  0.42240  Biso   1.000  C
  H19      1.0000 0.49530  0.10400  0.52650  Biso   1.000  H
  H20      1.0000 0.50470  0.89600  0.47350  Biso   1.000  H
  C31      1.0000 0.49710  0.27380  0.22350  Biso   1.000  C
  C32      1.0000 0.50290  0.72620  0.77650  Biso   1.000  C
  H21      1.0000 0.49680  0.20400  0.23350  Biso   1.000  H
  H22      1.0000 0.50320  0.79600  0.76650  Biso   1.000  H
  C33      1.0000 0.50080  0.32120  0.13060  Biso   1.000  C
  C34      1.0000 0.49920  0.67880  0.86940  Biso   1.000  C
  C35      1.0000 0.50110  0.42300  0.15290  Biso   1.000  C
  C36      1.0000 0.49890  0.57700  0.84710  Biso   1.000  C
  H23      1.0000 0.50440  0.47390  0.10470  Biso   1.000  H
  H24      1.0000 0.49560  0.52610  0.89530  Biso   1.000  H
