data_image0
_cell_length_a       10.602
_cell_length_b       12.725
_cell_length_c       13.11
_cell_angle_alpha    83.607
_cell_angle_beta     81.991
_cell_angle_gamma    67.784

_symmetry_space_group_name_H-M    "P 1"
_symmetry_int_tables_number       1

loop_
  _symmetry_equiv_pos_as_xyz
  'x, y, z'

loop_
  _atom_site_label
  _atom_site_occupancy
  _atom_site_fract_x
  _atom_site_fract_y
  _atom_site_fract_z
  _atom_site_thermal_displace_type
  _atom_site_B_iso_or_equiv
  _atom_site_type_symbol
  Cu1      1.0000 0.93462  0.74959  0.47671  Biso   1.000  Cu
  Cu2      1.0000 0.06538  0.25041  0.52329  Biso   1.000  Cu
  Cu3      1.0000 0.67354  0.98035  0.36739  Biso   1.000  Cu
  Cu4      1.0000 0.32646  0.01965  0.63261  Biso   1.000  Cu
  Cu5      1.0000 0.55238  0.09162  0.61182  Biso   1.000  Cu
  Cu6      1.0000 0.44762  0.90838  0.38818  Biso   1.000  Cu
  Cu7      1.0000 0.81568  0.85851  0.71921  Biso   1.000  Cu
  Cu8      1.0000 0.18432  0.14149  0.28079  Biso   1.000  Cu
  Cu9      1.0000 0.92918  0.05734  0.67637  Biso   1.000  Cu
  Cu10     1.0000 0.07082  0.94266  0.32363  Biso   1.000  Cu
  Cu11     1.0000 0.80012  0.17371  0.44360  Biso   1.000  Cu
  Cu12     1.0000 0.19988  0.82629  0.55640  Biso   1.000  Cu
  K1       1.0000 0.32670  0.45810  0.02844  Biso   1.000  K
  K2       1.0000 0.67330  0.54190  0.97156  Biso   1.000  K
  Cl1      1.0000 0.81730  0.95784  0.52999  Biso   1.000  Cl
  Cl2      1.0000 0.18270  0.04216  0.47001  Biso   1.000  Cl
  O1       1.0000 0.06080  0.60710  0.06560  Biso   1.000  O
  O2       1.0000 0.93920  0.39290  0.93440  Biso   1.000  O
  O3       1.0000 0.90310  0.75080  0.99780  Biso   1.000  O
  O4       1.0000 0.09690  0.24920  0.00220  Biso   1.000  O
  O5       1.0000 0.27840  0.40020  0.23090  Biso   1.000  O
  O6       1.0000 0.72160  0.59980  0.76910  Biso   1.000  O
  O7       1.0000 0.20000  0.46650  0.38120  Biso   1.000  O
  O8       1.0000 0.80000  0.53350  0.61880  Biso   1.000  O
  O9       1.0000 0.45920  0.54320  0.68580  Biso   1.000  O
  O10      1.0000 0.54080  0.45680  0.31420  Biso   1.000  O
  O11      1.0000 0.52950  0.45960  0.83590  Biso   1.000  O
  O12      1.0000 0.47050  0.54040  0.16410  Biso   1.000  O
  O13      1.0000 0.43170  0.23050  0.02390  Biso   1.000  O
  O14      1.0000 0.56830  0.76950  0.97610  Biso   1.000  O
  O15      1.0000 0.59550  0.08920  0.08920  Biso   1.000  O
  O16      1.0000 0.40450  0.91080  0.91080  Biso   1.000  O
  O17      1.0000 0.15710  0.83040  0.03950  Biso   1.000  O
  O18      1.0000 0.84290  0.16960  0.96050  Biso   1.000  O
  O19      1.0000 0.31460  0.68490  0.96960  Biso   1.000  O
  O20      1.0000 0.68540  0.31510  0.03040  Biso   1.000  O
  O21      1.0000 0.22570  0.44380  0.85440  Biso   1.000  O
  O22      1.0000 0.77430  0.55620  0.14560  Biso   1.000  O
  O23      1.0000 0.30330  0.37940  0.70320  Biso   1.000  O
  O24      1.0000 0.69670  0.62060  0.29680  Biso   1.000  O
  N1       1.0000 0.90100  0.76340  0.33890  Biso   1.000  N
  N2       1.0000 0.09900  0.23660  0.66110  Biso   1.000  N
  N3       1.0000 0.80020  0.85680  0.29440  Biso   1.000  N
  N4       1.0000 0.19980  0.14320  0.70560  Biso   1.000  N
  N5       1.0000 0.52430  0.11720  0.39290  Biso   1.000  N
  N6       1.0000 0.47570  0.88280  0.60710  Biso   1.000  N
  N7       1.0000 0.47750  0.16060  0.48960  Biso   1.000  N
  N8       1.0000 0.52250  0.83940  0.51040  Biso   1.000  N
  N9       1.0000 0.58090  0.06900  0.75270  Biso   1.000  N
  N10      1.0000 0.41910  0.93100  0.24730  Biso   1.000  N
  N11      1.0000 0.68450  0.97780  0.79460  Biso   1.000  N
  N12      1.0000 0.31550  0.02220  0.20540  Biso   1.000  N
  N13      1.0000 0.95130  0.71510  0.69730  Biso   1.000  N
  N14      1.0000 0.04870  0.28490  0.30270  Biso   1.000  N
  N15      1.0000 0.00530  0.67400  0.60000  Biso   1.000  N
  N16      1.0000 0.99470  0.32600  0.40000  Biso   1.000  N
  N17      1.0000 0.96270  0.69750  0.07170  Biso   1.000  N
  N18      1.0000 0.03730  0.30250  0.92830  Biso   1.000  N
  N19      1.0000 0.27460  0.39100  0.32510  Biso   1.000  N
  N20      1.0000 0.72540  0.60900  0.67490  Biso   1.000  N
  N21      1.0000 0.53210  0.46190  0.73970  Biso   1.000  N
  N22      1.0000 0.46790  0.53810  0.26030  Biso   1.000  N
  N23      1.0000 0.52990  0.14130  0.01500  Biso   1.000  N
  N24      1.0000 0.47010  0.85870  0.98500  Biso   1.000  N
  N25      1.0000 0.21880  0.77650  0.96310  Biso   1.000  N
  N26      1.0000 0.78120  0.22350  0.03690  Biso   1.000  N
  N27      1.0000 0.22400  0.45260  0.75880  Biso   1.000  N
  N28      1.0000 0.77600  0.54740  0.24120  Biso   1.000  N
  N29      1.0000 0.16450  0.84710  0.69860  Biso   1.000  N
  N30      1.0000 0.83550  0.15290  0.30140  Biso   1.000  N
  N31      1.0000 0.05780  0.93650  0.74220  Biso   1.000  N
  N32      1.0000 0.94220  0.06350  0.25780  Biso   1.000  N
  N33      1.0000 0.79150  0.20060  0.65890  Biso   1.000  N
  N34      1.0000 0.20850  0.79940  0.34110  Biso   1.000  N
  N35      1.0000 0.73740  0.24690  0.56740  Biso   1.000  N
  N36      1.0000 0.26260  0.75310  0.43260  Biso   1.000  N
  C1       1.0000 0.97060  0.69560  0.26370  Biso   1.000  C
  C2       1.0000 0.02940  0.30440  0.73630  Biso   1.000  C
  H1       1.0000 0.04360  0.62700  0.27210  Biso   1.000  H
  H2       1.0000 0.95640  0.37300  0.72790  Biso   1.000  H
  C3       1.0000 0.91820  0.74280  0.17070  Biso   1.000  C
  C4       1.0000 0.08180  0.25720  0.82930  Biso   1.000  C
  C5       1.0000 0.81370  0.84330  0.19270  Biso   1.000  C
  C6       1.0000 0.18630  0.15670  0.80730  Biso   1.000  C
  H3       1.0000 0.76040  0.89440  0.14490  Biso   1.000  H
  H4       1.0000 0.23960  0.10560  0.85510  Biso   1.000  H
  C7       1.0000 0.45690  0.19300  0.32250  Biso   1.000  C
  C8       1.0000 0.54310  0.80700  0.67750  Biso   1.000  C
  H5       1.0000 0.47050  0.18440  0.25180  Biso   1.000  H
  H6       1.0000 0.52950  0.81560  0.74820  Biso   1.000  H
  C9       1.0000 0.36370  0.28600  0.37040  Biso   1.000  C
  C10      1.0000 0.63630  0.71400  0.62960  Biso   1.000  C
  C11      1.0000 0.38000  0.26320  0.47480  Biso   1.000  C
  C12      1.0000 0.62000  0.73680  0.52520  Biso   1.000  C
  H7       1.0000 0.33070  0.31180  0.52650  Biso   1.000  H
  H8       1.0000 0.66930  0.68820  0.47350  Biso   1.000  H
  C13      1.0000 0.51400  0.13790  0.82770  Biso   1.000  C
  C14      1.0000 0.48600  0.86210  0.17230  Biso   1.000  C
  H9       1.0000 0.44020  0.20620  0.82030  Biso   1.000  H
  H10      1.0000 0.55980  0.79380  0.17970  Biso   1.000  H
  C15      1.0000 0.57090  0.09230  0.91760  Biso   1.000  C
  C16      1.0000 0.42910  0.90770  0.08240  Biso   1.000  C
  C17      1.0000 0.67820  0.99330  0.89410  Biso   1.000  C
  C18      1.0000 0.32180  0.00670  0.10590  Biso   1.000  C
  H11      1.0000 0.73700  0.94500  0.94020  Biso   1.000  H
  H12      1.0000 0.26300  0.05500  0.05980  Biso   1.000  H
  C19      1.0000 0.02520  0.63750  0.76650  Biso   1.000  C
  C20      1.0000 0.97480  0.36250  0.23350  Biso   1.000  C
  H13      1.0000 0.01170  0.64300  0.83760  Biso   1.000  H
  H14      1.0000 0.98830  0.35700  0.16240  Biso   1.000  H
  C21      1.0000 0.12390  0.54900  0.71510  Biso   1.000  C
  C22      1.0000 0.87610  0.45100  0.28490  Biso   1.000  C
  C23      1.0000 0.10590  0.57460  0.61100  Biso   1.000  C
  C24      1.0000 0.89410  0.42540  0.38900  Biso   1.000  C
  H15      1.0000 0.15660  0.52900  0.55770  Biso   1.000  H
  H16      1.0000 0.84340  0.47100  0.44230  Biso   1.000  H
  C25      1.0000 0.23460  0.77870  0.77140  Biso   1.000  C
  C26      1.0000 0.76540  0.22130  0.22860  Biso   1.000  C
  H17      1.0000 0.31150  0.71270  0.76130  Biso   1.000  H
  H18      1.0000 0.68850  0.28730  0.23870  Biso   1.000  H
  C27      1.0000 0.17390  0.82250  0.86440  Biso   1.000  C
  C28      1.0000 0.82610  0.17750  0.13560  Biso   1.000  C
  C29      1.0000 0.06630  0.92150  0.84450  Biso   1.000  C
  C30      1.0000 0.93370  0.07850  0.15550  Biso   1.000  C
  H19      1.0000 0.00870  0.97020  0.89360  Biso   1.000  H
  H20      1.0000 0.99130  0.02980  0.10640  Biso   1.000  H
  C31      1.0000 0.72320  0.27210  0.73250  Biso   1.000  C
  C32      1.0000 0.27680  0.72790  0.26750  Biso   1.000  C
  H21      1.0000 0.73820  0.26030  0.80180  Biso   1.000  H
  H22      1.0000 0.26180  0.73970  0.19820  Biso   1.000  H
  C33      1.0000 0.62570  0.36710  0.68800  Biso   1.000  C
  C34      1.0000 0.37430  0.63290  0.31200  Biso   1.000  C
  C35      1.0000 0.63750  0.34880  0.58510  Biso   1.000  C
  C36      1.0000 0.36250  0.65120  0.41490  Biso   1.000  C
  H23      1.0000 0.58520  0.39850  0.53590  Biso   1.000  H
  H24      1.0000 0.41480  0.60150  0.46410  Biso   1.000  H
