data_image0
_cell_length_a       10.336
_cell_length_b       13.12
_cell_length_c       13.11
_cell_angle_alpha    89.928
_cell_angle_beta     69.412
_cell_angle_gamma    81.047

_symmetry_space_group_name_H-M    "P 1"
_symmetry_int_tables_number       1

loop_
  _symmetry_equiv_pos_as_xyz
  'x, y, z'

loop_
  _atom_site_label
  _atom_site_occupancy
  _atom_site_fract_x
  _atom_site_fract_y
  _atom_site_fract_z
  _atom_site_thermal_displace_type
  _atom_site_B_iso_or_equiv
  _atom_site_type_symbol
  I1       1.0000 0.79497  0.02650  0.55547  Biso   1.000  I
  I2       1.0000 0.20503  0.97350  0.44453  Biso   1.000  I
  Cu1      1.0000 0.65954  0.22343  0.66135  Biso   1.000  Cu
  Cu2      1.0000 0.34046  0.77657  0.33865  Biso   1.000  Cu
  Cu3      1.0000 0.64298  0.11182  0.42129  Biso   1.000  Cu
  Cu4      1.0000 0.35702  0.88818  0.57871  Biso   1.000  Cu
  Cu5      1.0000 0.64661  0.86693  0.53507  Biso   1.000  Cu
  Cu6      1.0000 0.35339  0.13307  0.46493  Biso   1.000  Cu
  Cu7      1.0000 0.66651  0.97816  0.77358  Biso   1.000  Cu
  Cu8      1.0000 0.33349  0.02184  0.22642  Biso   1.000  Cu
  K1       1.0000 0.79200  0.52629  0.05880  Biso   1.000  K
  K2       1.0000 0.20800  0.47371  0.94120  Biso   1.000  K
  O1       1.0000 0.68380  0.58810  0.42660  Biso   1.000  O
  O2       1.0000 0.31620  0.41190  0.57340  Biso   1.000  O
  O3       1.0000 0.67420  0.52150  0.28030  Biso   1.000  O
  O4       1.0000 0.32580  0.47850  0.71970  Biso   1.000  O
  O5       1.0000 0.67990  0.87780  0.04390  Biso   1.000  O
  O6       1.0000 0.32010  0.12220  0.95610  Biso   1.000  O
  O7       1.0000 0.68350  0.72900  0.11340  Biso   1.000  O
  O8       1.0000 0.31650  0.27100  0.88660  Biso   1.000  O
  O9       1.0000 0.65920  0.49790  0.76180  Biso   1.000  O
  O10      1.0000 0.34080  0.50210  0.23820  Biso   1.000  O
  O11      1.0000 0.66750  0.56610  0.90840  Biso   1.000  O
  O12      1.0000 0.33250  0.43390  0.09160  Biso   1.000  O
  O13      1.0000 0.68300  0.20580  0.13590  Biso   1.000  O
  O14      1.0000 0.31700  0.79420  0.86410  Biso   1.000  O
  O15      1.0000 0.66700  0.35580  0.07250  Biso   1.000  O
  O16      1.0000 0.33300  0.64420  0.92750  Biso   1.000  O
  N1       1.0000 0.65210  0.29630  0.53920  Biso   1.000  N
  N2       1.0000 0.34790  0.70370  0.46080  Biso   1.000  N
  N3       1.0000 0.64590  0.25400  0.44450  Biso   1.000  N
  N4       1.0000 0.35410  0.74600  0.55550  Biso   1.000  N
  N5       1.0000 0.67490  0.51430  0.37230  Biso   1.000  N
  N6       1.0000 0.32510  0.48570  0.62770  Biso   1.000  N
  N7       1.0000 0.63670  0.98600  0.35060  Biso   1.000  N
  N8       1.0000 0.36330  0.01400  0.64940  Biso   1.000  N
  N9       1.0000 0.63650  0.89220  0.39390  Biso   1.000  N
  N10      1.0000 0.36350  0.10780  0.60610  Biso   1.000  N
  N11      1.0000 0.67260  0.82190  0.12260  Biso   1.000  N
  N12      1.0000 0.32740  0.17810  0.87740  Biso   1.000  N
  N13      1.0000 0.65050  0.79500  0.66020  Biso   1.000  N
  N14      1.0000 0.34950  0.20500  0.33980  Biso   1.000  N
  N15      1.0000 0.65220  0.83780  0.75430  Biso   1.000  N
  N16      1.0000 0.34780  0.16220  0.24570  Biso   1.000  N
  N17      1.0000 0.66190  0.57280  0.81620  Biso   1.000  N
  N18      1.0000 0.33810  0.42720  0.18380  Biso   1.000  N
  N19      1.0000 0.66130  0.10370  0.84670  Biso   1.000  N
  N20      1.0000 0.33870  0.89630  0.15330  Biso   1.000  N
  N21      1.0000 0.65350  0.20060  0.80610  Biso   1.000  N
  N22      1.0000 0.34650  0.79940  0.19390  Biso   1.000  N
  N23      1.0000 0.67090  0.26150  0.06400  Biso   1.000  N
  N24      1.0000 0.32910  0.73850  0.93600  Biso   1.000  N
  C1       1.0000 0.65260  0.32790  0.37520  Biso   1.000  C
  C2       1.0000 0.34740  0.67210  0.62480  Biso   1.000  C
  H1       1.0000 0.65020  0.31980  0.30550  Biso   1.000  H
  H2       1.0000 0.34980  0.68020  0.69450  Biso   1.000  H
  C3       1.0000 0.66360  0.41720  0.42060  Biso   1.000  C
  C4       1.0000 0.33640  0.58280  0.57940  Biso   1.000  C
  C5       1.0000 0.66280  0.39670  0.52410  Biso   1.000  C
  C6       1.0000 0.33720  0.60330  0.47590  Biso   1.000  C
  H3       1.0000 0.66860  0.44390  0.57460  Biso   1.000  H
  H4       1.0000 0.33140  0.55610  0.42540  Biso   1.000  H
  C7       1.0000 0.65430  0.26820  0.87790  Biso   1.000  C
  C8       1.0000 0.34570  0.73180  0.12210  Biso   1.000  C
  H5       1.0000 0.64980  0.33900  0.86960  Biso   1.000  H
  H6       1.0000 0.35020  0.66100  0.13040  Biso   1.000  H
  C9       1.0000 0.66310  0.21830  0.96840  Biso   1.000  C
  C10      1.0000 0.33690  0.78170  0.03160  Biso   1.000  C
  C11      1.0000 0.66700  0.11540  0.94550  Biso   1.000  C
  C12      1.0000 0.33300  0.88460  0.05450  Biso   1.000  C
  H7       1.0000 0.67280  0.06250  0.99180  Biso   1.000  H
  H8       1.0000 0.32720  0.93750  0.00820  Biso   1.000  H
  C13      1.0000 0.65850  0.76360  0.82110  Biso   1.000  C
  C14      1.0000 0.34150  0.23640  0.17890  Biso   1.000  C
  H9       1.0000 0.66370  0.77230  0.88990  Biso   1.000  H
  H10      1.0000 0.33630  0.22770  0.11010  Biso   1.000  H
  C15      1.0000 0.65620  0.67030  0.77240  Biso   1.000  C
  C16      1.0000 0.34380  0.32970  0.22760  Biso   1.000  C
  C17      1.0000 0.65260  0.69360  0.67120  Biso   1.000  C
  C18      1.0000 0.34740  0.30640  0.32880  Biso   1.000  C
  H11      1.0000 0.65180  0.64630  0.61870  Biso   1.000  H
  H12      1.0000 0.34820  0.35370  0.38130  Biso   1.000  H
  C19      1.0000 0.64840  0.82110  0.31920  Biso   1.000  C
  C20      1.0000 0.35160  0.17890  0.68080  Biso   1.000  C
  H13      1.0000 0.65160  0.75060  0.32840  Biso   1.000  H
  H14      1.0000 0.34840  0.24940  0.67160  Biso   1.000  H
  C21      1.0000 0.65560  0.87030  0.22390  Biso   1.000  C
  C22      1.0000 0.34440  0.12970  0.77610  Biso   1.000  C
  C23      1.0000 0.64780  0.97260  0.24750  Biso   1.000  C
  C24      1.0000 0.35220  0.02740  0.75250  Biso   1.000  C
  H15      1.0000 0.64980  0.02470  0.19910  Biso   1.000  H
  H16      1.0000 0.35020  0.97530  0.80090  Biso   1.000  H
  Cu9      1.0000 0.99389  0.94113  0.32277  Biso   1.000  Cu
  Cu10     1.0000 0.00611  0.05887  0.67723  Biso   1.000  Cu
  Cu11     1.0000 0.99864  0.17804  0.44110  Biso   1.000  Cu
  Cu12     1.0000 0.00136  0.82196  0.55890  Biso   1.000  Cu
  O17      1.0000 0.99580  0.46680  0.82770  Biso   1.000  O
  O18      1.0000 0.00420  0.53320  0.17230  Biso   1.000  O
  O19      1.0000 0.99270  0.53890  0.68140  Biso   1.000  O
  O20      1.0000 0.00730  0.46110  0.31860  Biso   1.000  O
  O21      1.0000 0.00050  0.18080  0.96090  Biso   1.000  O
  O22      1.0000 0.99950  0.81920  0.03910  Biso   1.000  O
  O23      1.0000 0.99540  0.32940  0.03580  Biso   1.000  O
  O24      1.0000 0.00460  0.67060  0.96420  Biso   1.000  O
  N25      1.0000 0.99560  0.06610  0.25250  Biso   1.000  N
  N26      1.0000 0.00440  0.93390  0.74750  Biso   1.000  N
  N27      1.0000 0.99590  0.15930  0.30060  Biso   1.000  N
  N28      1.0000 0.00410  0.84070  0.69940  Biso   1.000  N
  N29      1.0000 0.00440  0.20090  0.65840  Biso   1.000  N
  N30      1.0000 0.99560  0.79910  0.34160  Biso   1.000  N
  N31      1.0000 0.00190  0.24780  0.56440  Biso   1.000  N
  N32      1.0000 0.99810  0.75220  0.43560  Biso   1.000  N
  N33      1.0000 0.99570  0.46220  0.73470  Biso   1.000  N
  N34      1.0000 0.00430  0.53780  0.26530  Biso   1.000  N
  N35      1.0000 0.99850  0.23510  0.03870  Biso   1.000  N
  N36      1.0000 0.00150  0.76490  0.96130  Biso   1.000  N
  C25      1.0000 0.99670  0.34810  0.58150  Biso   1.000  C
  C26      1.0000 0.00330  0.65190  0.41850  Biso   1.000  C
  H17      1.0000 0.99310  0.39780  0.53160  Biso   1.000  H
  H18      1.0000 0.00690  0.60220  0.46840  Biso   1.000  H
  C27      1.0000 0.99730  0.36750  0.68500  Biso   1.000  C
  C28      1.0000 0.00270  0.63250  0.31500  Biso   1.000  C
  C29      1.0000 0.00090  0.27330  0.72970  Biso   1.000  C
  C30      1.0000 0.99910  0.72670  0.27030  Biso   1.000  C
  H19      1.0000 0.00090  0.26200  0.79970  Biso   1.000  H
  H20      1.0000 0.99910  0.73800  0.20030  Biso   1.000  H
  C31      1.0000 0.99540  0.08160  0.15310  Biso   1.000  C
  C32      1.0000 0.00460  0.91840  0.84690  Biso   1.000  C
  H21      1.0000 0.99470  0.03090  0.10390  Biso   1.000  H
  H22      1.0000 0.00530  0.96910  0.89610  Biso   1.000  H
  C33      1.0000 0.99640  0.18510  0.13350  Biso   1.000  C
  C34      1.0000 0.00360  0.81490  0.86650  Biso   1.000  C
  C35      1.0000 0.99720  0.23270  0.22900  Biso   1.000  C
  C36      1.0000 0.00280  0.76730  0.77100  Biso   1.000  C
  H23      1.0000 0.99830  0.30250  0.24050  Biso   1.000  H
  H24      1.0000 0.00170  0.69750  0.75950  Biso   1.000  H
