data_image0
_cell_length_a       7.495
_cell_length_b       9.998
_cell_length_c       11.384
_cell_angle_alpha    71.699
_cell_angle_beta     84.631
_cell_angle_gamma    71.66

_symmetry_space_group_name_H-M    "P 1"
_symmetry_int_tables_number       1

loop_
  _symmetry_equiv_pos_as_xyz
  'x, y, z'

loop_
  _atom_site_label
  _atom_site_occupancy
  _atom_site_fract_x
  _atom_site_fract_y
  _atom_site_fract_z
  _atom_site_thermal_displace_type
  _atom_site_B_iso_or_equiv
  _atom_site_type_symbol
  Cu1      1.0000 0.48400  0.26871  0.30660  Biso   1.000  Cu
  Cu2      1.0000 0.51600  0.73129  0.69340  Biso   1.000  Cu
  Cu3      1.0000 0.26653  0.09988  0.46832  Biso   1.000  Cu
  Cu4      1.0000 0.73347  0.90012  0.53168  Biso   1.000  Cu
  Br1      1.0000 0.14822  0.30472  0.28097  Biso   1.000  Br
  Br2      1.0000 0.85178  0.69528  0.71903  Biso   1.000  Br
  Br3      1.0000 0.58078  0.15599  0.52382  Biso   1.000  Br
  Br4      1.0000 0.41922  0.84401  0.47618  Biso   1.000  Br
  N1       1.0000 0.60700  0.23140  0.14320  Biso   1.000  N
  N2       1.0000 0.39300  0.76860  0.85680  Biso   1.000  N
  N3       1.0000 0.67770  0.11090  0.98520  Biso   1.000  N
  N4       1.0000 0.32230  0.88910  0.01480  Biso   1.000  N
  N5       1.0000 0.50260  0.03550  0.15710  Biso   1.000  N
  N6       1.0000 0.49740  0.96450  0.84290  Biso   1.000  N
  H1       1.0000 0.45130  0.04370  0.22640  Biso   1.000  H
  H2       1.0000 0.54870  0.95630  0.77360  Biso   1.000  H
  H3       1.0000 0.49290  0.96770  0.12900  Biso   1.000  H
  H4       1.0000 0.50710  0.03230  0.87100  Biso   1.000  H
  N7       1.0000 0.60640  0.43700  0.24210  Biso   1.000  N
  N8       1.0000 0.39360  0.56300  0.75790  Biso   1.000  N
  N9       1.0000 0.07300  0.13300  0.60040  Biso   1.000  N
  N10      1.0000 0.92700  0.86700  0.39960  Biso   1.000  N
  C1       1.0000 0.59770  0.12820  0.09320  Biso   1.000  C
  C2       1.0000 0.40230  0.87180  0.90680  Biso   1.000  C
  C3       1.0000 0.76210  0.21020  0.92180  Biso   1.000  C
  C4       1.0000 0.23790  0.78980  0.07820  Biso   1.000  C
  C5       1.0000 0.76530  0.32720  0.96180  Biso   1.000  C
  C6       1.0000 0.23470  0.67280  0.03820  Biso   1.000  C
  H5       1.0000 0.81750  0.39930  0.91330  Biso   1.000  H
  H6       1.0000 0.18250  0.60070  0.08670  Biso   1.000  H
  C7       1.0000 0.68930  0.33270  0.07430  Biso   1.000  C
  C8       1.0000 0.31070  0.66730  0.92570  Biso   1.000  C
  C9       1.0000 0.68600  0.45100  0.12920  Biso   1.000  C
  C10      1.0000 0.31400  0.54900  0.87080  Biso   1.000  C
  C11      1.0000 0.75580  0.56700  0.06930  Biso   1.000  C
  C12      1.0000 0.24420  0.43300  0.93070  Biso   1.000  C
  H7       1.0000 0.80900  0.57420  0.99130  Biso   1.000  H
  H8       1.0000 0.19100  0.42580  0.00870  Biso   1.000  H
  C13      1.0000 0.74590  0.67170  0.12600  Biso   1.000  C
  C14      1.0000 0.25410  0.32830  0.87400  Biso   1.000  C
  H9       1.0000 0.78940  0.75180  0.08560  Biso   1.000  H
  H10      1.0000 0.21060  0.24820  0.91440  Biso   1.000  H
  C15      1.0000 0.67160  0.65760  0.24250  Biso   1.000  C
  C16      1.0000 0.32840  0.34240  0.75750  Biso   1.000  C
  H11      1.0000 0.66750  0.72560  0.28360  Biso   1.000  H
  H12      1.0000 0.33250  0.27440  0.71640  Biso   1.000  H
  C17      1.0000 0.60300  0.53900  0.29700  Biso   1.000  C
  C18      1.0000 0.39700  0.46100  0.70300  Biso   1.000  C
  H13      1.0000 0.55180  0.52930  0.37580  Biso   1.000  H
  H14      1.0000 0.44820  0.47070  0.62420  Biso   1.000  H
  C19      1.0000 0.99700  0.27070  0.60970  Biso   1.000  C
  C20      1.0000 0.00300  0.72930  0.39030  Biso   1.000  C
  H15      1.0000 0.01680  0.34950  0.54580  Biso   1.000  H
  H16      1.0000 0.98320  0.65050  0.45420  Biso   1.000  H
  C21      1.0000 0.89110  0.30060  0.70970  Biso   1.000  C
  C22      1.0000 0.10890  0.69940  0.29030  Biso   1.000  C
  H17      1.0000 0.84050  0.39750  0.71200  Biso   1.000  H
  H18      1.0000 0.15950  0.60250  0.28800  Biso   1.000  H
  C23      1.0000 0.86080  0.18500  0.80660  Biso   1.000  C
  C24      1.0000 0.13920  0.81500  0.19340  Biso   1.000  C
  C25      1.0000 0.93250  0.04260  0.79520  Biso   1.000  C
  C26      1.0000 0.06750  0.95740  0.20480  Biso   1.000  C
  H19      1.0000 0.91030  0.96250  0.85630  Biso   1.000  H
  H20      1.0000 0.08970  0.03750  0.14370  Biso   1.000  H
  C27      1.0000 0.03670  0.02250  0.69200  Biso   1.000  C
  C28      1.0000 0.96330  0.97750  0.30800  Biso   1.000  C
  H21      1.0000 0.08410  0.92720  0.68580  Biso   1.000  H
  H22      1.0000 0.91590  0.07280  0.31420  Biso   1.000  H
