data_image0
_cell_length_a       9.0024
_cell_length_b       11.618
_cell_length_c       12.591
_cell_angle_alpha    97.81
_cell_angle_beta     103.15
_cell_angle_gamma    93.34

_symmetry_space_group_name_H-M    "P 1"
_symmetry_int_tables_number       1

loop_
  _symmetry_equiv_pos_as_xyz
  'x, y, z'

loop_
  _atom_site_label
  _atom_site_occupancy
  _atom_site_fract_x
  _atom_site_fract_y
  _atom_site_fract_z
  _atom_site_thermal_displace_type
  _atom_site_B_iso_or_equiv
  _atom_site_type_symbol
  Cu1      1.0000 0.08578  0.01125  0.75728  Biso   1.000  Cu
  Cu2      1.0000 0.91422  0.98875  0.24272  Biso   1.000  Cu
  Br1      1.0000 0.29643  0.04453  0.66195  Biso   1.000  Br
  Br2      1.0000 0.70357  0.95547  0.33805  Biso   1.000  Br
  O1       1.0000 0.92070  0.34140  0.00370  Biso   1.000  O
  O2       1.0000 0.07930  0.65860  0.99630  Biso   1.000  O
  O3       1.0000 0.44690  0.72050  0.90300  Biso   1.000  O
  O4       1.0000 0.55310  0.27950  0.09700  Biso   1.000  O
  O5       1.0000 0.86790  0.50490  0.36740  Biso   1.000  O
  O6       1.0000 0.13210  0.49510  0.63260  Biso   1.000  O
  N1       1.0000 0.91720  0.12100  0.72330  Biso   1.000  N
  N2       1.0000 0.08280  0.87900  0.27670  Biso   1.000  N
  N3       1.0000 0.76200  0.38030  0.84840  Biso   1.000  N
  N4       1.0000 0.23800  0.61970  0.15160  Biso   1.000  N
  H1       1.0000 0.70630  0.43180  0.82110  Biso   1.000  H
  H2       1.0000 0.29370  0.56820  0.17890  Biso   1.000  H
  N5       1.0000 0.48000  0.83400  0.06880  Biso   1.000  N
  N6       1.0000 0.52000  0.16600  0.93120  Biso   1.000  N
  H3       1.0000 0.53400  0.84420  0.13570  Biso   1.000  H
  H4       1.0000 0.46600  0.15580  0.86430  Biso   1.000  H
  N7       1.0000 0.18640  0.00110  0.91800  Biso   1.000  N
  N8       1.0000 0.81360  0.99890  0.08200  Biso   1.000  N
  N9       1.0000 0.83160  0.69700  0.39850  Biso   1.000  N
  N10      1.0000 0.16840  0.30300  0.60150  Biso   1.000  N
  H5       1.0000 0.80260  0.75620  0.36760  Biso   1.000  H
  H6       1.0000 0.19740  0.24380  0.63240  Biso   1.000  H
  N11      1.0000 0.99950  0.84120  0.68090  Biso   1.000  N
  N12      1.0000 0.00050  0.15880  0.31910  Biso   1.000  N
  C1       1.0000 0.62370  0.66490  0.05290  Biso   1.000  C
  C2       1.0000 0.37630  0.33510  0.94710  Biso   1.000  C
  C3       1.0000 0.67200  0.57840  0.98310  Biso   1.000  C
  C4       1.0000 0.32800  0.42160  0.01690  Biso   1.000  C
  H7       1.0000 0.63770  0.57350  0.90700  Biso   1.000  H
  H8       1.0000 0.36230  0.42650  0.09300  Biso   1.000  H
  C5       1.0000 0.77090  0.49970  0.02630  Biso   1.000  C
  C6       1.0000 0.22910  0.50030  0.97370  Biso   1.000  C
  C7       1.0000 0.82010  0.50740  0.13980  Biso   1.000  C
  C8       1.0000 0.17990  0.49260  0.86020  Biso   1.000  C
  H9       1.0000 0.88460  0.45400  0.16920  Biso   1.000  H
  H10      1.0000 0.11540  0.54600  0.83080  Biso   1.000  H
  C9       1.0000 0.77460  0.59390  0.21060  Biso   1.000  C
  C10      1.0000 0.22540  0.40610  0.78940  Biso   1.000  C
  C11      1.0000 0.67560  0.67110  0.16630  Biso   1.000  C
  C12      1.0000 0.32440  0.32890  0.83370  Biso   1.000  C
  H11      1.0000 0.64330  0.72800  0.21320  Biso   1.000  H
  H12      1.0000 0.35670  0.27200  0.78680  Biso   1.000  H
  C13      1.0000 0.50980  0.74130  0.00040  Biso   1.000  C
  C14      1.0000 0.49020  0.25870  0.99960  Biso   1.000  C
  C15      1.0000 0.37190  0.91530  0.04350  Biso   1.000  C
  C16      1.0000 0.62810  0.08470  0.95650  Biso   1.000  C
  C17      1.0000 0.28810  0.92100  0.93860  Biso   1.000  C
  C18      1.0000 0.71190  0.07900  0.06140  Biso   1.000  C
  H13      1.0000 0.30180  0.86800  0.88000  Biso   1.000  H
  H14      1.0000 0.69820  0.13200  0.12000  Biso   1.000  H
  C19      1.0000 0.16800  0.07650  0.00250  Biso   1.000  C
  C20      1.0000 0.83200  0.92350  0.99750  Biso   1.000  C
  H15      1.0000 0.09660  0.13060  0.98890  Biso   1.000  H
  H16      1.0000 0.90340  0.86940  0.01110  Biso   1.000  H
  C21      1.0000 0.25040  0.07760  0.10940  Biso   1.000  C
  C22      1.0000 0.74960  0.92240  0.89060  Biso   1.000  C
  H17      1.0000 0.23640  0.13280  0.16620  Biso   1.000  H
  H18      1.0000 0.76360  0.86720  0.83380  Biso   1.000  H
  C23      1.0000 0.35310  0.99630  0.13050  Biso   1.000  C
  C24      1.0000 0.64690  0.00370  0.86950  Biso   1.000  C
  H19      1.0000 0.40950  0.99520  0.20200  Biso   1.000  H
  H20      1.0000 0.59050  0.00480  0.79800  Biso   1.000  H
  C25      1.0000 0.83050  0.59360  0.33220  Biso   1.000  C
  C26      1.0000 0.16950  0.40640  0.66780  Biso   1.000  C
  C27      1.0000 0.87720  0.71260  0.51440  Biso   1.000  C
  C28      1.0000 0.12280  0.28740  0.48560  Biso   1.000  C
  C29      1.0000 0.95710  0.81550  0.57060  Biso   1.000  C
  C30      1.0000 0.04290  0.18450  0.42940  Biso   1.000  C
  H21      1.0000 0.98350  0.87080  0.52950  Biso   1.000  H
  H22      1.0000 0.01650  0.12920  0.47050  Biso   1.000  H
  C31      1.0000 0.96430  0.75860  0.73750  Biso   1.000  C
  C32      1.0000 0.03570  0.24140  0.26250  Biso   1.000  C
  H23      1.0000 0.99550  0.77290  0.81410  Biso   1.000  H
  H24      1.0000 0.00450  0.22710  0.18590  Biso   1.000  H
  C33      1.0000 0.88490  0.65440  0.68850  Biso   1.000  C
  C34      1.0000 0.11510  0.34560  0.31150  Biso   1.000  C
  H25      1.0000 0.86240  0.59970  0.73150  Biso   1.000  H
  H26      1.0000 0.13760  0.40030  0.26850  Biso   1.000  H
  C35      1.0000 0.83780  0.63000  0.57460  Biso   1.000  C
  C36      1.0000 0.16220  0.37000  0.42540  Biso   1.000  C
  H27      1.0000 0.78130  0.56010  0.53970  Biso   1.000  H
  H28      1.0000 0.21870  0.43990  0.46030  Biso   1.000  H
  C37      1.0000 0.82590  0.40110  0.95930  Biso   1.000  C
  C38      1.0000 0.17410  0.59890  0.04070  Biso   1.000  C
  C39      1.0000 0.77920  0.28220  0.77450  Biso   1.000  C
  C40      1.0000 0.22080  0.71780  0.22550  Biso   1.000  C
  C41      1.0000 0.66450  0.24700  0.67930  Biso   1.000  C
  C42      1.0000 0.33550  0.75300  0.32070  Biso   1.000  C
  H29      1.0000 0.57950  0.28920  0.66390  Biso   1.000  H
  H30      1.0000 0.42050  0.71080  0.33610  Biso   1.000  H
  C43      1.0000 0.67740  0.14990  0.60830  Biso   1.000  C
  C44      1.0000 0.32260  0.85010  0.39170  Biso   1.000  C
  H31      1.0000 0.60160  0.12550  0.54400  Biso   1.000  H
  H32      1.0000 0.39840  0.87450  0.45600  Biso   1.000  H
  C45      1.0000 0.80310  0.08930  0.63310  Biso   1.000  C
  C46      1.0000 0.19690  0.91070  0.36690  Biso   1.000  C
  H33      1.0000 0.80970  0.02260  0.58500  Biso   1.000  H
  H34      1.0000 0.19030  0.97740  0.41500  Biso   1.000  H
  C47      1.0000 0.90500  0.21790  0.79240  Biso   1.000  C
  C48      1.0000 0.09500  0.78210  0.20760  Biso   1.000  C
  H35      1.0000 0.98430  0.24240  0.85460  Biso   1.000  H
  H36      1.0000 0.01570  0.75760  0.14540  Biso   1.000  H
  N13      1.0000 0.53490  0.51910  0.69320  Biso   1.000  N
  N14      1.0000 0.46510  0.48090  0.30680  Biso   1.000  N
  C49      1.0000 0.47210  0.59510  0.66900  Biso   1.000  C
  C50      1.0000 0.52790  0.40490  0.33100  Biso   1.000  C
  C51      1.0000 0.38890  0.69510  0.63820  Biso   1.000  C
  C52      1.0000 0.61110  0.30490  0.36180  Biso   1.000  C
  H37      1.0000 0.28120  0.67620  0.62980  Biso   1.000  H
  H38      1.0000 0.71880  0.32380  0.37020  Biso   1.000  H
  H39      1.0000 0.40700  0.71320  0.56980  Biso   1.000  H
  H40      1.0000 0.59300  0.28680  0.43020  Biso   1.000  H
  H41      1.0000 0.42420  0.76130  0.69490  Biso   1.000  H
  H42      1.0000 0.57580  0.23870  0.30510  Biso   1.000  H
