data_image0
_cell_length_a       6.997
_cell_length_b       25.358
_cell_length_c       25.482
_cell_angle_alpha    90
_cell_angle_beta     90
_cell_angle_gamma    90

_symmetry_space_group_name_H-M    "P 1"
_symmetry_int_tables_number       1

loop_
  _symmetry_equiv_pos_as_xyz
  'x, y, z'

loop_
  _atom_site_label
  _atom_site_occupancy
  _atom_site_fract_x
  _atom_site_fract_y
  _atom_site_fract_z
  _atom_site_thermal_displace_type
  _atom_site_B_iso_or_equiv
  _atom_site_type_symbol
  Cu1      1.0000 0.24690  0.31119  0.07459  Biso   1.000  Cu
  Cu2      1.0000 0.25310  0.68881  0.57459  Biso   1.000  Cu
  Cu3      1.0000 0.75310  0.81119  0.42541  Biso   1.000  Cu
  Cu4      1.0000 0.74690  0.18881  0.92541  Biso   1.000  Cu
  Cu5      1.0000 0.75310  0.68881  0.92541  Biso   1.000  Cu
  Cu6      1.0000 0.74690  0.31119  0.42541  Biso   1.000  Cu
  Cu7      1.0000 0.24690  0.18881  0.57459  Biso   1.000  Cu
  Cu8      1.0000 0.25310  0.81119  0.07459  Biso   1.000  Cu
  O1       1.0000 0.08020  0.35331  0.89072  Biso   1.000  O
  O2       1.0000 0.41980  0.64669  0.39072  Biso   1.000  O
  O3       1.0000 0.91980  0.85331  0.60928  Biso   1.000  O
  O4       1.0000 0.58020  0.14669  0.10928  Biso   1.000  O
  O5       1.0000 0.91980  0.64669  0.10928  Biso   1.000  O
  O6       1.0000 0.58020  0.35331  0.60928  Biso   1.000  O
  O7       1.0000 0.08020  0.14669  0.39072  Biso   1.000  O
  O8       1.0000 0.41980  0.85331  0.89072  Biso   1.000  O
  O9       1.0000 0.99880  0.30907  0.70669  Biso   1.000  O
  O10      1.0000 0.50120  0.69093  0.20669  Biso   1.000  O
  O11      1.0000 0.00120  0.80907  0.79331  Biso   1.000  O
  O12      1.0000 0.49880  0.19093  0.29331  Biso   1.000  O
  O13      1.0000 0.00120  0.69093  0.29331  Biso   1.000  O
  O14      1.0000 0.49880  0.30907  0.79331  Biso   1.000  O
  O15      1.0000 0.99880  0.19093  0.20669  Biso   1.000  O
  O16      1.0000 0.50120  0.80907  0.70669  Biso   1.000  O
  O17      1.0000 0.87880  0.57543  0.79257  Biso   1.000  O
  O18      1.0000 0.62120  0.42457  0.29257  Biso   1.000  O
  O19      1.0000 0.12120  0.07543  0.70743  Biso   1.000  O
  O20      1.0000 0.37880  0.92457  0.20743  Biso   1.000  O
  O21      1.0000 0.12120  0.42457  0.20743  Biso   1.000  O
  O22      1.0000 0.37880  0.57543  0.70743  Biso   1.000  O
  O23      1.0000 0.87880  0.92457  0.29257  Biso   1.000  O
  O24      1.0000 0.62120  0.07543  0.79257  Biso   1.000  O
  N1       1.0000 0.09110  0.37070  0.04920  Biso   1.000  N
  N2       1.0000 0.40890  0.62930  0.54920  Biso   1.000  N
  N3       1.0000 0.90890  0.87070  0.45080  Biso   1.000  N
  N4       1.0000 0.59110  0.12930  0.95080  Biso   1.000  N
  N5       1.0000 0.90890  0.62930  0.95080  Biso   1.000  N
  N6       1.0000 0.59110  0.37070  0.45080  Biso   1.000  N
  N7       1.0000 0.09110  0.12930  0.54920  Biso   1.000  N
  N8       1.0000 0.40890  0.87070  0.04920  Biso   1.000  N
  N9       1.0000 0.93780  0.42720  0.92282  Biso   1.000  N
  N10      1.0000 0.56220  0.57280  0.42282  Biso   1.000  N
  N11      1.0000 0.06220  0.92720  0.57718  Biso   1.000  N
  N12      1.0000 0.43780  0.07280  0.07718  Biso   1.000  N
  N13      1.0000 0.06220  0.57280  0.07718  Biso   1.000  N
  N14      1.0000 0.43780  0.42720  0.57718  Biso   1.000  N
  N15      1.0000 0.93780  0.07280  0.42282  Biso   1.000  N
  N16      1.0000 0.56220  0.92720  0.92282  Biso   1.000  N
  H1       1.0000 0.87950  0.45560  0.91370  Biso   1.000  H
  H2       1.0000 0.62050  0.54440  0.41370  Biso   1.000  H
  H3       1.0000 0.12050  0.95560  0.58630  Biso   1.000  H
  H4       1.0000 0.37950  0.04440  0.08630  Biso   1.000  H
  H5       1.0000 0.12050  0.54440  0.08630  Biso   1.000  H
  H6       1.0000 0.37950  0.45560  0.58630  Biso   1.000  H
  H7       1.0000 0.87950  0.04440  0.41370  Biso   1.000  H
  H8       1.0000 0.62050  0.95560  0.91370  Biso   1.000  H
  N17      1.0000 0.02130  0.37260  0.64402  Biso   1.000  N
  N18      1.0000 0.47870  0.62740  0.14402  Biso   1.000  N
  N19      1.0000 0.97870  0.87260  0.85598  Biso   1.000  N
  N20      1.0000 0.52130  0.12740  0.35598  Biso   1.000  N
  N21      1.0000 0.97870  0.62740  0.35598  Biso   1.000  N
  N22      1.0000 0.52130  0.37260  0.85598  Biso   1.000  N
  N23      1.0000 0.02130  0.12740  0.14402  Biso   1.000  N
  N24      1.0000 0.47870  0.87260  0.64402  Biso   1.000  N
  H9       1.0000 0.01220  0.40600  0.63880  Biso   1.000  H
  H10      1.0000 0.48780  0.59400  0.13880  Biso   1.000  H
  H11      1.0000 0.98780  0.90600  0.86120  Biso   1.000  H
  H12      1.0000 0.51220  0.09400  0.36120  Biso   1.000  H
  H13      1.0000 0.98780  0.59400  0.36120  Biso   1.000  H
  H14      1.0000 0.51220  0.40600  0.86120  Biso   1.000  H
  H15      1.0000 0.01220  0.09400  0.13880  Biso   1.000  H
  H16      1.0000 0.48780  0.90600  0.63880  Biso   1.000  H
  N25      1.0000 0.16550  0.26080  0.56020  Biso   1.000  N
  N26      1.0000 0.33450  0.73920  0.06020  Biso   1.000  N
  N27      1.0000 0.83450  0.76080  0.93980  Biso   1.000  N
  N28      1.0000 0.66550  0.23920  0.43980  Biso   1.000  N
  N29      1.0000 0.83450  0.73920  0.43980  Biso   1.000  N
  N30      1.0000 0.66550  0.26080  0.93980  Biso   1.000  N
  N31      1.0000 0.16550  0.23920  0.06020  Biso   1.000  N
  N32      1.0000 0.33450  0.76080  0.56020  Biso   1.000  N
  N33      1.0000 0.91830  0.56203  0.70539  Biso   1.000  N
  N34      1.0000 0.58170  0.43797  0.20539  Biso   1.000  N
  N35      1.0000 0.08170  0.06203  0.79461  Biso   1.000  N
  N36      1.0000 0.41830  0.93797  0.29461  Biso   1.000  N
  N37      1.0000 0.08170  0.43797  0.29461  Biso   1.000  N
  N38      1.0000 0.41830  0.56203  0.79461  Biso   1.000  N
  N39      1.0000 0.91830  0.93797  0.20539  Biso   1.000  N
  N40      1.0000 0.58170  0.06203  0.70539  Biso   1.000  N
  H17      1.0000 0.92660  0.53830  0.68140  Biso   1.000  H
  H18      1.0000 0.57340  0.46170  0.18140  Biso   1.000  H
  H19      1.0000 0.07340  0.03830  0.81860  Biso   1.000  H
  H20      1.0000 0.42660  0.96170  0.31860  Biso   1.000  H
  H21      1.0000 0.07340  0.46170  0.31860  Biso   1.000  H
  H22      1.0000 0.42660  0.53830  0.81860  Biso   1.000  H
  H23      1.0000 0.92660  0.96170  0.18140  Biso   1.000  H
  H24      1.0000 0.57340  0.03830  0.68140  Biso   1.000  H
  N41      1.0000 0.04400  0.67720  0.62760  Biso   1.000  N
  N42      1.0000 0.45600  0.32280  0.12760  Biso   1.000  N
  N43      1.0000 0.95600  0.17720  0.87240  Biso   1.000  N
  N44      1.0000 0.54400  0.82280  0.37240  Biso   1.000  N
  N45      1.0000 0.95600  0.32280  0.37240  Biso   1.000  N
  N46      1.0000 0.54400  0.67720  0.87240  Biso   1.000  N
  N47      1.0000 0.04400  0.82280  0.12760  Biso   1.000  N
  N48      1.0000 0.45600  0.17720  0.62760  Biso   1.000  N
  C1       1.0000 0.99000  0.40110  0.08230  Biso   1.000  C
  C2       1.0000 0.51000  0.59890  0.58230  Biso   1.000  C
  C3       1.0000 0.01000  0.90110  0.41770  Biso   1.000  C
  C4       1.0000 0.49000  0.09890  0.91770  Biso   1.000  C
  C5       1.0000 0.01000  0.59890  0.91770  Biso   1.000  C
  C6       1.0000 0.49000  0.40110  0.41770  Biso   1.000  C
  C7       1.0000 0.99000  0.09890  0.58230  Biso   1.000  C
  C8       1.0000 0.51000  0.90110  0.08230  Biso   1.000  C
  H25      1.0000 0.00200  0.39580  0.11820  Biso   1.000  H
  H26      1.0000 0.49800  0.60420  0.61820  Biso   1.000  H
  H27      1.0000 0.99800  0.89580  0.38180  Biso   1.000  H
  H28      1.0000 0.50200  0.10420  0.88180  Biso   1.000  H
  H29      1.0000 0.99800  0.60420  0.88180  Biso   1.000  H
  H30      1.0000 0.50200  0.39580  0.38180  Biso   1.000  H
  H31      1.0000 0.00200  0.10420  0.61820  Biso   1.000  H
  H32      1.0000 0.49800  0.89580  0.11820  Biso   1.000  H
  C9       1.0000 0.86790  0.44030  0.06410  Biso   1.000  C
  C10      1.0000 0.63210  0.55970  0.56410  Biso   1.000  C
  C11      1.0000 0.13210  0.94030  0.43590  Biso   1.000  C
  C12      1.0000 0.36790  0.05970  0.93590  Biso   1.000  C
  C13      1.0000 0.13210  0.55970  0.93590  Biso   1.000  C
  C14      1.0000 0.36790  0.44030  0.43590  Biso   1.000  C
  C15      1.0000 0.86790  0.05970  0.56410  Biso   1.000  C
  C16      1.0000 0.63210  0.94030  0.06410  Biso   1.000  C
  H33      1.0000 0.79720  0.46040  0.08770  Biso   1.000  H
  H34      1.0000 0.70280  0.53960  0.58770  Biso   1.000  H
  H35      1.0000 0.20280  0.96040  0.41230  Biso   1.000  H
  H36      1.0000 0.29720  0.03960  0.91230  Biso   1.000  H
  H37      1.0000 0.20280  0.53960  0.91230  Biso   1.000  H
  H38      1.0000 0.29720  0.46040  0.41230  Biso   1.000  H
  H39      1.0000 0.79720  0.03960  0.58770  Biso   1.000  H
  H40      1.0000 0.70280  0.96040  0.08770  Biso   1.000  H
  C17      1.0000 0.85260  0.44910  0.01170  Biso   1.000  C
  C18      1.0000 0.64740  0.55090  0.51170  Biso   1.000  C
  C19      1.0000 0.14740  0.94910  0.48830  Biso   1.000  C
  C20      1.0000 0.35260  0.05090  0.98830  Biso   1.000  C
  C21      1.0000 0.14740  0.55090  0.98830  Biso   1.000  C
  C22      1.0000 0.35260  0.44910  0.48830  Biso   1.000  C
  C23      1.0000 0.85260  0.05090  0.51170  Biso   1.000  C
  C24      1.0000 0.64740  0.94910  0.01170  Biso   1.000  C
  H41      1.0000 0.77390  0.47580  0.99920  Biso   1.000  H
  H42      1.0000 0.72610  0.52420  0.49920  Biso   1.000  H
  H43      1.0000 0.22610  0.97580  0.50080  Biso   1.000  H
  H44      1.0000 0.27390  0.02420  0.00080  Biso   1.000  H
  H45      1.0000 0.22610  0.52420  0.00080  Biso   1.000  H
  H46      1.0000 0.27390  0.47580  0.50080  Biso   1.000  H
  H47      1.0000 0.77390  0.02420  0.49920  Biso   1.000  H
  H48      1.0000 0.72610  0.97580  0.99920  Biso   1.000  H
  C25      1.0000 0.95520  0.41780  0.97690  Biso   1.000  C
  C26      1.0000 0.54480  0.58220  0.47690  Biso   1.000  C
  C27      1.0000 0.04480  0.91780  0.52310  Biso   1.000  C
  C28      1.0000 0.45520  0.08220  0.02310  Biso   1.000  C
  C29      1.0000 0.04480  0.58220  0.02310  Biso   1.000  C
  C30      1.0000 0.45520  0.41780  0.52310  Biso   1.000  C
  C31      1.0000 0.95520  0.08220  0.47690  Biso   1.000  C
  C32      1.0000 0.54480  0.91780  0.97690  Biso   1.000  C
  C33      1.0000 0.07170  0.37860  0.99810  Biso   1.000  C
  C34      1.0000 0.42830  0.62140  0.49810  Biso   1.000  C
  C35      1.0000 0.92830  0.87860  0.50190  Biso   1.000  C
  C36      1.0000 0.57170  0.12140  0.00190  Biso   1.000  C
  C37      1.0000 0.92830  0.62140  0.00190  Biso   1.000  C
  C38      1.0000 0.57170  0.37860  0.50190  Biso   1.000  C
  C39      1.0000 0.07170  0.12140  0.49810  Biso   1.000  C
  C40      1.0000 0.42830  0.87860  0.99810  Biso   1.000  C
  H49      1.0000 0.13930  0.35700  0.97520  Biso   1.000  H
  H50      1.0000 0.36070  0.64300  0.47520  Biso   1.000  H
  H51      1.0000 0.86070  0.85700  0.52480  Biso   1.000  H
  H52      1.0000 0.63930  0.14300  0.02480  Biso   1.000  H
  H53      1.0000 0.86070  0.64300  0.02480  Biso   1.000  H
  H54      1.0000 0.63930  0.35700  0.52480  Biso   1.000  H
  H55      1.0000 0.13930  0.14300  0.47520  Biso   1.000  H
  H56      1.0000 0.36070  0.85700  0.97520  Biso   1.000  H
  C41      1.0000 0.00420  0.39570  0.88300  Biso   1.000  C
  C42      1.0000 0.49580  0.60430  0.38300  Biso   1.000  C
  C43      1.0000 0.99580  0.89570  0.61700  Biso   1.000  C
  C44      1.0000 0.50420  0.10430  0.11700  Biso   1.000  C
  C45      1.0000 0.99580  0.60430  0.11700  Biso   1.000  C
  C46      1.0000 0.50420  0.39570  0.61700  Biso   1.000  C
  C47      1.0000 0.00420  0.10430  0.38300  Biso   1.000  C
  C48      1.0000 0.49580  0.89570  0.88300  Biso   1.000  C
  C49      1.0000 0.99290  0.38070  0.78740  Biso   1.000  C
  C50      1.0000 0.50710  0.61930  0.28740  Biso   1.000  C
  C51      1.0000 0.00710  0.88070  0.71260  Biso   1.000  C
  C52      1.0000 0.49290  0.11930  0.21260  Biso   1.000  C
  C53      1.0000 0.00710  0.61930  0.21260  Biso   1.000  C
  C54      1.0000 0.49290  0.38070  0.71260  Biso   1.000  C
  C55      1.0000 0.99290  0.11930  0.28740  Biso   1.000  C
  C56      1.0000 0.50710  0.88070  0.78740  Biso   1.000  C
  H57      1.0000 0.01350  0.34520  0.79490  Biso   1.000  H
  H58      1.0000 0.48650  0.65480  0.29490  Biso   1.000  H
  H59      1.0000 0.98650  0.84520  0.70510  Biso   1.000  H
  H60      1.0000 0.51350  0.15480  0.20510  Biso   1.000  H
  H61      1.0000 0.98650  0.65480  0.20510  Biso   1.000  H
  H62      1.0000 0.51350  0.34520  0.70510  Biso   1.000  H
  H63      1.0000 0.01350  0.15480  0.29490  Biso   1.000  H
  H64      1.0000 0.48650  0.84520  0.79490  Biso   1.000  H
  C57      1.0000 0.97810  0.41720  0.82850  Biso   1.000  C
  C58      1.0000 0.52190  0.58280  0.32850  Biso   1.000  C
  C59      1.0000 0.02190  0.91720  0.67150  Biso   1.000  C
  C60      1.0000 0.47810  0.08280  0.17150  Biso   1.000  C
  C61      1.0000 0.02190  0.58280  0.17150  Biso   1.000  C
  C62      1.0000 0.47810  0.41720  0.67150  Biso   1.000  C
  C63      1.0000 0.97810  0.08280  0.32850  Biso   1.000  C
  C64      1.0000 0.52190  0.91720  0.82850  Biso   1.000  C
  C65      1.0000 0.94990  0.47010  0.81690  Biso   1.000  C
  C66      1.0000 0.55010  0.52990  0.31690  Biso   1.000  C
  C67      1.0000 0.05010  0.97010  0.68310  Biso   1.000  C
  C68      1.0000 0.44990  0.02990  0.18310  Biso   1.000  C
  C69      1.0000 0.05010  0.52990  0.18310  Biso   1.000  C
  C70      1.0000 0.44990  0.47010  0.68310  Biso   1.000  C
  C71      1.0000 0.94990  0.02990  0.31690  Biso   1.000  C
  C72      1.0000 0.55010  0.97010  0.81690  Biso   1.000  C
  H65      1.0000 0.94080  0.49450  0.84400  Biso   1.000  H
  H66      1.0000 0.55920  0.50550  0.34400  Biso   1.000  H
  H67      1.0000 0.05920  0.99450  0.65600  Biso   1.000  H
  H68      1.0000 0.44080  0.00550  0.15600  Biso   1.000  H
  H69      1.0000 0.05920  0.50550  0.15600  Biso   1.000  H
  H70      1.0000 0.44080  0.49450  0.65600  Biso   1.000  H
  H71      1.0000 0.94080  0.00550  0.34400  Biso   1.000  H
  H72      1.0000 0.55920  0.99450  0.84400  Biso   1.000  H
  C73      1.0000 0.93470  0.48740  0.76500  Biso   1.000  C
  C74      1.0000 0.56530  0.51260  0.26500  Biso   1.000  C
  C75      1.0000 0.06530  0.98740  0.73500  Biso   1.000  C
  C76      1.0000 0.43470  0.01260  0.23500  Biso   1.000  C
  C77      1.0000 0.06530  0.51260  0.23500  Biso   1.000  C
  C78      1.0000 0.43470  0.48740  0.73500  Biso   1.000  C
  C79      1.0000 0.93470  0.01260  0.26500  Biso   1.000  C
  C80      1.0000 0.56530  0.98740  0.76500  Biso   1.000  C
  C81      1.0000 0.94470  0.44990  0.72460  Biso   1.000  C
  C82      1.0000 0.55530  0.55010  0.22460  Biso   1.000  C
  C83      1.0000 0.05530  0.94990  0.77540  Biso   1.000  C
  C84      1.0000 0.44470  0.05010  0.27540  Biso   1.000  C
  C85      1.0000 0.05530  0.55010  0.27540  Biso   1.000  C
  C86      1.0000 0.44470  0.44990  0.77540  Biso   1.000  C
  C87      1.0000 0.94470  0.05010  0.22460  Biso   1.000  C
  C88      1.0000 0.55530  0.94990  0.72460  Biso   1.000  C
  H73      1.0000 0.92950  0.46060  0.68990  Biso   1.000  H
  H74      1.0000 0.57050  0.53940  0.18990  Biso   1.000  H
  H75      1.0000 0.07050  0.96060  0.81010  Biso   1.000  H
  H76      1.0000 0.42950  0.03940  0.31010  Biso   1.000  H
  H77      1.0000 0.07050  0.53940  0.31010  Biso   1.000  H
  H78      1.0000 0.42950  0.46060  0.81010  Biso   1.000  H
  H79      1.0000 0.92950  0.03940  0.18990  Biso   1.000  H
  H80      1.0000 0.57050  0.96060  0.68990  Biso   1.000  H
  C89      1.0000 0.97710  0.39680  0.73580  Biso   1.000  C
  C90      1.0000 0.52290  0.60320  0.23580  Biso   1.000  C
  C91      1.0000 0.02290  0.89680  0.76420  Biso   1.000  C
  C92      1.0000 0.47710  0.10320  0.26420  Biso   1.000  C
  C93      1.0000 0.02290  0.60320  0.26420  Biso   1.000  C
  C94      1.0000 0.47710  0.39680  0.76420  Biso   1.000  C
  C95      1.0000 0.97710  0.10320  0.23580  Biso   1.000  C
  C96      1.0000 0.52290  0.89680  0.73580  Biso   1.000  C
  C97      1.0000 0.99850  0.35540  0.69470  Biso   1.000  C
  C98      1.0000 0.50150  0.64460  0.19470  Biso   1.000  C
  C99      1.0000 0.00150  0.85540  0.80530  Biso   1.000  C
  C100     1.0000 0.49850  0.14460  0.30530  Biso   1.000  C
  C101     1.0000 0.00150  0.64460  0.30530  Biso   1.000  C
  C102     1.0000 0.49850  0.35540  0.80530  Biso   1.000  C
  C103     1.0000 0.99850  0.14460  0.19470  Biso   1.000  C
  C104     1.0000 0.50150  0.85540  0.69470  Biso   1.000  C
  C105     1.0000 0.12470  0.29030  0.60300  Biso   1.000  C
  C106     1.0000 0.37530  0.70970  0.10300  Biso   1.000  C
  C107     1.0000 0.87530  0.79030  0.89700  Biso   1.000  C
  C108     1.0000 0.62470  0.20970  0.39700  Biso   1.000  C
  C109     1.0000 0.87530  0.70970  0.39700  Biso   1.000  C
  C110     1.0000 0.62470  0.29030  0.89700  Biso   1.000  C
  C111     1.0000 0.12470  0.20970  0.10300  Biso   1.000  C
  C112     1.0000 0.37530  0.79030  0.60300  Biso   1.000  C
  H81      1.0000 0.14280  0.27560  0.63610  Biso   1.000  H
  H82      1.0000 0.35720  0.72440  0.13610  Biso   1.000  H
  H83      1.0000 0.85720  0.77560  0.86390  Biso   1.000  H
  H84      1.0000 0.64280  0.22440  0.36390  Biso   1.000  H
  H85      1.0000 0.85720  0.72440  0.36390  Biso   1.000  H
  H86      1.0000 0.64280  0.27560  0.86390  Biso   1.000  H
  H87      1.0000 0.14280  0.22440  0.13610  Biso   1.000  H
  H88      1.0000 0.35720  0.77560  0.63610  Biso   1.000  H
  C113     1.0000 0.05810  0.34090  0.59970  Biso   1.000  C
  C114     1.0000 0.44190  0.65910  0.09970  Biso   1.000  C
  C115     1.0000 0.94190  0.84090  0.90030  Biso   1.000  C
  C116     1.0000 0.55810  0.15910  0.40030  Biso   1.000  C
  C117     1.0000 0.94190  0.65910  0.40030  Biso   1.000  C
  C118     1.0000 0.55810  0.34090  0.90030  Biso   1.000  C
  C119     1.0000 0.05810  0.15910  0.09970  Biso   1.000  C
  C120     1.0000 0.44190  0.84090  0.59970  Biso   1.000  C
  C121     1.0000 0.03420  0.36300  0.55040  Biso   1.000  C
  C122     1.0000 0.46580  0.63700  0.05040  Biso   1.000  C
  C123     1.0000 0.96580  0.86300  0.94960  Biso   1.000  C
  C124     1.0000 0.53420  0.13700  0.44960  Biso   1.000  C
  C125     1.0000 0.96580  0.63700  0.44960  Biso   1.000  C
  C126     1.0000 0.53420  0.36300  0.94960  Biso   1.000  C
  C127     1.0000 0.03420  0.13700  0.05040  Biso   1.000  C
  C128     1.0000 0.46580  0.86300  0.55040  Biso   1.000  C
  H89      1.0000 0.98850  0.39720  0.54650  Biso   1.000  H
  H90      1.0000 0.51150  0.60280  0.04650  Biso   1.000  H
  H91      1.0000 0.01150  0.89720  0.95350  Biso   1.000  H
  H92      1.0000 0.48850  0.10280  0.45350  Biso   1.000  H
  H93      1.0000 0.01150  0.60280  0.45350  Biso   1.000  H
  H94      1.0000 0.48850  0.39720  0.95350  Biso   1.000  H
  H95      1.0000 0.98850  0.10280  0.04650  Biso   1.000  H
  H96      1.0000 0.51150  0.89720  0.54650  Biso   1.000  H
  C129     1.0000 0.07980  0.33310  0.50750  Biso   1.000  C
  C130     1.0000 0.42020  0.66690  0.00750  Biso   1.000  C
  C131     1.0000 0.92020  0.83310  0.99250  Biso   1.000  C
  C132     1.0000 0.57980  0.16690  0.49250  Biso   1.000  C
  C133     1.0000 0.92020  0.66690  0.49250  Biso   1.000  C
  C134     1.0000 0.57980  0.33310  0.99250  Biso   1.000  C
  C135     1.0000 0.07980  0.16690  0.00750  Biso   1.000  C
  C136     1.0000 0.42020  0.83310  0.50750  Biso   1.000  C
  H97      1.0000 0.06920  0.34750  0.47410  Biso   1.000  H
  H98      1.0000 0.43080  0.65250  0.97410  Biso   1.000  H
  H99      1.0000 0.93080  0.84750  0.02590  Biso   1.000  H
  H100     1.0000 0.56920  0.15250  0.52590  Biso   1.000  H
  H101     1.0000 0.93080  0.65250  0.52590  Biso   1.000  H
  H102     1.0000 0.56920  0.34750  0.02590  Biso   1.000  H
  H103     1.0000 0.06920  0.15250  0.97410  Biso   1.000  H
  H104     1.0000 0.43080  0.84750  0.47410  Biso   1.000  H
  C137     1.0000 0.14060  0.28240  0.51350  Biso   1.000  C
  C138     1.0000 0.35940  0.71760  0.01350  Biso   1.000  C
  C139     1.0000 0.85940  0.78240  0.98650  Biso   1.000  C
  C140     1.0000 0.64060  0.21760  0.48650  Biso   1.000  C
  C141     1.0000 0.85940  0.71760  0.48650  Biso   1.000  C
  C142     1.0000 0.64060  0.28240  0.98650  Biso   1.000  C
  C143     1.0000 0.14060  0.21760  0.01350  Biso   1.000  C
  C144     1.0000 0.35940  0.78240  0.51350  Biso   1.000  C
  H105     1.0000 0.16530  0.26230  0.48370  Biso   1.000  H
  H106     1.0000 0.33470  0.73770  0.98370  Biso   1.000  H
  H107     1.0000 0.83470  0.76230  0.01630  Biso   1.000  H
  H108     1.0000 0.66530  0.23770  0.51630  Biso   1.000  H
  H109     1.0000 0.83470  0.73770  0.51630  Biso   1.000  H
  H110     1.0000 0.66530  0.26230  0.01630  Biso   1.000  H
  H111     1.0000 0.16530  0.23770  0.98370  Biso   1.000  H
  H112     1.0000 0.33470  0.76230  0.48370  Biso   1.000  H
  C145     1.0000 0.90840  0.54530  0.75590  Biso   1.000  C
  C146     1.0000 0.59160  0.45470  0.25590  Biso   1.000  C
  C147     1.0000 0.09160  0.04530  0.74410  Biso   1.000  C
  C148     1.0000 0.40840  0.95470  0.24410  Biso   1.000  C
  C149     1.0000 0.09160  0.45470  0.24410  Biso   1.000  C
  C150     1.0000 0.40840  0.54530  0.74410  Biso   1.000  C
  C151     1.0000 0.90840  0.95470  0.25590  Biso   1.000  C
  C152     1.0000 0.59160  0.04530  0.75590  Biso   1.000  C
  C153     1.0000 0.91610  0.61530  0.68900  Biso   1.000  C
  C154     1.0000 0.58390  0.38470  0.18900  Biso   1.000  C
  C155     1.0000 0.08390  0.11530  0.81100  Biso   1.000  C
  C156     1.0000 0.41610  0.88470  0.31100  Biso   1.000  C
  C157     1.0000 0.08390  0.38470  0.31100  Biso   1.000  C
  C158     1.0000 0.41610  0.61530  0.81100  Biso   1.000  C
  C159     1.0000 0.91610  0.88470  0.18900  Biso   1.000  C
  C160     1.0000 0.58390  0.11530  0.68900  Biso   1.000  C
  C161     1.0000 0.02940  0.62850  0.64680  Biso   1.000  C
  C162     1.0000 0.47060  0.37150  0.14680  Biso   1.000  C
  C163     1.0000 0.97060  0.12850  0.85320  Biso   1.000  C
  C164     1.0000 0.52940  0.87150  0.35320  Biso   1.000  C
  C165     1.0000 0.97060  0.37150  0.35320  Biso   1.000  C
  C166     1.0000 0.52940  0.62850  0.85320  Biso   1.000  C
  C167     1.0000 0.02940  0.87150  0.14680  Biso   1.000  C
  C168     1.0000 0.47060  0.12850  0.64680  Biso   1.000  C
  H113     1.0000 0.09990  0.60190  0.63080  Biso   1.000  H
  H114     1.0000 0.40010  0.39810  0.13080  Biso   1.000  H
  H115     1.0000 0.90010  0.10190  0.86920  Biso   1.000  H
  H116     1.0000 0.59990  0.89810  0.36920  Biso   1.000  H
  H117     1.0000 0.90010  0.39810  0.36920  Biso   1.000  H
  H118     1.0000 0.59990  0.60190  0.86920  Biso   1.000  H
  H119     1.0000 0.09990  0.89810  0.13080  Biso   1.000  H
  H120     1.0000 0.40010  0.10190  0.63080  Biso   1.000  H
  C169     1.0000 0.80830  0.65460  0.71250  Biso   1.000  C
  C170     1.0000 0.69170  0.34540  0.21250  Biso   1.000  C
  C171     1.0000 0.19170  0.15460  0.78750  Biso   1.000  C
  C172     1.0000 0.30830  0.84540  0.28750  Biso   1.000  C
  C173     1.0000 0.19170  0.34540  0.28750  Biso   1.000  C
  C174     1.0000 0.30830  0.65460  0.78750  Biso   1.000  C
  C175     1.0000 0.80830  0.84540  0.21250  Biso   1.000  C
  C176     1.0000 0.69170  0.15460  0.71250  Biso   1.000  C
  H121     1.0000 0.72990  0.64730  0.74110  Biso   1.000  H
  H122     1.0000 0.77010  0.35270  0.24110  Biso   1.000  H
  H123     1.0000 0.27010  0.14730  0.75890  Biso   1.000  H
  H124     1.0000 0.22990  0.85270  0.25890  Biso   1.000  H
  H125     1.0000 0.27010  0.35270  0.25890  Biso   1.000  H
  H126     1.0000 0.22990  0.64730  0.75890  Biso   1.000  H
  H127     1.0000 0.72990  0.85270  0.24110  Biso   1.000  H
  H128     1.0000 0.77010  0.14730  0.74110  Biso   1.000  H
  C177     1.0000 0.82160  0.70500  0.69200  Biso   1.000  C
  C178     1.0000 0.67840  0.29500  0.19200  Biso   1.000  C
  C179     1.0000 0.17840  0.20500  0.80800  Biso   1.000  C
  C180     1.0000 0.32160  0.79500  0.30800  Biso   1.000  C
  C181     1.0000 0.17840  0.29500  0.30800  Biso   1.000  C
  C182     1.0000 0.32160  0.70500  0.80800  Biso   1.000  C
  C183     1.0000 0.82160  0.79500  0.19200  Biso   1.000  C
  C184     1.0000 0.67840  0.20500  0.69200  Biso   1.000  C
  H129     1.0000 0.74990  0.73220  0.70660  Biso   1.000  H
  H130     1.0000 0.75010  0.26780  0.20660  Biso   1.000  H
  H131     1.0000 0.25010  0.23220  0.79340  Biso   1.000  H
  H132     1.0000 0.24990  0.76780  0.29340  Biso   1.000  H
  H133     1.0000 0.25010  0.26780  0.29340  Biso   1.000  H
  H134     1.0000 0.24990  0.73220  0.79340  Biso   1.000  H
  H135     1.0000 0.74990  0.76780  0.20660  Biso   1.000  H
  H136     1.0000 0.75010  0.23220  0.70660  Biso   1.000  H
  C185     1.0000 0.93830  0.71490  0.65090  Biso   1.000  C
  C186     1.0000 0.56170  0.28510  0.15090  Biso   1.000  C
  C187     1.0000 0.06170  0.21490  0.84910  Biso   1.000  C
  C188     1.0000 0.43830  0.78510  0.34910  Biso   1.000  C
  C189     1.0000 0.06170  0.28510  0.34910  Biso   1.000  C
  C190     1.0000 0.43830  0.71490  0.84910  Biso   1.000  C
  C191     1.0000 0.93830  0.78510  0.15090  Biso   1.000  C
  C192     1.0000 0.56170  0.21490  0.65090  Biso   1.000  C
  H137     1.0000 0.94580  0.74920  0.63810  Biso   1.000  H
  H138     1.0000 0.55420  0.25080  0.13810  Biso   1.000  H
  H139     1.0000 0.05420  0.24920  0.86190  Biso   1.000  H
  H140     1.0000 0.44580  0.75080  0.36190  Biso   1.000  H
  H141     1.0000 0.05420  0.25080  0.36190  Biso   1.000  H
  H142     1.0000 0.44580  0.74920  0.86190  Biso   1.000  H
  H143     1.0000 0.94580  0.75080  0.13810  Biso   1.000  H
  H144     1.0000 0.55420  0.24920  0.63810  Biso   1.000  H
  Cl1      1.0000 0.05540  0.49537  0.59912  Biso   1.000  Cl
  Cl2      1.0000 0.44460  0.50463  0.09912  Biso   1.000  Cl
  Cl3      1.0000 0.94460  0.99537  0.90088  Biso   1.000  Cl
  Cl4      1.0000 0.55540  0.00463  0.40088  Biso   1.000  Cl
  Cl5      1.0000 0.94460  0.50463  0.40088  Biso   1.000  Cl
  Cl6      1.0000 0.55540  0.49537  0.90088  Biso   1.000  Cl
  Cl7      1.0000 0.05540  0.00463  0.09912  Biso   1.000  Cl
  Cl8      1.0000 0.44460  0.99537  0.59912  Biso   1.000  Cl
