data_image0
_cell_length_a       32.013
_cell_length_b       7.894
_cell_length_c       20.331
_cell_angle_alpha    90
_cell_angle_beta     119.22
_cell_angle_gamma    90

_symmetry_space_group_name_H-M    "P 1"
_symmetry_int_tables_number       1

loop_
  _symmetry_equiv_pos_as_xyz
  'x, y, z'

loop_
  _atom_site_label
  _atom_site_occupancy
  _atom_site_fract_x
  _atom_site_fract_y
  _atom_site_fract_z
  _atom_site_thermal_displace_type
  _atom_site_B_iso_or_equiv
  _atom_site_type_symbol
  Cu1      1.0000 0.09403  0.92417  0.79204  Biso   1.000  Cu
  Cu2      1.0000 0.90597  0.92417  0.70796  Biso   1.000  Cu
  Cu3      1.0000 0.59403  0.42417  0.79204  Biso   1.000  Cu
  Cu4      1.0000 0.40597  0.42417  0.70796  Biso   1.000  Cu
  Cu5      1.0000 0.90597  0.07583  0.20796  Biso   1.000  Cu
  Cu6      1.0000 0.09403  0.07583  0.29204  Biso   1.000  Cu
  Cu7      1.0000 0.40597  0.57583  0.20796  Biso   1.000  Cu
  Cu8      1.0000 0.59403  0.57583  0.29204  Biso   1.000  Cu
  I1       1.0000 0.07126  0.22815  0.74373  Biso   1.000  I
  I2       1.0000 0.92874  0.22815  0.75627  Biso   1.000  I
  I3       1.0000 0.57126  0.72815  0.74373  Biso   1.000  I
  I4       1.0000 0.42874  0.72815  0.75627  Biso   1.000  I
  I5       1.0000 0.92874  0.77185  0.25627  Biso   1.000  I
  I6       1.0000 0.07126  0.77185  0.24373  Biso   1.000  I
  I7       1.0000 0.42874  0.27185  0.25627  Biso   1.000  I
  I8       1.0000 0.57126  0.27185  0.24373  Biso   1.000  I
  O1       1.0000 0.97421  0.71110  0.99080  Biso   1.000  O
  O2       1.0000 0.02579  0.71110  0.50920  Biso   1.000  O
  O3       1.0000 0.47421  0.21110  0.99080  Biso   1.000  O
  O4       1.0000 0.52579  0.21110  0.50920  Biso   1.000  O
  O5       1.0000 0.02579  0.28890  0.00920  Biso   1.000  O
  O6       1.0000 0.97421  0.28890  0.49080  Biso   1.000  O
  O7       1.0000 0.52579  0.78890  0.00920  Biso   1.000  O
  O8       1.0000 0.47421  0.78890  0.49080  Biso   1.000  O
  O9       1.0000 0.84849  0.47600  0.94510  Biso   1.000  O
  O10      1.0000 0.15151  0.47600  0.55490  Biso   1.000  O
  O11      1.0000 0.34849  0.97600  0.94510  Biso   1.000  O
  O12      1.0000 0.65151  0.97600  0.55490  Biso   1.000  O
  O13      1.0000 0.15151  0.52400  0.05490  Biso   1.000  O
  O14      1.0000 0.84849  0.52400  0.44510  Biso   1.000  O
  O15      1.0000 0.65151  0.02400  0.05490  Biso   1.000  O
  O16      1.0000 0.34849  0.02400  0.44510  Biso   1.000  O
  O17      1.0000 0.82956  0.00090  0.07800  Biso   1.000  O
  O18      1.0000 0.17044  0.00090  0.42200  Biso   1.000  O
  O19      1.0000 0.32956  0.50090  0.07800  Biso   1.000  O
  O20      1.0000 0.67044  0.50090  0.42200  Biso   1.000  O
  O21      1.0000 0.17044  0.99910  0.92200  Biso   1.000  O
  O22      1.0000 0.82956  0.99910  0.57800  Biso   1.000  O
  O23      1.0000 0.67044  0.49910  0.92200  Biso   1.000  O
  O24      1.0000 0.32956  0.49910  0.57800  Biso   1.000  O
  N1       1.0000 0.05847  0.80140  0.83410  Biso   1.000  N
  N2       1.0000 0.94153  0.80140  0.66590  Biso   1.000  N
  N3       1.0000 0.55847  0.30140  0.83410  Biso   1.000  N
  N4       1.0000 0.44153  0.30140  0.66590  Biso   1.000  N
  N5       1.0000 0.94153  0.19860  0.16590  Biso   1.000  N
  N6       1.0000 0.05847  0.19860  0.33410  Biso   1.000  N
  N7       1.0000 0.44153  0.69860  0.16590  Biso   1.000  N
  N8       1.0000 0.55847  0.69860  0.33410  Biso   1.000  N
  N9       1.0000 0.97531  0.88620  0.90380  Biso   1.000  N
  N10      1.0000 0.02469  0.88620  0.59620  Biso   1.000  N
  N11      1.0000 0.47531  0.38620  0.90380  Biso   1.000  N
  N12      1.0000 0.52469  0.38620  0.59620  Biso   1.000  N
  N13      1.0000 0.02469  0.11380  0.09620  Biso   1.000  N
  N14      1.0000 0.97531  0.11380  0.40380  Biso   1.000  N
  N15      1.0000 0.52469  0.61380  0.09620  Biso   1.000  N
  N16      1.0000 0.47531  0.61380  0.40380  Biso   1.000  N
  H1       1.0000 0.96580  0.98310  0.88210  Biso   1.000  H
  H2       1.0000 0.03420  0.98310  0.61790  Biso   1.000  H
  H3       1.0000 0.46580  0.48310  0.88210  Biso   1.000  H
  H4       1.0000 0.53420  0.48310  0.61790  Biso   1.000  H
  H5       1.0000 0.03420  0.01690  0.11790  Biso   1.000  H
  H6       1.0000 0.96580  0.01690  0.38210  Biso   1.000  H
  H7       1.0000 0.53420  0.51690  0.11790  Biso   1.000  H
  H8       1.0000 0.46580  0.51690  0.38210  Biso   1.000  H
  N17      1.0000 0.86818  0.43760  0.85350  Biso   1.000  N
  N18      1.0000 0.13182  0.43760  0.64650  Biso   1.000  N
  N19      1.0000 0.36818  0.93760  0.85350  Biso   1.000  N
  N20      1.0000 0.63182  0.93760  0.64650  Biso   1.000  N
  N21      1.0000 0.13182  0.56240  0.14650  Biso   1.000  N
  N22      1.0000 0.86818  0.56240  0.35350  Biso   1.000  N
  N23      1.0000 0.63182  0.06240  0.14650  Biso   1.000  N
  N24      1.0000 0.36818  0.06240  0.35350  Biso   1.000  N
  H9       1.0000 0.88000  0.36800  0.83440  Biso   1.000  H
  H10      1.0000 0.12000  0.36800  0.66560  Biso   1.000  H
  H11      1.0000 0.38000  0.86800  0.83440  Biso   1.000  H
  H12      1.0000 0.62000  0.86800  0.66560  Biso   1.000  H
  H13      1.0000 0.12000  0.63200  0.16560  Biso   1.000  H
  H14      1.0000 0.88000  0.63200  0.33440  Biso   1.000  H
  H15      1.0000 0.62000  0.13200  0.16560  Biso   1.000  H
  H16      1.0000 0.38000  0.13200  0.33440  Biso   1.000  H
  N25      1.0000 0.86800  0.82040  0.75170  Biso   1.000  N
  N26      1.0000 0.13200  0.82040  0.74830  Biso   1.000  N
  N27      1.0000 0.36800  0.32040  0.75170  Biso   1.000  N
  N28      1.0000 0.63200  0.32040  0.74830  Biso   1.000  N
  N29      1.0000 0.13200  0.17960  0.24830  Biso   1.000  N
  N30      1.0000 0.86800  0.17960  0.25170  Biso   1.000  N
  N31      1.0000 0.63200  0.67960  0.24830  Biso   1.000  N
  N32      1.0000 0.36800  0.67960  0.25170  Biso   1.000  N
  N33      1.0000 0.83169  0.73390  0.03690  Biso   1.000  N
  N34      1.0000 0.16831  0.73390  0.46310  Biso   1.000  N
  N35      1.0000 0.33169  0.23390  0.03690  Biso   1.000  N
  N36      1.0000 0.66831  0.23390  0.46310  Biso   1.000  N
  N37      1.0000 0.16831  0.26610  0.96310  Biso   1.000  N
  N38      1.0000 0.83169  0.26610  0.53690  Biso   1.000  N
  N39      1.0000 0.66831  0.76610  0.96310  Biso   1.000  N
  N40      1.0000 0.33169  0.76610  0.53690  Biso   1.000  N
  H17      1.0000 0.84100  0.67600  0.01060  Biso   1.000  H
  H18      1.0000 0.15900  0.67600  0.48940  Biso   1.000  H
  H19      1.0000 0.34100  0.17600  0.01060  Biso   1.000  H
  H20      1.0000 0.65900  0.17600  0.48940  Biso   1.000  H
  H21      1.0000 0.15900  0.32400  0.98940  Biso   1.000  H
  H22      1.0000 0.84100  0.32400  0.51060  Biso   1.000  H
  H23      1.0000 0.65900  0.82400  0.98940  Biso   1.000  H
  H24      1.0000 0.34100  0.82400  0.51060  Biso   1.000  H
  N41      1.0000 0.76341  0.62710  0.13490  Biso   1.000  N
  N42      1.0000 0.23659  0.62710  0.36510  Biso   1.000  N
  N43      1.0000 0.26341  0.12710  0.13490  Biso   1.000  N
  N44      1.0000 0.73659  0.12710  0.36510  Biso   1.000  N
  N45      1.0000 0.23659  0.37290  0.86510  Biso   1.000  N
  N46      1.0000 0.76341  0.37290  0.63490  Biso   1.000  N
  N47      1.0000 0.73659  0.87290  0.86510  Biso   1.000  N
  N48      1.0000 0.26341  0.87290  0.63490  Biso   1.000  N
  C1       1.0000 0.06380  0.63360  0.84390  Biso   1.000  C
  C2       1.0000 0.93620  0.63360  0.65610  Biso   1.000  C
  C3       1.0000 0.56380  0.13360  0.84390  Biso   1.000  C
  C4       1.0000 0.43620  0.13360  0.65610  Biso   1.000  C
  C5       1.0000 0.93620  0.36640  0.15610  Biso   1.000  C
  C6       1.0000 0.06380  0.36640  0.34390  Biso   1.000  C
  C7       1.0000 0.43620  0.86640  0.15610  Biso   1.000  C
  C8       1.0000 0.56380  0.86640  0.34390  Biso   1.000  C
  H25      1.0000 0.08400  0.57830  0.83010  Biso   1.000  H
  H26      1.0000 0.91600  0.57830  0.66990  Biso   1.000  H
  H27      1.0000 0.58400  0.07830  0.83010  Biso   1.000  H
  H28      1.0000 0.41600  0.07830  0.66990  Biso   1.000  H
  H29      1.0000 0.91600  0.42170  0.16990  Biso   1.000  H
  H30      1.0000 0.08400  0.42170  0.33010  Biso   1.000  H
  H31      1.0000 0.41600  0.92170  0.16990  Biso   1.000  H
  H32      1.0000 0.58400  0.92170  0.33010  Biso   1.000  H
  C9       1.0000 0.04090  0.54020  0.87310  Biso   1.000  C
  C10      1.0000 0.95910  0.54020  0.62690  Biso   1.000  C
  C11      1.0000 0.54090  0.04020  0.87310  Biso   1.000  C
  C12      1.0000 0.45910  0.04020  0.62690  Biso   1.000  C
  C13      1.0000 0.95910  0.45980  0.12690  Biso   1.000  C
  C14      1.0000 0.04090  0.45980  0.37310  Biso   1.000  C
  C15      1.0000 0.45910  0.95980  0.12690  Biso   1.000  C
  C16      1.0000 0.54090  0.95980  0.37310  Biso   1.000  C
  H33      1.0000 0.04500  0.42330  0.87760  Biso   1.000  H
  H34      1.0000 0.95500  0.42330  0.62240  Biso   1.000  H
  H35      1.0000 0.54500  0.92330  0.87760  Biso   1.000  H
  H36      1.0000 0.45500  0.92330  0.62240  Biso   1.000  H
  H37      1.0000 0.95500  0.57670  0.12240  Biso   1.000  H
  H38      1.0000 0.04500  0.57670  0.37760  Biso   1.000  H
  H39      1.0000 0.45500  0.07670  0.12240  Biso   1.000  H
  H40      1.0000 0.54500  0.07670  0.37760  Biso   1.000  H
  C17      1.0000 0.01191  0.61830  0.89580  Biso   1.000  C
  C18      1.0000 0.98809  0.61830  0.60420  Biso   1.000  C
  C19      1.0000 0.51191  0.11830  0.89580  Biso   1.000  C
  C20      1.0000 0.48809  0.11830  0.60420  Biso   1.000  C
  C21      1.0000 0.98809  0.38170  0.10420  Biso   1.000  C
  C22      1.0000 0.01191  0.38170  0.39580  Biso   1.000  C
  C23      1.0000 0.48809  0.88170  0.10420  Biso   1.000  C
  C24      1.0000 0.51191  0.88170  0.39580  Biso   1.000  C
  H41      1.0000 0.99670  0.55640  0.91700  Biso   1.000  H
  H42      1.0000 0.00330  0.55640  0.58300  Biso   1.000  H
  H43      1.0000 0.49670  0.05640  0.91700  Biso   1.000  H
  H44      1.0000 0.50330  0.05640  0.58300  Biso   1.000  H
  H45      1.0000 0.00330  0.44360  0.08300  Biso   1.000  H
  H46      1.0000 0.99670  0.44360  0.41700  Biso   1.000  H
  H47      1.0000 0.50330  0.94360  0.08300  Biso   1.000  H
  H48      1.0000 0.49670  0.94360  0.41700  Biso   1.000  H
  C25      1.0000 0.02940  0.87690  0.85440  Biso   1.000  C
  C26      1.0000 0.97060  0.87690  0.64560  Biso   1.000  C
  C27      1.0000 0.52940  0.37690  0.85440  Biso   1.000  C
  C28      1.0000 0.47060  0.37690  0.64560  Biso   1.000  C
  C29      1.0000 0.97060  0.12310  0.14560  Biso   1.000  C
  C30      1.0000 0.02940  0.12310  0.35440  Biso   1.000  C
  C31      1.0000 0.47060  0.62310  0.14560  Biso   1.000  C
  C32      1.0000 0.52940  0.62310  0.35440  Biso   1.000  C
  H49      1.0000 0.02460  0.99300  0.84690  Biso   1.000  H
  H50      1.0000 0.97540  0.99300  0.65310  Biso   1.000  H
  H51      1.0000 0.52460  0.49300  0.84690  Biso   1.000  H
  H52      1.0000 0.47540  0.49300  0.65310  Biso   1.000  H
  H53      1.0000 0.97540  0.00700  0.15310  Biso   1.000  H
  H54      1.0000 0.02460  0.00700  0.34690  Biso   1.000  H
  H55      1.0000 0.47540  0.50700  0.15310  Biso   1.000  H
  H56      1.0000 0.52460  0.50700  0.34690  Biso   1.000  H
  C33      1.0000 0.00582  0.79100  0.88640  Biso   1.000  C
  C34      1.0000 0.99418  0.79100  0.61360  Biso   1.000  C
  C35      1.0000 0.50582  0.29100  0.88640  Biso   1.000  C
  C36      1.0000 0.49418  0.29100  0.61360  Biso   1.000  C
  C37      1.0000 0.99418  0.20900  0.11360  Biso   1.000  C
  C38      1.0000 0.00582  0.20900  0.38640  Biso   1.000  C
  C39      1.0000 0.49418  0.70900  0.11360  Biso   1.000  C
  C40      1.0000 0.50582  0.70900  0.38640  Biso   1.000  C
  C41      1.0000 0.95965  0.83660  0.95230  Biso   1.000  C
  C42      1.0000 0.04035  0.83660  0.54770  Biso   1.000  C
  C43      1.0000 0.45965  0.33660  0.95230  Biso   1.000  C
  C44      1.0000 0.54035  0.33660  0.54770  Biso   1.000  C
  C45      1.0000 0.04035  0.16340  0.04770  Biso   1.000  C
  C46      1.0000 0.95965  0.16340  0.45230  Biso   1.000  C
  C47      1.0000 0.54035  0.66340  0.04770  Biso   1.000  C
  C48      1.0000 0.45965  0.66340  0.45230  Biso   1.000  C
  C49      1.0000 0.92244  0.94730  0.95590  Biso   1.000  C
  C50      1.0000 0.07756  0.94730  0.54410  Biso   1.000  C
  C51      1.0000 0.42244  0.44730  0.95590  Biso   1.000  C
  C52      1.0000 0.57756  0.44730  0.54410  Biso   1.000  C
  C53      1.0000 0.07756  0.05270  0.04410  Biso   1.000  C
  C54      1.0000 0.92244  0.05270  0.45590  Biso   1.000  C
  C55      1.0000 0.57756  0.55270  0.04410  Biso   1.000  C
  C56      1.0000 0.42244  0.55270  0.45590  Biso   1.000  C
  C57      1.0000 0.91174  0.11280  0.92960  Biso   1.000  C
  C58      1.0000 0.08826  0.11280  0.57040  Biso   1.000  C
  C59      1.0000 0.41174  0.61280  0.92960  Biso   1.000  C
  C60      1.0000 0.58826  0.61280  0.57040  Biso   1.000  C
  C61      1.0000 0.08826  0.88720  0.07040  Biso   1.000  C
  C62      1.0000 0.91174  0.88720  0.42960  Biso   1.000  C
  C63      1.0000 0.58826  0.38720  0.07040  Biso   1.000  C
  C64      1.0000 0.41174  0.38720  0.42960  Biso   1.000  C
  H57      1.0000 0.92720  0.16150  0.90560  Biso   1.000  H
  H58      1.0000 0.07280  0.16150  0.59440  Biso   1.000  H
  H59      1.0000 0.42720  0.66150  0.90560  Biso   1.000  H
  H60      1.0000 0.57280  0.66150  0.59440  Biso   1.000  H
  H61      1.0000 0.07280  0.83850  0.09440  Biso   1.000  H
  H62      1.0000 0.92720  0.83850  0.40560  Biso   1.000  H
  H63      1.0000 0.57280  0.33850  0.09440  Biso   1.000  H
  H64      1.0000 0.42720  0.33850  0.40560  Biso   1.000  H
  C65      1.0000 0.87836  0.20540  0.93870  Biso   1.000  C
  C66      1.0000 0.12164  0.20540  0.56130  Biso   1.000  C
  C67      1.0000 0.37836  0.70540  0.93870  Biso   1.000  C
  C68      1.0000 0.62164  0.70540  0.56130  Biso   1.000  C
  C69      1.0000 0.12164  0.79460  0.06130  Biso   1.000  C
  C70      1.0000 0.87836  0.79460  0.43870  Biso   1.000  C
  C71      1.0000 0.62164  0.29460  0.06130  Biso   1.000  C
  C72      1.0000 0.37836  0.29460  0.43870  Biso   1.000  C
  C73      1.0000 0.86419  0.38550  0.91340  Biso   1.000  C
  C74      1.0000 0.13581  0.38550  0.58660  Biso   1.000  C
  C75      1.0000 0.36419  0.88550  0.91340  Biso   1.000  C
  C76      1.0000 0.63581  0.88550  0.58660  Biso   1.000  C
  C77      1.0000 0.13581  0.61450  0.08660  Biso   1.000  C
  C78      1.0000 0.86419  0.61450  0.41340  Biso   1.000  C
  C79      1.0000 0.63581  0.11450  0.08660  Biso   1.000  C
  C80      1.0000 0.36419  0.11450  0.41340  Biso   1.000  C
  C81      1.0000 0.85396  0.60060  0.81980  Biso   1.000  C
  C82      1.0000 0.14604  0.60060  0.68020  Biso   1.000  C
  C83      1.0000 0.35396  0.10060  0.81980  Biso   1.000  C
  C84      1.0000 0.64604  0.10060  0.68020  Biso   1.000  C
  C85      1.0000 0.14604  0.39940  0.18020  Biso   1.000  C
  C86      1.0000 0.85396  0.39940  0.31980  Biso   1.000  C
  C87      1.0000 0.64604  0.89940  0.18020  Biso   1.000  C
  C88      1.0000 0.35396  0.89940  0.31980  Biso   1.000  C
  C89      1.0000 0.87857  0.66830  0.78600  Biso   1.000  C
  C90      1.0000 0.12143  0.66830  0.71400  Biso   1.000  C
  C91      1.0000 0.37857  0.16830  0.78600  Biso   1.000  C
  C92      1.0000 0.62143  0.16830  0.71400  Biso   1.000  C
  C93      1.0000 0.12143  0.33170  0.21400  Biso   1.000  C
  C94      1.0000 0.87857  0.33170  0.28600  Biso   1.000  C
  C95      1.0000 0.62143  0.83170  0.21400  Biso   1.000  C
  C96      1.0000 0.37857  0.83170  0.28600  Biso   1.000  C
  H65      1.0000 0.90350  0.60610  0.78690  Biso   1.000  H
  H66      1.0000 0.09650  0.60610  0.71310  Biso   1.000  H
  H67      1.0000 0.40350  0.10610  0.78690  Biso   1.000  H
  H68      1.0000 0.59650  0.10610  0.71310  Biso   1.000  H
  H69      1.0000 0.09650  0.39390  0.21310  Biso   1.000  H
  H70      1.0000 0.90350  0.39390  0.28690  Biso   1.000  H
  H71      1.0000 0.59650  0.89390  0.21310  Biso   1.000  H
  H72      1.0000 0.40350  0.89390  0.28690  Biso   1.000  H
  C97      1.0000 0.81660  0.69260  0.81780  Biso   1.000  C
  C98      1.0000 0.18340  0.69260  0.68220  Biso   1.000  C
  C99      1.0000 0.31660  0.19260  0.81780  Biso   1.000  C
  C100     1.0000 0.68340  0.19260  0.68220  Biso   1.000  C
  C101     1.0000 0.18340  0.30740  0.18220  Biso   1.000  C
  C102     1.0000 0.81660  0.30740  0.31780  Biso   1.000  C
  C103     1.0000 0.68340  0.80740  0.18220  Biso   1.000  C
  C104     1.0000 0.31660  0.80740  0.31780  Biso   1.000  C
  H73      1.0000 0.79930  0.65030  0.83990  Biso   1.000  H
  H74      1.0000 0.20070  0.65030  0.66010  Biso   1.000  H
  H75      1.0000 0.29930  0.15030  0.83990  Biso   1.000  H
  H76      1.0000 0.70070  0.15030  0.66010  Biso   1.000  H
  H77      1.0000 0.20070  0.34970  0.16010  Biso   1.000  H
  H78      1.0000 0.79930  0.34970  0.33990  Biso   1.000  H
  H79      1.0000 0.70070  0.84970  0.16010  Biso   1.000  H
  H80      1.0000 0.29930  0.84970  0.33990  Biso   1.000  H
  C105     1.0000 0.80550  0.84650  0.78270  Biso   1.000  C
  C106     1.0000 0.19450  0.84650  0.71730  Biso   1.000  C
  C107     1.0000 0.30550  0.34650  0.78270  Biso   1.000  C
  C108     1.0000 0.69450  0.34650  0.71730  Biso   1.000  C
  C109     1.0000 0.19450  0.15350  0.21730  Biso   1.000  C
  C110     1.0000 0.80550  0.15350  0.28270  Biso   1.000  C
  C111     1.0000 0.69450  0.65350  0.21730  Biso   1.000  C
  C112     1.0000 0.30550  0.65350  0.28270  Biso   1.000  C
  H81      1.0000 0.78000  0.90920  0.77960  Biso   1.000  H
  H82      1.0000 0.22000  0.90920  0.72040  Biso   1.000  H
  H83      1.0000 0.28000  0.40920  0.77960  Biso   1.000  H
  H84      1.0000 0.72000  0.40920  0.72040  Biso   1.000  H
  H85      1.0000 0.22000  0.09080  0.22040  Biso   1.000  H
  H86      1.0000 0.78000  0.09080  0.27960  Biso   1.000  H
  H87      1.0000 0.72000  0.59080  0.22040  Biso   1.000  H
  H88      1.0000 0.28000  0.59080  0.27960  Biso   1.000  H
  C113     1.0000 0.83240  0.90800  0.75170  Biso   1.000  C
  C114     1.0000 0.16760  0.90800  0.74830  Biso   1.000  C
  C115     1.0000 0.33240  0.40800  0.75170  Biso   1.000  C
  C116     1.0000 0.66760  0.40800  0.74830  Biso   1.000  C
  C117     1.0000 0.16760  0.09200  0.24830  Biso   1.000  C
  C118     1.0000 0.83240  0.09200  0.25170  Biso   1.000  C
  C119     1.0000 0.66760  0.59200  0.24830  Biso   1.000  C
  C120     1.0000 0.33240  0.59200  0.25170  Biso   1.000  C
  H89      1.0000 0.82540  0.01520  0.73000  Biso   1.000  H
  H90      1.0000 0.17460  0.01520  0.77000  Biso   1.000  H
  H91      1.0000 0.32540  0.51520  0.73000  Biso   1.000  H
  H92      1.0000 0.67460  0.51520  0.77000  Biso   1.000  H
  H93      1.0000 0.17460  0.98480  0.27000  Biso   1.000  H
  H94      1.0000 0.82540  0.98480  0.23000  Biso   1.000  H
  H95      1.0000 0.67460  0.48480  0.27000  Biso   1.000  H
  H96      1.0000 0.32540  0.48480  0.23000  Biso   1.000  H
  C121     1.0000 0.85652  0.13240  0.97590  Biso   1.000  C
  C122     1.0000 0.14348  0.13240  0.52410  Biso   1.000  C
  C123     1.0000 0.35652  0.63240  0.97590  Biso   1.000  C
  C124     1.0000 0.64348  0.63240  0.52410  Biso   1.000  C
  C125     1.0000 0.14348  0.86760  0.02410  Biso   1.000  C
  C126     1.0000 0.85652  0.86760  0.47590  Biso   1.000  C
  C127     1.0000 0.64348  0.36760  0.02410  Biso   1.000  C
  C128     1.0000 0.35652  0.36760  0.47590  Biso   1.000  C
  H97      1.0000 0.83510  0.19680  0.98410  Biso   1.000  H
  H98      1.0000 0.16490  0.19680  0.51590  Biso   1.000  H
  H99      1.0000 0.33510  0.69680  0.98410  Biso   1.000  H
  H100     1.0000 0.66490  0.69680  0.51590  Biso   1.000  H
  H101     1.0000 0.16490  0.80320  0.01590  Biso   1.000  H
  H102     1.0000 0.83510  0.80320  0.48410  Biso   1.000  H
  H103     1.0000 0.66490  0.30320  0.01590  Biso   1.000  H
  H104     1.0000 0.33510  0.30320  0.48410  Biso   1.000  H
  C129     1.0000 0.89908  0.87540  0.99140  Biso   1.000  C
  C130     1.0000 0.10092  0.87540  0.50860  Biso   1.000  C
  C131     1.0000 0.39908  0.37540  0.99140  Biso   1.000  C
  C132     1.0000 0.60092  0.37540  0.50860  Biso   1.000  C
  C133     1.0000 0.10092  0.12460  0.00860  Biso   1.000  C
  C134     1.0000 0.89908  0.12460  0.49140  Biso   1.000  C
  C135     1.0000 0.60092  0.62460  0.00860  Biso   1.000  C
  C136     1.0000 0.39908  0.62460  0.49140  Biso   1.000  C
  H105     1.0000 0.90610  0.76440  0.00860  Biso   1.000  H
  H106     1.0000 0.09390  0.76440  0.49140  Biso   1.000  H
  H107     1.0000 0.40610  0.26440  0.00860  Biso   1.000  H
  H108     1.0000 0.59390  0.26440  0.49140  Biso   1.000  H
  H109     1.0000 0.09390  0.23560  0.99140  Biso   1.000  H
  H110     1.0000 0.90610  0.23560  0.50860  Biso   1.000  H
  H111     1.0000 0.59390  0.73560  0.99140  Biso   1.000  H
  H112     1.0000 0.40610  0.73560  0.50860  Biso   1.000  H
  C137     1.0000 0.86542  0.96610  0.00160  Biso   1.000  C
  C138     1.0000 0.13458  0.96610  0.49840  Biso   1.000  C
  C139     1.0000 0.36542  0.46610  0.00160  Biso   1.000  C
  C140     1.0000 0.63458  0.46610  0.49840  Biso   1.000  C
  C141     1.0000 0.13458  0.03390  0.99840  Biso   1.000  C
  C142     1.0000 0.86542  0.03390  0.50160  Biso   1.000  C
  C143     1.0000 0.63458  0.53390  0.99840  Biso   1.000  C
  C144     1.0000 0.36542  0.53390  0.50160  Biso   1.000  C
  C145     1.0000 0.84078  0.90170  0.04230  Biso   1.000  C
  C146     1.0000 0.15922  0.90170  0.45770  Biso   1.000  C
  C147     1.0000 0.34078  0.40170  0.04230  Biso   1.000  C
  C148     1.0000 0.65922  0.40170  0.45770  Biso   1.000  C
  C149     1.0000 0.15922  0.09830  0.95770  Biso   1.000  C
  C150     1.0000 0.84078  0.09830  0.54230  Biso   1.000  C
  C151     1.0000 0.65922  0.59830  0.95770  Biso   1.000  C
  C152     1.0000 0.34078  0.59830  0.54230  Biso   1.000  C
  C153     1.0000 0.80845  0.64290  0.06980  Biso   1.000  C
  C154     1.0000 0.19155  0.64290  0.43020  Biso   1.000  C
  C155     1.0000 0.30845  0.14290  0.06980  Biso   1.000  C
  C156     1.0000 0.69155  0.14290  0.43020  Biso   1.000  C
  C157     1.0000 0.19155  0.35710  0.93020  Biso   1.000  C
  C158     1.0000 0.80845  0.35710  0.56980  Biso   1.000  C
  C159     1.0000 0.69155  0.85710  0.93020  Biso   1.000  C
  C160     1.0000 0.30845  0.85710  0.56980  Biso   1.000  C
  C161     1.0000 0.80700  0.46810  0.06350  Biso   1.000  C
  C162     1.0000 0.19300  0.46810  0.43650  Biso   1.000  C
  C163     1.0000 0.30700  0.96810  0.06350  Biso   1.000  C
  C164     1.0000 0.69300  0.96810  0.43650  Biso   1.000  C
  C165     1.0000 0.19300  0.53190  0.93650  Biso   1.000  C
  C166     1.0000 0.80700  0.53190  0.56350  Biso   1.000  C
  C167     1.0000 0.69300  0.03190  0.93650  Biso   1.000  C
  C168     1.0000 0.30700  0.03190  0.56350  Biso   1.000  C
  H113     1.0000 0.82170  0.41380  0.03960  Biso   1.000  H
  H114     1.0000 0.17830  0.41380  0.46040  Biso   1.000  H
  H115     1.0000 0.32170  0.91380  0.03960  Biso   1.000  H
  H116     1.0000 0.67830  0.91380  0.46040  Biso   1.000  H
  H117     1.0000 0.17830  0.58620  0.96040  Biso   1.000  H
  H118     1.0000 0.82170  0.58620  0.53960  Biso   1.000  H
  H119     1.0000 0.67830  0.08620  0.96040  Biso   1.000  H
  H120     1.0000 0.32170  0.08620  0.53960  Biso   1.000  H
  C169     1.0000 0.78360  0.37570  0.09290  Biso   1.000  C
  C170     1.0000 0.21640  0.37570  0.40710  Biso   1.000  C
  C171     1.0000 0.28360  0.87570  0.09290  Biso   1.000  C
  C172     1.0000 0.71640  0.87570  0.40710  Biso   1.000  C
  C173     1.0000 0.21640  0.62430  0.90710  Biso   1.000  C
  C174     1.0000 0.78360  0.62430  0.59290  Biso   1.000  C
  C175     1.0000 0.71640  0.12430  0.90710  Biso   1.000  C
  C176     1.0000 0.28360  0.12430  0.59290  Biso   1.000  C
  H121     1.0000 0.78200  0.25830  0.08870  Biso   1.000  H
  H122     1.0000 0.21800  0.25830  0.41130  Biso   1.000  H
  H123     1.0000 0.28200  0.75830  0.08870  Biso   1.000  H
  H124     1.0000 0.71800  0.75830  0.41130  Biso   1.000  H
  H125     1.0000 0.21800  0.74170  0.91130  Biso   1.000  H
  H126     1.0000 0.78200  0.74170  0.58870  Biso   1.000  H
  H127     1.0000 0.71800  0.24170  0.91130  Biso   1.000  H
  H128     1.0000 0.28200  0.24170  0.58870  Biso   1.000  H
  C177     1.0000 0.76310  0.45870  0.12820  Biso   1.000  C
  C178     1.0000 0.23690  0.45870  0.37180  Biso   1.000  C
  C179     1.0000 0.26310  0.95870  0.12820  Biso   1.000  C
  C180     1.0000 0.73690  0.95870  0.37180  Biso   1.000  C
  C181     1.0000 0.23690  0.54130  0.87180  Biso   1.000  C
  C182     1.0000 0.76310  0.54130  0.62820  Biso   1.000  C
  C183     1.0000 0.73690  0.04130  0.87180  Biso   1.000  C
  C184     1.0000 0.26310  0.04130  0.62820  Biso   1.000  C
  H129     1.0000 0.74800  0.39480  0.14880  Biso   1.000  H
  H130     1.0000 0.25200  0.39480  0.35120  Biso   1.000  H
  H131     1.0000 0.24800  0.89480  0.14880  Biso   1.000  H
  H132     1.0000 0.75200  0.89480  0.35120  Biso   1.000  H
  H133     1.0000 0.25200  0.60520  0.85120  Biso   1.000  H
  H134     1.0000 0.74800  0.60520  0.64880  Biso   1.000  H
  H135     1.0000 0.75200  0.10520  0.85120  Biso   1.000  H
  H136     1.0000 0.24800  0.10520  0.64880  Biso   1.000  H
  C185     1.0000 0.78570  0.71660  0.10510  Biso   1.000  C
  C186     1.0000 0.21430  0.71660  0.39490  Biso   1.000  C
  C187     1.0000 0.28570  0.21660  0.10510  Biso   1.000  C
  C188     1.0000 0.71430  0.21660  0.39490  Biso   1.000  C
  C189     1.0000 0.21430  0.28340  0.89490  Biso   1.000  C
  C190     1.0000 0.78570  0.28340  0.60510  Biso   1.000  C
  C191     1.0000 0.71430  0.78340  0.89490  Biso   1.000  C
  C192     1.0000 0.28570  0.78340  0.60510  Biso   1.000  C
  H137     1.0000 0.78580  0.83410  0.10840  Biso   1.000  H
  H138     1.0000 0.21420  0.83410  0.39160  Biso   1.000  H
  H139     1.0000 0.28580  0.33410  0.10840  Biso   1.000  H
  H140     1.0000 0.71420  0.33410  0.39160  Biso   1.000  H
  H141     1.0000 0.21420  0.16590  0.89160  Biso   1.000  H
  H142     1.0000 0.78580  0.16590  0.60840  Biso   1.000  H
  H143     1.0000 0.71420  0.66590  0.89160  Biso   1.000  H
  H144     1.0000 0.28580  0.66590  0.60840  Biso   1.000  H
