data_image0
_cell_length_a       10.201
_cell_length_b       19.55
_cell_length_c       22.391
_cell_angle_alpha    90
_cell_angle_beta     90
_cell_angle_gamma    90

_symmetry_space_group_name_H-M    "P 1"
_symmetry_int_tables_number       1

loop_
  _symmetry_equiv_pos_as_xyz
  'x, y, z'

loop_
  _atom_site_label
  _atom_site_occupancy
  _atom_site_fract_x
  _atom_site_fract_y
  _atom_site_fract_z
  _atom_site_thermal_displace_type
  _atom_site_B_iso_or_equiv
  _atom_site_type_symbol
  Cu1      1.0000 0.14846  0.04302  0.96382  Biso   1.000  Cu
  Cu2      1.0000 0.35154  0.95698  0.46382  Biso   1.000  Cu
  Cu3      1.0000 0.64846  0.45698  0.03618  Biso   1.000  Cu
  Cu4      1.0000 0.85154  0.54302  0.53618  Biso   1.000  Cu
  P1       1.0000 0.17172  0.94994  0.02295  Biso   1.000  P
  P2       1.0000 0.32828  0.05006  0.52295  Biso   1.000  P
  P3       1.0000 0.67172  0.55006  0.97705  Biso   1.000  P
  P4       1.0000 0.82828  0.44994  0.47705  Biso   1.000  P
  P5       1.0000 0.23082  0.03572  0.86942  Biso   1.000  P
  P6       1.0000 0.26918  0.96428  0.36942  Biso   1.000  P
  P7       1.0000 0.73082  0.46428  0.13058  Biso   1.000  P
  P8       1.0000 0.76918  0.53572  0.63058  Biso   1.000  P
  C1       1.0000 0.33450  0.94711  0.05754  Biso   1.000  C
  C2       1.0000 0.16550  0.05289  0.55754  Biso   1.000  C
  C3       1.0000 0.83450  0.55289  0.94246  Biso   1.000  C
  C4       1.0000 0.66550  0.44711  0.44246  Biso   1.000  C
  C5       1.0000 0.35860  0.92030  0.11435  Biso   1.000  C
  C6       1.0000 0.14140  0.07970  0.61435  Biso   1.000  C
  C7       1.0000 0.85860  0.57970  0.88565  Biso   1.000  C
  C8       1.0000 0.64140  0.42030  0.38565  Biso   1.000  C
  C9       1.0000 0.48790  0.92200  0.13820  Biso   1.000  C
  C10      1.0000 0.01210  0.07800  0.63820  Biso   1.000  C
  C11      1.0000 0.98790  0.57800  0.86180  Biso   1.000  C
  C12      1.0000 0.51210  0.42200  0.36180  Biso   1.000  C
  C13      1.0000 0.51400  0.89320  0.19880  Biso   1.000  C
  C14      1.0000 0.98600  0.10680  0.69880  Biso   1.000  C
  C15      1.0000 0.01400  0.60680  0.80120  Biso   1.000  C
  C16      1.0000 0.48600  0.39320  0.30120  Biso   1.000  C
  C17      1.0000 0.58630  0.95030  0.10380  Biso   1.000  C
  C18      1.0000 0.91370  0.04970  0.60380  Biso   1.000  C
  C19      1.0000 0.08630  0.54970  0.89620  Biso   1.000  C
  C20      1.0000 0.41370  0.45030  0.39620  Biso   1.000  C
  C21      1.0000 0.56300  0.97590  0.04800  Biso   1.000  C
  C22      1.0000 0.93700  0.02410  0.54800  Biso   1.000  C
  C23      1.0000 0.06300  0.52410  0.95200  Biso   1.000  C
  C24      1.0000 0.43700  0.47590  0.45200  Biso   1.000  C
  C25      1.0000 0.43720  0.97480  0.02490  Biso   1.000  C
  C26      1.0000 0.06280  0.02520  0.52490  Biso   1.000  C
  C27      1.0000 0.93720  0.52520  0.97510  Biso   1.000  C
  C28      1.0000 0.56280  0.47480  0.47510  Biso   1.000  C
  C29      1.0000 0.06220  0.94285  0.08710  Biso   1.000  C
  C30      1.0000 0.43780  0.05715  0.58710  Biso   1.000  C
  C31      1.0000 0.56220  0.55715  0.91290  Biso   1.000  C
  C32      1.0000 0.93780  0.44285  0.41290  Biso   1.000  C
  C33      1.0000 0.03910  0.00240  0.12028  Biso   1.000  C
  C34      1.0000 0.46090  0.99760  0.62028  Biso   1.000  C
  C35      1.0000 0.53910  0.49760  0.87972  Biso   1.000  C
  C36      1.0000 0.96090  0.50240  0.37972  Biso   1.000  C
  C37      1.0000 0.96310  0.00110  0.17289  Biso   1.000  C
  C38      1.0000 0.53690  0.99890  0.67289  Biso   1.000  C
  C39      1.0000 0.46310  0.49890  0.82711  Biso   1.000  C
  C40      1.0000 0.03690  0.50110  0.32711  Biso   1.000  C
  C41      1.0000 0.94070  0.06590  0.20850  Biso   1.000  C
  C42      1.0000 0.55930  0.93410  0.70850  Biso   1.000  C
  C43      1.0000 0.44070  0.43410  0.79150  Biso   1.000  C
  C44      1.0000 0.05930  0.56590  0.29150  Biso   1.000  C
  C45      1.0000 0.90980  0.93940  0.19045  Biso   1.000  C
  C46      1.0000 0.59020  0.06060  0.69045  Biso   1.000  C
  C47      1.0000 0.40980  0.56060  0.80955  Biso   1.000  C
  C48      1.0000 0.09020  0.43940  0.30955  Biso   1.000  C
  C49      1.0000 0.92830  0.88050  0.15760  Biso   1.000  C
  C50      1.0000 0.57170  0.11950  0.65760  Biso   1.000  C
  C51      1.0000 0.42830  0.61950  0.84240  Biso   1.000  C
  C52      1.0000 0.07170  0.38050  0.34240  Biso   1.000  C
  C53      1.0000 0.00500  0.88200  0.10610  Biso   1.000  C
  C54      1.0000 0.49500  0.11800  0.60610  Biso   1.000  C
  C55      1.0000 0.50500  0.61800  0.89390  Biso   1.000  C
  C56      1.0000 0.99500  0.38200  0.39390  Biso   1.000  C
  C57      1.0000 0.15680  0.86661  0.98705  Biso   1.000  C
  C58      1.0000 0.34320  0.13339  0.48705  Biso   1.000  C
  C59      1.0000 0.65680  0.63339  0.01295  Biso   1.000  C
  C60      1.0000 0.84320  0.36661  0.51295  Biso   1.000  C
  C61      1.0000 0.05510  0.85710  0.94670  Biso   1.000  C
  C62      1.0000 0.44490  0.14290  0.44670  Biso   1.000  C
  C63      1.0000 0.55510  0.64290  0.05330  Biso   1.000  C
  C64      1.0000 0.94490  0.35710  0.55330  Biso   1.000  C
  C65      1.0000 0.03580  0.79360  0.91850  Biso   1.000  C
  C66      1.0000 0.46420  0.20640  0.41850  Biso   1.000  C
  C67      1.0000 0.53580  0.70640  0.08150  Biso   1.000  C
  C68      1.0000 0.96420  0.29360  0.58150  Biso   1.000  C
  C69      1.0000 0.92920  0.78320  0.87570  Biso   1.000  C
  C70      1.0000 0.57080  0.21680  0.37570  Biso   1.000  C
  C71      1.0000 0.42920  0.71680  0.12430  Biso   1.000  C
  C72      1.0000 0.07080  0.28320  0.62430  Biso   1.000  C
  C73      1.0000 0.12140  0.74070  0.93120  Biso   1.000  C
  C74      1.0000 0.37860  0.25930  0.43120  Biso   1.000  C
  C75      1.0000 0.62140  0.75930  0.06880  Biso   1.000  C
  C76      1.0000 0.87860  0.24070  0.56880  Biso   1.000  C
  C77      1.0000 0.22170  0.74900  0.97060  Biso   1.000  C
  C78      1.0000 0.27830  0.25100  0.47060  Biso   1.000  C
  C79      1.0000 0.72170  0.75100  0.02940  Biso   1.000  C
  C80      1.0000 0.77830  0.24900  0.52940  Biso   1.000  C
  C81      1.0000 0.23930  0.81190  0.99870  Biso   1.000  C
  C82      1.0000 0.26070  0.18810  0.49870  Biso   1.000  C
  C83      1.0000 0.73930  0.68810  0.00130  Biso   1.000  C
  C84      1.0000 0.76070  0.31190  0.50130  Biso   1.000  C
  C85      1.0000 0.39020  0.99415  0.86617  Biso   1.000  C
  C86      1.0000 0.10980  0.00585  0.36617  Biso   1.000  C
  C87      1.0000 0.89020  0.50585  0.13383  Biso   1.000  C
  C88      1.0000 0.60980  0.49415  0.63383  Biso   1.000  C
  C89      1.0000 0.39730  0.92259  0.86983  Biso   1.000  C
  C90      1.0000 0.10270  0.07741  0.36983  Biso   1.000  C
  C91      1.0000 0.89730  0.57741  0.13017  Biso   1.000  C
  C92      1.0000 0.60270  0.42259  0.63017  Biso   1.000  C
  C93      1.0000 0.51630  0.88890  0.87677  Biso   1.000  C
  C94      1.0000 0.98370  0.11110  0.37677  Biso   1.000  C
  C95      1.0000 0.01630  0.61110  0.12323  Biso   1.000  C
  C96      1.0000 0.48370  0.38890  0.62323  Biso   1.000  C
  C97      1.0000 0.52040  0.81170  0.88000  Biso   1.000  C
  C98      1.0000 0.97960  0.18830  0.38000  Biso   1.000  C
  C99      1.0000 0.02040  0.68830  0.12000  Biso   1.000  C
  C100     1.0000 0.47960  0.31170  0.62000  Biso   1.000  C
  C101     1.0000 0.62990  0.92720  0.88097  Biso   1.000  C
  C102     1.0000 0.87010  0.07280  0.38097  Biso   1.000  C
  C103     1.0000 0.12990  0.57280  0.11903  Biso   1.000  C
  C104     1.0000 0.37010  0.42720  0.61903  Biso   1.000  C
  C105     1.0000 0.62530  0.99810  0.87707  Biso   1.000  C
  C106     1.0000 0.87470  0.00190  0.37707  Biso   1.000  C
  C107     1.0000 0.12530  0.50190  0.12293  Biso   1.000  C
  C108     1.0000 0.37470  0.49810  0.62293  Biso   1.000  C
  C109     1.0000 0.50550  0.03170  0.86953  Biso   1.000  C
  C110     1.0000 0.99450  0.96830  0.36953  Biso   1.000  C
  C111     1.0000 0.00550  0.46830  0.13047  Biso   1.000  C
  C112     1.0000 0.49450  0.53170  0.63047  Biso   1.000  C
  C113     1.0000 0.25760  0.11849  0.83251  Biso   1.000  C
  C114     1.0000 0.24240  0.88151  0.33251  Biso   1.000  C
  C115     1.0000 0.75760  0.38151  0.16749  Biso   1.000  C
  C116     1.0000 0.74240  0.61849  0.66749  Biso   1.000  C
  C117     1.0000 0.22700  0.17664  0.86482  Biso   1.000  C
  C118     1.0000 0.27300  0.82336  0.36482  Biso   1.000  C
  C119     1.0000 0.72700  0.32336  0.13518  Biso   1.000  C
  C120     1.0000 0.77300  0.67664  0.63518  Biso   1.000  C
  C121     1.0000 0.23780  0.24230  0.84127  Biso   1.000  C
  C122     1.0000 0.26220  0.75770  0.34127  Biso   1.000  C
  C123     1.0000 0.73780  0.25770  0.15873  Biso   1.000  C
  C124     1.0000 0.76220  0.74230  0.65873  Biso   1.000  C
  C125     1.0000 0.20290  0.30300  0.87980  Biso   1.000  C
  C126     1.0000 0.29710  0.69700  0.37980  Biso   1.000  C
  C127     1.0000 0.70290  0.19700  0.12020  Biso   1.000  C
  C128     1.0000 0.79710  0.80300  0.62020  Biso   1.000  C
  C129     1.0000 0.28020  0.24840  0.78229  Biso   1.000  C
  C130     1.0000 0.21980  0.75160  0.28229  Biso   1.000  C
  C131     1.0000 0.78020  0.25160  0.21771  Biso   1.000  C
  C132     1.0000 0.71980  0.74840  0.71771  Biso   1.000  C
  C133     1.0000 0.31300  0.19080  0.74932  Biso   1.000  C
  C134     1.0000 0.18700  0.80920  0.24932  Biso   1.000  C
  C135     1.0000 0.81300  0.30920  0.25068  Biso   1.000  C
  C136     1.0000 0.68700  0.69080  0.75068  Biso   1.000  C
  C137     1.0000 0.30180  0.12580  0.77384  Biso   1.000  C
  C138     1.0000 0.19820  0.87420  0.27384  Biso   1.000  C
  C139     1.0000 0.80180  0.37420  0.22616  Biso   1.000  C
  C140     1.0000 0.69820  0.62580  0.72616  Biso   1.000  C
  C141     1.0000 0.13230  0.98825  0.81522  Biso   1.000  C
  C142     1.0000 0.36770  0.01175  0.31522  Biso   1.000  C
  C143     1.0000 0.63230  0.51175  0.18478  Biso   1.000  C
  C144     1.0000 0.86770  0.48825  0.68478  Biso   1.000  C
  C145     1.0000 0.18480  0.96020  0.76292  Biso   1.000  C
  C146     1.0000 0.31520  0.03980  0.26292  Biso   1.000  C
  C147     1.0000 0.68480  0.53980  0.23708  Biso   1.000  C
  C148     1.0000 0.81520  0.46020  0.73708  Biso   1.000  C
  C149     1.0000 0.10580  0.92750  0.72094  Biso   1.000  C
  C150     1.0000 0.39420  0.07250  0.22094  Biso   1.000  C
  C151     1.0000 0.60580  0.57250  0.27906  Biso   1.000  C
  C152     1.0000 0.89420  0.42750  0.77906  Biso   1.000  C
  C153     1.0000 0.16290  0.89960  0.66381  Biso   1.000  C
  C154     1.0000 0.33710  0.10040  0.16381  Biso   1.000  C
  C155     1.0000 0.66290  0.60040  0.33619  Biso   1.000  C
  C156     1.0000 0.83710  0.39960  0.83619  Biso   1.000  C
  C157     1.0000 0.97300  0.92280  0.73272  Biso   1.000  C
  C158     1.0000 0.52700  0.07720  0.23272  Biso   1.000  C
  C159     1.0000 0.47300  0.57720  0.26728  Biso   1.000  C
  C160     1.0000 0.02700  0.42280  0.76728  Biso   1.000  C
  C161     1.0000 0.91910  0.94940  0.78450  Biso   1.000  C
  C162     1.0000 0.58090  0.05060  0.28450  Biso   1.000  C
  C163     1.0000 0.41910  0.55060  0.21550  Biso   1.000  C
  C164     1.0000 0.08090  0.44940  0.71550  Biso   1.000  C
  C165     1.0000 0.99820  0.98210  0.82614  Biso   1.000  C
  C166     1.0000 0.50180  0.01790  0.32614  Biso   1.000  C
  C167     1.0000 0.49820  0.51790  0.17386  Biso   1.000  C
  C168     1.0000 0.00180  0.48210  0.67386  Biso   1.000  C
  N1       1.0000 0.24330  0.22775  0.05117  Biso   1.000  N
  N2       1.0000 0.25670  0.77225  0.55117  Biso   1.000  N
  N3       1.0000 0.74330  0.27225  0.94883  Biso   1.000  N
  N4       1.0000 0.75670  0.72775  0.44883  Biso   1.000  N
  N5       1.0000 0.37000  0.21069  0.03734  Biso   1.000  N
  N6       1.0000 0.13000  0.78931  0.53734  Biso   1.000  N
  N7       1.0000 0.87000  0.28931  0.96266  Biso   1.000  N
  N8       1.0000 0.63000  0.71069  0.46266  Biso   1.000  N
  C169     1.0000 0.35860  0.14979  0.01189  Biso   1.000  C
  C170     1.0000 0.14140  0.85021  0.51189  Biso   1.000  C
  C171     1.0000 0.85860  0.35021  0.98811  Biso   1.000  C
  C172     1.0000 0.64140  0.64979  0.48811  Biso   1.000  C
  N9       1.0000 0.23210  0.12651  0.00852  Biso   1.000  N
  N10      1.0000 0.26790  0.87349  0.50852  Biso   1.000  N
  N11      1.0000 0.73210  0.37349  0.99148  Biso   1.000  N
  N12      1.0000 0.76790  0.62651  0.49148  Biso   1.000  N
  C173     1.0000 0.16440  0.17742  0.03353  Biso   1.000  C
  C174     1.0000 0.33560  0.82258  0.53353  Biso   1.000  C
  C175     1.0000 0.66440  0.32258  0.96647  Biso   1.000  C
  C176     1.0000 0.83560  0.67742  0.46647  Biso   1.000  C
  N13      1.0000 0.29260  0.35238  0.06303  Biso   1.000  N
  N14      1.0000 0.20740  0.64762  0.56303  Biso   1.000  N
  N15      1.0000 0.79260  0.14762  0.93697  Biso   1.000  N
  N16      1.0000 0.70740  0.85238  0.43697  Biso   1.000  N
  N17      1.0000 0.25390  0.38994  0.01426  Biso   1.000  N
  N18      1.0000 0.24610  0.61006  0.51426  Biso   1.000  N
  N19      1.0000 0.75390  0.11006  0.98574  Biso   1.000  N
  N20      1.0000 0.74610  0.88994  0.48574  Biso   1.000  N
  C177     1.0000 0.35630  0.42790  0.00298  Biso   1.000  C
  C178     1.0000 0.14370  0.57210  0.50298  Biso   1.000  C
  C179     1.0000 0.85630  0.07210  0.99702  Biso   1.000  C
  C180     1.0000 0.64370  0.92790  0.49702  Biso   1.000  C
  N21      1.0000 0.45880  0.41833  0.03987  Biso   1.000  N
  N22      1.0000 0.04120  0.58167  0.53987  Biso   1.000  N
  N23      1.0000 0.95880  0.08167  0.96013  Biso   1.000  N
  N24      1.0000 0.54120  0.91833  0.46013  Biso   1.000  N
  C181     1.0000 0.41430  0.37030  0.07672  Biso   1.000  C
  C182     1.0000 0.08570  0.62970  0.57672  Biso   1.000  C
  C183     1.0000 0.91430  0.12970  0.92328  Biso   1.000  C
  C184     1.0000 0.58570  0.87030  0.42328  Biso   1.000  C
  N25      1.0000 0.23080  0.28190  0.15352  Biso   1.000  N
  N26      1.0000 0.26920  0.71810  0.65352  Biso   1.000  N
  N27      1.0000 0.73080  0.21810  0.84648  Biso   1.000  N
  N28      1.0000 0.76920  0.78190  0.34648  Biso   1.000  N
  N29      1.0000 0.35160  0.27120  0.17845  Biso   1.000  N
  N30      1.0000 0.14840  0.72880  0.67845  Biso   1.000  N
  N31      1.0000 0.85160  0.22880  0.82155  Biso   1.000  N
  N32      1.0000 0.64840  0.77120  0.32155  Biso   1.000  N
  C185     1.0000 0.32130  0.25520  0.23500  Biso   1.000  C
  C186     1.0000 0.17870  0.74480  0.73500  Biso   1.000  C
  C187     1.0000 0.82130  0.24480  0.76500  Biso   1.000  C
  C188     1.0000 0.67870  0.75520  0.26500  Biso   1.000  C
  N33      1.0000 0.19220  0.25500  0.24790  Biso   1.000  N
  N34      1.0000 0.30780  0.74500  0.74790  Biso   1.000  N
  N35      1.0000 0.69220  0.24500  0.75210  Biso   1.000  N
  N36      1.0000 0.80780  0.75500  0.25210  Biso   1.000  N
  C189     1.0000 0.14040  0.27180  0.19620  Biso   1.000  C
  C190     1.0000 0.35960  0.72820  0.69620  Biso   1.000  C
  C191     1.0000 0.64040  0.22820  0.80380  Biso   1.000  C
  C192     1.0000 0.85960  0.77180  0.30380  Biso   1.000  C
  B1       1.0000 0.20680  0.29330  0.08670  Biso   1.000  B
  B2       1.0000 0.29320  0.70670  0.58670  Biso   1.000  B
  B3       1.0000 0.70680  0.20670  0.91330  Biso   1.000  B
  B4       1.0000 0.79320  0.79330  0.41330  Biso   1.000  B
  H1       1.0000 0.28733  0.90087  0.13777  Biso   1.000  H
  H2       1.0000 0.21267  0.09913  0.63777  Biso   1.000  H
  H3       1.0000 0.78733  0.59913  0.86223  Biso   1.000  H
  H4       1.0000 0.71267  0.40087  0.36223  Biso   1.000  H
  H5       1.0000 0.43354  0.87611  0.21608  Biso   1.000  H
  H6       1.0000 0.06646  0.12389  0.71608  Biso   1.000  H
  H7       1.0000 0.93354  0.62389  0.78392  Biso   1.000  H
  H8       1.0000 0.56646  0.37611  0.28392  Biso   1.000  H
  H9       1.0000 0.57494  0.85679  0.19693  Biso   1.000  H
  H10      1.0000 0.92506  0.14321  0.69693  Biso   1.000  H
  H11      1.0000 0.07494  0.64321  0.80307  Biso   1.000  H
  H12      1.0000 0.42506  0.35679  0.30307  Biso   1.000  H
  H13      1.0000 0.54704  0.92799  0.22475  Biso   1.000  H
  H14      1.0000 0.95296  0.07201  0.72475  Biso   1.000  H
  H15      1.0000 0.04704  0.57201  0.77525  Biso   1.000  H
  H16      1.0000 0.45296  0.42799  0.27525  Biso   1.000  H
  H17      1.0000 0.67403  0.95307  0.11944  Biso   1.000  H
  H18      1.0000 0.82597  0.04693  0.61944  Biso   1.000  H
  H19      1.0000 0.17403  0.54693  0.88056  Biso   1.000  H
  H20      1.0000 0.32597  0.45307  0.38056  Biso   1.000  H
  H21      1.0000 0.63299  0.99505  0.02449  Biso   1.000  H
  H22      1.0000 0.86701  0.00495  0.52449  Biso   1.000  H
  H23      1.0000 0.13299  0.50495  0.97551  Biso   1.000  H
  H24      1.0000 0.36701  0.49505  0.47551  Biso   1.000  H
  H25      1.0000 0.42018  0.99365  0.98616  Biso   1.000  H
  H26      1.0000 0.07982  0.00635  0.48616  Biso   1.000  H
  H27      1.0000 0.92018  0.50635  0.01384  Biso   1.000  H
  H28      1.0000 0.57982  0.49365  0.51384  Biso   1.000  H
  H29      1.0000 0.07792  0.04486  0.10671  Biso   1.000  H
  H30      1.0000 0.42208  0.95514  0.60671  Biso   1.000  H
  H31      1.0000 0.57792  0.45514  0.89329  Biso   1.000  H
  H32      1.0000 0.92208  0.54486  0.39329  Biso   1.000  H
  H33      1.0000 0.86633  0.09033  0.19364  Biso   1.000  H
  H34      1.0000 0.63367  0.90967  0.69364  Biso   1.000  H
  H35      1.0000 0.36633  0.40967  0.80636  Biso   1.000  H
  H36      1.0000 0.13367  0.59033  0.30636  Biso   1.000  H
  H37      1.0000 0.01575  0.09646  0.20538  Biso   1.000  H
  H38      1.0000 0.48425  0.90354  0.70538  Biso   1.000  H
  H39      1.0000 0.51575  0.40354  0.79462  Biso   1.000  H
  H40      1.0000 0.98425  0.59646  0.29462  Biso   1.000  H
  H41      1.0000 0.92797  0.05543  0.24917  Biso   1.000  H
  H42      1.0000 0.57203  0.94457  0.74917  Biso   1.000  H
  H43      1.0000 0.42797  0.44457  0.75083  Biso   1.000  H
  H44      1.0000 0.07203  0.55543  0.25083  Biso   1.000  H
  H45      1.0000 0.85856  0.93757  0.22689  Biso   1.000  H
  H46      1.0000 0.64144  0.06243  0.72689  Biso   1.000  H
  H47      1.0000 0.35856  0.56243  0.77311  Biso   1.000  H
  H48      1.0000 0.14144  0.43757  0.27311  Biso   1.000  H
  H49      1.0000 0.88817  0.83818  0.16990  Biso   1.000  H
  H50      1.0000 0.61183  0.16182  0.66990  Biso   1.000  H
  H51      1.0000 0.38817  0.66182  0.83010  Biso   1.000  H
  H52      1.0000 0.11183  0.33818  0.33010  Biso   1.000  H
  H53      1.0000 0.02185  0.84070  0.08416  Biso   1.000  H
  H54      1.0000 0.47815  0.15930  0.58416  Biso   1.000  H
  H55      1.0000 0.52185  0.65930  0.91584  Biso   1.000  H
  H56      1.0000 0.97815  0.34070  0.41584  Biso   1.000  H
  H57      1.0000 0.99465  0.89444  0.93773  Biso   1.000  H
  H58      1.0000 0.50535  0.10556  0.43773  Biso   1.000  H
  H59      1.0000 0.49465  0.60556  0.06227  Biso   1.000  H
  H60      1.0000 0.00535  0.39444  0.56227  Biso   1.000  H
  H61      1.0000 0.92035  0.73837  0.86086  Biso   1.000  H
  H62      1.0000 0.57965  0.26163  0.36086  Biso   1.000  H
  H63      1.0000 0.42035  0.76163  0.13914  Biso   1.000  H
  H64      1.0000 0.07965  0.23837  0.63914  Biso   1.000  H
  H65      1.0000 0.84573  0.79457  0.89525  Biso   1.000  H
  H66      1.0000 0.65427  0.20543  0.39525  Biso   1.000  H
  H67      1.0000 0.34573  0.70543  0.10475  Biso   1.000  H
  H68      1.0000 0.15427  0.29457  0.60475  Biso   1.000  H
  H69      1.0000 0.93708  0.81391  0.84250  Biso   1.000  H
  H70      1.0000 0.56292  0.18609  0.34250  Biso   1.000  H
  H71      1.0000 0.43708  0.68609  0.15750  Biso   1.000  H
  H72      1.0000 0.06292  0.31391  0.65750  Biso   1.000  H
  H73      1.0000 0.10903  0.69729  0.91093  Biso   1.000  H
  H74      1.0000 0.39097  0.30271  0.41093  Biso   1.000  H
  H75      1.0000 0.60903  0.80271  0.08907  Biso   1.000  H
  H76      1.0000 0.89097  0.19729  0.58907  Biso   1.000  H
  H77      1.0000 0.28009  0.71151  0.97884  Biso   1.000  H
  H78      1.0000 0.21991  0.28849  0.47884  Biso   1.000  H
  H79      1.0000 0.78009  0.78849  0.02116  Biso   1.000  H
  H80      1.0000 0.71991  0.21151  0.52116  Biso   1.000  H
  H81      1.0000 0.31296  0.81769  0.02692  Biso   1.000  H
  H82      1.0000 0.18704  0.18231  0.52692  Biso   1.000  H
  H83      1.0000 0.81296  0.68231  0.97308  Biso   1.000  H
  H84      1.0000 0.68704  0.31769  0.47308  Biso   1.000  H
  H85      1.0000 0.31901  0.89562  0.86663  Biso   1.000  H
  H86      1.0000 0.18099  0.10438  0.36663  Biso   1.000  H
  H87      1.0000 0.81901  0.60438  0.13337  Biso   1.000  H
  H88      1.0000 0.68099  0.39562  0.63337  Biso   1.000  H
  H89      1.0000 0.60534  0.79733  0.89329  Biso   1.000  H
  H90      1.0000 0.89466  0.20267  0.39329  Biso   1.000  H
  H91      1.0000 0.10534  0.70267  0.10671  Biso   1.000  H
  H92      1.0000 0.39466  0.29733  0.60671  Biso   1.000  H
  H93      1.0000 0.45665  0.79480  0.90847  Biso   1.000  H
  H94      1.0000 0.04335  0.20520  0.40847  Biso   1.000  H
  H95      1.0000 0.95665  0.70520  0.09153  Biso   1.000  H
  H96      1.0000 0.54335  0.29480  0.59153  Biso   1.000  H
  H97      1.0000 0.50216  0.79118  0.84244  Biso   1.000  H
  H98      1.0000 0.99784  0.20882  0.34244  Biso   1.000  H
  H99      1.0000 0.00216  0.70882  0.15756  Biso   1.000  H
  H100     1.0000 0.49784  0.29118  0.65756  Biso   1.000  H
  H101     1.0000 0.71072  0.90460  0.88779  Biso   1.000  H
  H102     1.0000 0.78928  0.09540  0.38779  Biso   1.000  H
  H103     1.0000 0.21072  0.59540  0.11221  Biso   1.000  H
  H104     1.0000 0.28928  0.40460  0.61221  Biso   1.000  H
  H105     1.0000 0.70493  0.02409  0.87861  Biso   1.000  H
  H106     1.0000 0.79507  0.97591  0.37861  Biso   1.000  H
  H107     1.0000 0.20493  0.47591  0.12139  Biso   1.000  H
  H108     1.0000 0.29507  0.52409  0.62139  Biso   1.000  H
  H109     1.0000 0.50363  0.08032  0.86731  Biso   1.000  H
  H110     1.0000 0.99637  0.91968  0.36731  Biso   1.000  H
  H111     1.0000 0.00363  0.41968  0.13269  Biso   1.000  H
  H112     1.0000 0.49637  0.58032  0.63269  Biso   1.000  H
  H113     1.0000 0.19468  0.17146  0.90543  Biso   1.000  H
  H114     1.0000 0.30532  0.82854  0.40543  Biso   1.000  H
  H115     1.0000 0.69468  0.32854  0.09457  Biso   1.000  H
  H116     1.0000 0.80532  0.67146  0.59457  Biso   1.000  H
  H117     1.0000 0.11881  0.29484  0.89750  Biso   1.000  H
  H118     1.0000 0.38119  0.70516  0.39750  Biso   1.000  H
  H119     1.0000 0.61881  0.20516  0.10250  Biso   1.000  H
  H120     1.0000 0.88119  0.79484  0.60250  Biso   1.000  H
  H121     1.0000 0.26607  0.30760  0.91076  Biso   1.000  H
  H122     1.0000 0.23393  0.69240  0.41076  Biso   1.000  H
  H123     1.0000 0.76607  0.19240  0.08924  Biso   1.000  H
  H124     1.0000 0.73393  0.80760  0.58924  Biso   1.000  H
  H125     1.0000 0.19841  0.34519  0.85810  Biso   1.000  H
  H126     1.0000 0.30159  0.65481  0.35810  Biso   1.000  H
  H127     1.0000 0.69841  0.15481  0.14190  Biso   1.000  H
  H128     1.0000 0.80159  0.84519  0.64190  Biso   1.000  H
  H129     1.0000 0.28816  0.29301  0.76395  Biso   1.000  H
  H130     1.0000 0.21184  0.70699  0.26395  Biso   1.000  H
  H131     1.0000 0.78816  0.20699  0.23605  Biso   1.000  H
  H132     1.0000 0.71184  0.79301  0.73605  Biso   1.000  H
  H133     1.0000 0.34398  0.19588  0.70933  Biso   1.000  H
  H134     1.0000 0.15602  0.80412  0.20933  Biso   1.000  H
  H135     1.0000 0.84398  0.30412  0.29067  Biso   1.000  H
  H136     1.0000 0.65602  0.69588  0.79067  Biso   1.000  H
  H137     1.0000 0.32268  0.08589  0.75015  Biso   1.000  H
  H138     1.0000 0.17732  0.91411  0.25015  Biso   1.000  H
  H139     1.0000 0.82268  0.41411  0.24985  Biso   1.000  H
  H140     1.0000 0.67732  0.58589  0.74985  Biso   1.000  H
  H141     1.0000 0.27649  0.96207  0.75563  Biso   1.000  H
  H142     1.0000 0.22351  0.03793  0.25563  Biso   1.000  H
  H143     1.0000 0.77649  0.53793  0.24437  Biso   1.000  H
  H144     1.0000 0.72351  0.46207  0.74437  Biso   1.000  H
  H145     1.0000 0.14043  0.92792  0.63065  Biso   1.000  H
  H146     1.0000 0.35957  0.07208  0.13065  Biso   1.000  H
  H147     1.0000 0.64043  0.57208  0.36935  Biso   1.000  H
  H148     1.0000 0.85957  0.42792  0.86935  Biso   1.000  H
  H149     1.0000 0.13391  0.85442  0.65659  Biso   1.000  H
  H150     1.0000 0.36609  0.14558  0.15659  Biso   1.000  H
  H151     1.0000 0.63391  0.64558  0.34341  Biso   1.000  H
  H152     1.0000 0.86609  0.35442  0.84341  Biso   1.000  H
  H153     1.0000 0.25641  0.89958  0.66802  Biso   1.000  H
  H154     1.0000 0.24359  0.10042  0.16802  Biso   1.000  H
  H155     1.0000 0.75641  0.60042  0.33198  Biso   1.000  H
  H156     1.0000 0.74359  0.39958  0.83198  Biso   1.000  H
  H157     1.0000 0.91700  0.90066  0.70398  Biso   1.000  H
  H158     1.0000 0.58300  0.09934  0.20398  Biso   1.000  H
  H159     1.0000 0.41700  0.59934  0.29602  Biso   1.000  H
  H160     1.0000 0.08300  0.40066  0.79602  Biso   1.000  H
  H161     1.0000 0.82546  0.94551  0.79114  Biso   1.000  H
  H162     1.0000 0.67454  0.05449  0.29114  Biso   1.000  H
  H163     1.0000 0.32546  0.55449  0.20886  Biso   1.000  H
  H164     1.0000 0.17454  0.44551  0.70886  Biso   1.000  H
  H165     1.0000 0.96037  0.00021  0.86184  Biso   1.000  H
  H166     1.0000 0.53963  0.99979  0.36184  Biso   1.000  H
  H167     1.0000 0.46037  0.49979  0.13816  Biso   1.000  H
  H168     1.0000 0.03963  0.50021  0.63816  Biso   1.000  H
  H169     1.0000 0.43157  0.12415  0.99698  Biso   1.000  H
  H170     1.0000 0.06843  0.87585  0.49698  Biso   1.000  H
  H171     1.0000 0.93157  0.37585  0.00302  Biso   1.000  H
  H172     1.0000 0.56843  0.62415  0.50302  Biso   1.000  H
  H173     1.0000 0.07034  0.17738  0.03805  Biso   1.000  H
  H174     1.0000 0.42966  0.82262  0.53805  Biso   1.000  H
  H175     1.0000 0.57034  0.32262  0.96195  Biso   1.000  H
  H176     1.0000 0.92966  0.67738  0.46195  Biso   1.000  H
  H177     1.0000 0.35820  0.46175  0.97119  Biso   1.000  H
  H178     1.0000 0.14180  0.53825  0.47119  Biso   1.000  H
  H179     1.0000 0.85820  0.03825  0.02881  Biso   1.000  H
  H180     1.0000 0.64180  0.96175  0.52881  Biso   1.000  H
  H181     1.0000 0.46573  0.35097  0.10885  Biso   1.000  H
  H182     1.0000 0.03427  0.64903  0.60885  Biso   1.000  H
  H183     1.0000 0.96573  0.14903  0.89115  Biso   1.000  H
  H184     1.0000 0.53427  0.85097  0.39115  Biso   1.000  H
  H185     1.0000 0.38774  0.24439  0.26346  Biso   1.000  H
  H186     1.0000 0.11226  0.75561  0.76346  Biso   1.000  H
  H187     1.0000 0.88774  0.25561  0.73654  Biso   1.000  H
  H188     1.0000 0.61226  0.74439  0.23654  Biso   1.000  H
  H189     1.0000 0.04538  0.27545  0.18897  Biso   1.000  H
  H190     1.0000 0.45462  0.72455  0.68897  Biso   1.000  H
  H191     1.0000 0.54538  0.22455  0.81103  Biso   1.000  H
  H192     1.0000 0.95462  0.77545  0.31103  Biso   1.000  H
  H193     1.0000 0.11329  0.30589  0.08033  Biso   1.000  H
  H194     1.0000 0.38671  0.69411  0.58033  Biso   1.000  H
  H195     1.0000 0.61329  0.19411  0.91967  Biso   1.000  H
  H196     1.0000 0.88671  0.80589  0.41967  Biso   1.000  H
