data_image0
_cell_length_a       13.727
_cell_length_b       10.1806
_cell_length_c       19.682
_cell_angle_alpha    90
_cell_angle_beta     105.6
_cell_angle_gamma    90

_symmetry_space_group_name_H-M    "P 1"
_symmetry_int_tables_number       1

loop_
  _symmetry_equiv_pos_as_xyz
  'x, y, z'

loop_
  _atom_site_label
  _atom_site_occupancy
  _atom_site_fract_x
  _atom_site_fract_y
  _atom_site_fract_z
  _atom_site_thermal_displace_type
  _atom_site_B_iso_or_equiv
  _atom_site_type_symbol
  Cu1      1.0000 0.87865  0.20903  0.73499  Biso   1.000  Cu
  Cu2      1.0000 0.37865  0.29097  0.23499  Biso   1.000  Cu
  Cu3      1.0000 0.12135  0.79097  0.26501  Biso   1.000  Cu
  Cu4      1.0000 0.62135  0.70903  0.76501  Biso   1.000  Cu
  P1       1.0000 0.93587  0.15258  0.64318  Biso   1.000  P
  P2       1.0000 0.43587  0.34742  0.14318  Biso   1.000  P
  P3       1.0000 0.06413  0.84742  0.35682  Biso   1.000  P
  P4       1.0000 0.56413  0.65258  0.85682  Biso   1.000  P
  C1       1.0000 0.89400  0.26710  0.56740  Biso   1.000  C
  C2       1.0000 0.39400  0.23290  0.06740  Biso   1.000  C
  C3       1.0000 0.10600  0.73290  0.43260  Biso   1.000  C
  C4       1.0000 0.60600  0.76710  0.93260  Biso   1.000  C
  C5       1.0000 0.90660  0.21910  0.49664  Biso   1.000  C
  C6       1.0000 0.40660  0.28090  0.99664  Biso   1.000  C
  C7       1.0000 0.09340  0.78090  0.50336  Biso   1.000  C
  C8       1.0000 0.59340  0.71910  0.00336  Biso   1.000  C
  C9       1.0000 0.87720  0.32530  0.43990  Biso   1.000  C
  C10      1.0000 0.37720  0.17470  0.93990  Biso   1.000  C
  C11      1.0000 0.12280  0.67470  0.56010  Biso   1.000  C
  C12      1.0000 0.62280  0.82530  0.06010  Biso   1.000  C
  C13      1.0000 0.77020  0.37450  0.43270  Biso   1.000  C
  C14      1.0000 0.27020  0.12550  0.93270  Biso   1.000  C
  C15      1.0000 0.22980  0.62550  0.56730  Biso   1.000  C
  C16      1.0000 0.72980  0.87450  0.06730  Biso   1.000  C
  C17      1.0000 0.75980  0.42580  0.50250  Biso   1.000  C
  C18      1.0000 0.25980  0.07420  0.00250  Biso   1.000  C
  C19      1.0000 0.24020  0.57420  0.49750  Biso   1.000  C
  C20      1.0000 0.74020  0.92580  0.99750  Biso   1.000  C
  C21      1.0000 0.78670  0.32130  0.55992  Biso   1.000  C
  C22      1.0000 0.28670  0.17870  0.05992  Biso   1.000  C
  C23      1.0000 0.21330  0.67870  0.44008  Biso   1.000  C
  C24      1.0000 0.71330  0.82130  0.94008  Biso   1.000  C
  C25      1.0000 0.07570  0.14160  0.65633  Biso   1.000  C
  C26      1.0000 0.57570  0.35840  0.15633  Biso   1.000  C
  C27      1.0000 0.92430  0.85840  0.34367  Biso   1.000  C
  C28      1.0000 0.42430  0.64160  0.84367  Biso   1.000  C
  C29      1.0000 0.12930  0.09650  0.73208  Biso   1.000  C
  C30      1.0000 0.62930  0.40350  0.23208  Biso   1.000  C
  C31      1.0000 0.87070  0.90350  0.26792  Biso   1.000  C
  C32      1.0000 0.37070  0.59650  0.76792  Biso   1.000  C
  C33      1.0000 0.24270  0.07720  0.74159  Biso   1.000  C
  C34      1.0000 0.74270  0.42280  0.24159  Biso   1.000  C
  C35      1.0000 0.75730  0.92280  0.25841  Biso   1.000  C
  C36      1.0000 0.25730  0.57720  0.75841  Biso   1.000  C
  C37      1.0000 0.29090  0.20570  0.72730  Biso   1.000  C
  C38      1.0000 0.79090  0.29430  0.22730  Biso   1.000  C
  C39      1.0000 0.70910  0.79430  0.27270  Biso   1.000  C
  C40      1.0000 0.20910  0.70570  0.77270  Biso   1.000  C
  C41      1.0000 0.23930  0.25500  0.65430  Biso   1.000  C
  C42      1.0000 0.73930  0.24500  0.15430  Biso   1.000  C
  C43      1.0000 0.76070  0.74500  0.34570  Biso   1.000  C
  C44      1.0000 0.26070  0.75500  0.84570  Biso   1.000  C
  C45      1.0000 0.12490  0.27000  0.64140  Biso   1.000  C
  C46      1.0000 0.62490  0.23000  0.14140  Biso   1.000  C
  C47      1.0000 0.87510  0.73000  0.35860  Biso   1.000  C
  C48      1.0000 0.37510  0.77000  0.85860  Biso   1.000  C
  C49      1.0000 0.89460  0.98750  0.60449  Biso   1.000  C
  C50      1.0000 0.39460  0.51250  0.10449  Biso   1.000  C
  C51      1.0000 0.10540  0.01250  0.39551  Biso   1.000  C
  C52      1.0000 0.60540  0.48750  0.89551  Biso   1.000  C
  C53      1.0000 0.77960  0.98050  0.57610  Biso   1.000  C
  C54      1.0000 0.27960  0.51950  0.07610  Biso   1.000  C
  C55      1.0000 0.22040  0.01950  0.42390  Biso   1.000  C
  C56      1.0000 0.72040  0.48050  0.92390  Biso   1.000  C
  C57      1.0000 0.74230  0.84230  0.54990  Biso   1.000  C
  C58      1.0000 0.24230  0.65770  0.04990  Biso   1.000  C
  C59      1.0000 0.25770  0.15770  0.45010  Biso   1.000  C
  C60      1.0000 0.75770  0.34230  0.95010  Biso   1.000  C
  C61      1.0000 0.78000  0.74130  0.60780  Biso   1.000  C
  C62      1.0000 0.28000  0.75870  0.10780  Biso   1.000  C
  C63      1.0000 0.22000  0.25870  0.39220  Biso   1.000  C
  C64      1.0000 0.72000  0.24130  0.89220  Biso   1.000  C
  C65      1.0000 0.89400  0.74240  0.63130  Biso   1.000  C
  C66      1.0000 0.39400  0.75760  0.13130  Biso   1.000  C
  C67      1.0000 0.10600  0.25760  0.36870  Biso   1.000  C
  C68      1.0000 0.60600  0.24240  0.86870  Biso   1.000  C
  C69      1.0000 0.93480  0.87820  0.65850  Biso   1.000  C
  C70      1.0000 0.43480  0.62180  0.15850  Biso   1.000  C
  C71      1.0000 0.06520  0.12180  0.34150  Biso   1.000  C
  C72      1.0000 0.56520  0.37820  0.84150  Biso   1.000  C
  N1       1.0000 0.89120  0.49680  0.78161  Biso   1.000  N
  N2       1.0000 0.39120  0.00320  0.28161  Biso   1.000  N
  N3       1.0000 0.10880  0.50320  0.21839  Biso   1.000  N
  N4       1.0000 0.60880  0.99680  0.71839  Biso   1.000  N
  N5       1.0000 0.82660  0.40980  0.73970  Biso   1.000  N
  N6       1.0000 0.32660  0.09020  0.23970  Biso   1.000  N
  N7       1.0000 0.17340  0.59020  0.26030  Biso   1.000  N
  N8       1.0000 0.67340  0.90980  0.76030  Biso   1.000  N
  C73      1.0000 0.73730  0.47040  0.72491  Biso   1.000  C
  C74      1.0000 0.23730  0.02960  0.22491  Biso   1.000  C
  C75      1.0000 0.26270  0.52960  0.27509  Biso   1.000  C
  C76      1.0000 0.76270  0.97040  0.77509  Biso   1.000  C
  N9       1.0000 0.74140  0.59140  0.75475  Biso   1.000  N
  N10      1.0000 0.24140  0.90860  0.25475  Biso   1.000  N
  N11      1.0000 0.25860  0.40860  0.24525  Biso   1.000  N
  N12      1.0000 0.75860  0.09140  0.74525  Biso   1.000  N
  C77      1.0000 0.83860  0.60270  0.78962  Biso   1.000  C
  C78      1.0000 0.33860  0.89730  0.28962  Biso   1.000  C
  C79      1.0000 0.16140  0.39730  0.21038  Biso   1.000  C
  C80      1.0000 0.66140  0.10270  0.71038  Biso   1.000  C
  N13      1.0000 0.00768  0.34540  0.86416  Biso   1.000  N
  N14      1.0000 0.50768  0.15460  0.36416  Biso   1.000  N
  N15      1.0000 0.99232  0.65460  0.13584  Biso   1.000  N
  N16      1.0000 0.49232  0.84540  0.63584  Biso   1.000  N
  N17      1.0000 0.96370  0.22700  0.84066  Biso   1.000  N
  N18      1.0000 0.46370  0.27300  0.34066  Biso   1.000  N
  N19      1.0000 0.03630  0.77300  0.15934  Biso   1.000  N
  N20      1.0000 0.53630  0.72700  0.65934  Biso   1.000  N
  C81      1.0000 0.97300  0.15980  0.89957  Biso   1.000  C
  C82      1.0000 0.47300  0.34020  0.39957  Biso   1.000  C
  C83      1.0000 0.02700  0.84020  0.10043  Biso   1.000  C
  C84      1.0000 0.52700  0.65980  0.60043  Biso   1.000  C
  N21      1.0000 0.01970  0.22480  0.95900  Biso   1.000  N
  N22      1.0000 0.51970  0.27520  0.45900  Biso   1.000  N
  N23      1.0000 0.98030  0.77520  0.04100  Biso   1.000  N
  N24      1.0000 0.48030  0.72480  0.54100  Biso   1.000  N
  C85      1.0000 0.03930  0.34020  0.93370  Biso   1.000  C
  C86      1.0000 0.53930  0.15980  0.43370  Biso   1.000  C
  C87      1.0000 0.96070  0.65980  0.06630  Biso   1.000  C
  C88      1.0000 0.46070  0.84020  0.56630  Biso   1.000  C
  B1       1.0000 0.00520  0.46210  0.81270  Biso   1.000  B
  B2       1.0000 0.50520  0.03790  0.31270  Biso   1.000  B
  B3       1.0000 0.99480  0.53790  0.18730  Biso   1.000  B
  B4       1.0000 0.49480  0.96210  0.68730  Biso   1.000  B
  C89      1.0000 0.45680  0.33950  0.61220  Biso   1.000  C
  C90      1.0000 0.95680  0.16050  0.11220  Biso   1.000  C
  C91      1.0000 0.54320  0.66050  0.38780  Biso   1.000  C
  C92      1.0000 0.04320  0.83950  0.88780  Biso   1.000  C
  O1       1.0000 0.55430  0.34060  0.60122  Biso   1.000  O
  O2       1.0000 0.05430  0.15940  0.10122  Biso   1.000  O
  O3       1.0000 0.44570  0.65940  0.39878  Biso   1.000  O
  O4       1.0000 0.94570  0.84060  0.89878  Biso   1.000  O
  H1       1.0000 0.93800  0.33600  0.58200  Biso   1.000  H
  H2       1.0000 0.43800  0.16400  0.08200  Biso   1.000  H
  H3       1.0000 0.06200  0.66400  0.41800  Biso   1.000  H
  H4       1.0000 0.56200  0.83600  0.91800  Biso   1.000  H
  H5       1.0000 0.86700  0.14300  0.47800  Biso   1.000  H
  H6       1.0000 0.36700  0.35700  0.97800  Biso   1.000  H
  H7       1.0000 0.13300  0.85700  0.52200  Biso   1.000  H
  H8       1.0000 0.63300  0.64300  0.02200  Biso   1.000  H
  H9       1.0000 0.97300  0.19700  0.50000  Biso   1.000  H
  H10      1.0000 0.47300  0.30300  0.00000  Biso   1.000  H
  H11      1.0000 0.02700  0.80300  0.50000  Biso   1.000  H
  H12      1.0000 0.52700  0.69700  0.00000  Biso   1.000  H
  H13      1.0000 0.88000  0.28900  0.39700  Biso   1.000  H
  H14      1.0000 0.38000  0.21100  0.89700  Biso   1.000  H
  H15      1.0000 0.12000  0.71100  0.60300  Biso   1.000  H
  H16      1.0000 0.62000  0.78900  0.10300  Biso   1.000  H
  H17      1.0000 0.92800  0.40200  0.45500  Biso   1.000  H
  H18      1.0000 0.42800  0.09800  0.95500  Biso   1.000  H
  H19      1.0000 0.07200  0.59800  0.54500  Biso   1.000  H
  H20      1.0000 0.57200  0.90200  0.04500  Biso   1.000  H
  H21      1.0000 0.71500  0.29900  0.41200  Biso   1.000  H
  H22      1.0000 0.21500  0.20100  0.91200  Biso   1.000  H
  H23      1.0000 0.28500  0.70100  0.58800  Biso   1.000  H
  H24      1.0000 0.78500  0.79900  0.08800  Biso   1.000  H
  H25      1.0000 0.75100  0.44000  0.39300  Biso   1.000  H
  H26      1.0000 0.25100  0.06000  0.89300  Biso   1.000  H
  H27      1.0000 0.24900  0.56000  0.60700  Biso   1.000  H
  H28      1.0000 0.74900  0.94000  0.10700  Biso   1.000  H
  H29      1.0000 0.68700  0.46100  0.49700  Biso   1.000  H
  H30      1.0000 0.18700  0.03900  0.99700  Biso   1.000  H
  H31      1.0000 0.31300  0.53900  0.50300  Biso   1.000  H
  H32      1.0000 0.81300  0.96100  0.00300  Biso   1.000  H
  H33      1.0000 0.81000  0.50200  0.51500  Biso   1.000  H
  H34      1.0000 0.31000  0.99800  0.01500  Biso   1.000  H
  H35      1.0000 0.19000  0.49800  0.48500  Biso   1.000  H
  H36      1.0000 0.69000  0.00200  0.98500  Biso   1.000  H
  H37      1.0000 0.78000  0.34300  0.60400  Biso   1.000  H
  H38      1.0000 0.28000  0.15700  0.10400  Biso   1.000  H
  H39      1.0000 0.22000  0.65700  0.39600  Biso   1.000  H
  H40      1.0000 0.72000  0.84300  0.89600  Biso   1.000  H
  H41      1.0000 0.73200  0.24800  0.54100  Biso   1.000  H
  H42      1.0000 0.23200  0.25200  0.04100  Biso   1.000  H
  H43      1.0000 0.26800  0.75200  0.45900  Biso   1.000  H
  H44      1.0000 0.76800  0.74800  0.95900  Biso   1.000  H
  H45      1.0000 0.09400  0.07700  0.62400  Biso   1.000  H
  H46      1.0000 0.59400  0.42300  0.12400  Biso   1.000  H
  H47      1.0000 0.90600  0.92300  0.37600  Biso   1.000  H
  H48      1.0000 0.40600  0.57700  0.87600  Biso   1.000  H
  H49      1.0000 0.08800  0.01300  0.74100  Biso   1.000  H
  H50      1.0000 0.58800  0.48700  0.24100  Biso   1.000  H
  H51      1.0000 0.91200  0.98700  0.25900  Biso   1.000  H
  H52      1.0000 0.41200  0.51300  0.75900  Biso   1.000  H
  H53      1.0000 0.12000  0.16700  0.76000  Biso   1.000  H
  H54      1.0000 0.62000  0.33300  0.26000  Biso   1.000  H
  H55      1.0000 0.88000  0.83300  0.24000  Biso   1.000  H
  H56      1.0000 0.38000  0.66700  0.74000  Biso   1.000  H
  H57      1.0000 0.25600  0.00600  0.70650  Biso   1.000  H
  H58      1.0000 0.75600  0.49400  0.20650  Biso   1.000  H
  H59      1.0000 0.74400  0.99400  0.29350  Biso   1.000  H
  H60      1.0000 0.24400  0.50600  0.79350  Biso   1.000  H
  H61      1.0000 0.26900  0.04400  0.78800  Biso   1.000  H
  H62      1.0000 0.76900  0.45600  0.28800  Biso   1.000  H
  H63      1.0000 0.73100  0.95600  0.21200  Biso   1.000  H
  H64      1.0000 0.23100  0.54400  0.71200  Biso   1.000  H
  H65      1.0000 0.36300  0.19300  0.73300  Biso   1.000  H
  H66      1.0000 0.86300  0.30700  0.23300  Biso   1.000  H
  H67      1.0000 0.63700  0.80700  0.26700  Biso   1.000  H
  H68      1.0000 0.13700  0.69300  0.76700  Biso   1.000  H
  H69      1.0000 0.27400  0.27000  0.76100  Biso   1.000  H
  H70      1.0000 0.77400  0.23000  0.26100  Biso   1.000  H
  H71      1.0000 0.72600  0.73000  0.23900  Biso   1.000  H
  H72      1.0000 0.22600  0.77000  0.73900  Biso   1.000  H
  H73      1.0000 0.25600  0.19200  0.62100  Biso   1.000  H
  H74      1.0000 0.75600  0.30800  0.12100  Biso   1.000  H
  H75      1.0000 0.74400  0.80800  0.37900  Biso   1.000  H
  H76      1.0000 0.24400  0.69200  0.87900  Biso   1.000  H
  H77      1.0000 0.26800  0.32200  0.64300  Biso   1.000  H
  H78      1.0000 0.76800  0.17800  0.14300  Biso   1.000  H
  H79      1.0000 0.73200  0.67800  0.35700  Biso   1.000  H
  H80      1.0000 0.23200  0.82200  0.85700  Biso   1.000  H
  H81      1.0000 0.10900  0.33700  0.67500  Biso   1.000  H
  H82      1.0000 0.60900  0.16300  0.17500  Biso   1.000  H
  H83      1.0000 0.89100  0.66300  0.32500  Biso   1.000  H
  H84      1.0000 0.39100  0.83700  0.82500  Biso   1.000  H
  H85      1.0000 0.09600  0.28700  0.59300  Biso   1.000  H
  H86      1.0000 0.59600  0.21300  0.09300  Biso   1.000  H
  H87      1.0000 0.90400  0.71300  0.40700  Biso   1.000  H
  H88      1.0000 0.40400  0.78700  0.90700  Biso   1.000  H
  H89      1.0000 0.92500  0.97400  0.56400  Biso   1.000  H
  H90      1.0000 0.42500  0.52600  0.06400  Biso   1.000  H
  H91      1.0000 0.07500  0.02600  0.43600  Biso   1.000  H
  H92      1.0000 0.57500  0.47400  0.93600  Biso   1.000  H
  H93      1.0000 0.75600  0.02900  0.53600  Biso   1.000  H
  H94      1.0000 0.25600  0.47100  0.03600  Biso   1.000  H
  H95      1.0000 0.24400  0.97100  0.46400  Biso   1.000  H
  H96      1.0000 0.74400  0.52900  0.96400  Biso   1.000  H
  H97      1.0000 0.74700  0.00700  0.61330  Biso   1.000  H
  H98      1.0000 0.24700  0.49300  0.11330  Biso   1.000  H
  H99      1.0000 0.25300  0.99300  0.38670  Biso   1.000  H
  H100     1.0000 0.75300  0.50700  0.88670  Biso   1.000  H
  H101     1.0000 0.76700  0.82200  0.50700  Biso   1.000  H
  H102     1.0000 0.26700  0.67800  0.00700  Biso   1.000  H
  H103     1.0000 0.23300  0.17800  0.49300  Biso   1.000  H
  H104     1.0000 0.73300  0.32200  0.99300  Biso   1.000  H
  H105     1.0000 0.66300  0.84000  0.53400  Biso   1.000  H
  H106     1.0000 0.16300  0.66000  0.03400  Biso   1.000  H
  H107     1.0000 0.33700  0.16000  0.46600  Biso   1.000  H
  H108     1.0000 0.83700  0.34000  0.96600  Biso   1.000  H
  H109     1.0000 0.74900  0.65800  0.58700  Biso   1.000  H
  H110     1.0000 0.24900  0.84200  0.08700  Biso   1.000  H
  H111     1.0000 0.25100  0.34200  0.41300  Biso   1.000  H
  H112     1.0000 0.75100  0.15800  0.91300  Biso   1.000  H
  H113     1.0000 0.75800  0.75800  0.64900  Biso   1.000  H
  H114     1.0000 0.25800  0.74200  0.14900  Biso   1.000  H
  H115     1.0000 0.24200  0.24200  0.35100  Biso   1.000  H
  H116     1.0000 0.74200  0.25800  0.85100  Biso   1.000  H
  H117     1.0000 0.91300  0.72100  0.58900  Biso   1.000  H
  H118     1.0000 0.41300  0.77900  0.08900  Biso   1.000  H
  H119     1.0000 0.08700  0.27900  0.41100  Biso   1.000  H
  H120     1.0000 0.58700  0.22100  0.91100  Biso   1.000  H
  H121     1.0000 0.91300  0.70500  0.66500  Biso   1.000  H
  H122     1.0000 0.41300  0.79500  0.16500  Biso   1.000  H
  H123     1.0000 0.08700  0.29500  0.33500  Biso   1.000  H
  H124     1.0000 0.58700  0.20500  0.83500  Biso   1.000  H
  H125     1.0000 0.91700  0.90200  0.70000  Biso   1.000  H
  H126     1.0000 0.41700  0.59800  0.20000  Biso   1.000  H
  H127     1.0000 0.08300  0.09800  0.30000  Biso   1.000  H
  H128     1.0000 0.58300  0.40200  0.80000  Biso   1.000  H
  H129     1.0000 0.00700  0.87500  0.66900  Biso   1.000  H
  H130     1.0000 0.50700  0.62500  0.16900  Biso   1.000  H
  H131     1.0000 0.99300  0.12500  0.33100  Biso   1.000  H
  H132     1.0000 0.49300  0.37500  0.83100  Biso   1.000  H
  H133     1.0000 0.67600  0.43700  0.69420  Biso   1.000  H
  H134     1.0000 0.17600  0.06300  0.19420  Biso   1.000  H
  H135     1.0000 0.32400  0.56300  0.30580  Biso   1.000  H
  H136     1.0000 0.82400  0.93700  0.80580  Biso   1.000  H
  H137     1.0000 0.86400  0.67600  0.82100  Biso   1.000  H
  H138     1.0000 0.36400  0.82400  0.32100  Biso   1.000  H
  H139     1.0000 0.13600  0.32400  0.17900  Biso   1.000  H
  H140     1.0000 0.63600  0.17600  0.67900  Biso   1.000  H
  H141     1.0000 0.94200  0.07200  0.89800  Biso   1.000  H
  H142     1.0000 0.44200  0.42800  0.39800  Biso   1.000  H
  H143     1.0000 0.05800  0.92800  0.10200  Biso   1.000  H
  H144     1.0000 0.55800  0.57200  0.60200  Biso   1.000  H
  H145     1.0000 0.07300  0.40500  0.96200  Biso   1.000  H
  H146     1.0000 0.57300  0.09500  0.46200  Biso   1.000  H
  H147     1.0000 0.92700  0.59500  0.03800  Biso   1.000  H
  H148     1.0000 0.42700  0.90500  0.53800  Biso   1.000  H
  H149     1.0000 0.04400  0.42900  0.77100  Biso   1.000  H
  H150     1.0000 0.54400  0.07100  0.27100  Biso   1.000  H
  H151     1.0000 0.95600  0.57100  0.22900  Biso   1.000  H
  H152     1.0000 0.45600  0.92900  0.72900  Biso   1.000  H
  H153     1.0000 0.04200  0.53700  0.84300  Biso   1.000  H
  H154     1.0000 0.54200  0.96300  0.34300  Biso   1.000  H
  H155     1.0000 0.95800  0.46300  0.15700  Biso   1.000  H
  H156     1.0000 0.45800  0.03700  0.65700  Biso   1.000  H
  H157     1.0000 0.41700  0.40100  0.58500  Biso   1.000  H
  H158     1.0000 0.91700  0.09900  0.08500  Biso   1.000  H
  H159     1.0000 0.58300  0.59900  0.41500  Biso   1.000  H
  H160     1.0000 0.08300  0.90100  0.91500  Biso   1.000  H
  H161     1.0000 0.46400  0.36200  0.66000  Biso   1.000  H
  H162     1.0000 0.96400  0.13800  0.16000  Biso   1.000  H
  H163     1.0000 0.53600  0.63800  0.34000  Biso   1.000  H
  H164     1.0000 0.03600  0.86200  0.84000  Biso   1.000  H
  H165     1.0000 0.41000  0.25700  0.59400  Biso   1.000  H
  H166     1.0000 0.91000  0.24300  0.09400  Biso   1.000  H
  H167     1.0000 0.59000  0.74300  0.40600  Biso   1.000  H
  H168     1.0000 0.09000  0.75700  0.90600  Biso   1.000  H
  H169     1.0000 0.54400  0.33200  0.56100  Biso   1.000  H
  H170     1.0000 0.04400  0.16800  0.06100  Biso   1.000  H
  H171     1.0000 0.45600  0.66800  0.43900  Biso   1.000  H
  H172     1.0000 0.95600  0.83200  0.93900  Biso   1.000  H
