data_image0
_cell_length_a       14.3011
_cell_length_b       14.3011
_cell_length_c       8.7456
_cell_angle_alpha    90
_cell_angle_beta     90
_cell_angle_gamma    90

_symmetry_space_group_name_H-M    "P 1"
_symmetry_int_tables_number       1

loop_
  _symmetry_equiv_pos_as_xyz
  'x, y, z'

loop_
  _atom_site_label
  _atom_site_occupancy
  _atom_site_fract_x
  _atom_site_fract_y
  _atom_site_fract_z
  _atom_site_thermal_displace_type
  _atom_site_B_iso_or_equiv
  _atom_site_type_symbol
  Cu1      1.0000 0.25000  0.25000  0.94350  Biso   1.000  Cu
  Cu2      1.0000 0.75000  0.75000  0.05650  Biso   1.000  Cu
  C1       1.0000 0.38190  0.11790  0.81370  Biso   1.000  C
  C2       1.0000 0.38210  0.38190  0.81370  Biso   1.000  C
  C3       1.0000 0.11810  0.38210  0.81370  Biso   1.000  C
  C4       1.0000 0.11790  0.11810  0.81370  Biso   1.000  C
  C5       1.0000 0.61810  0.88210  0.18630  Biso   1.000  C
  C6       1.0000 0.61790  0.61810  0.18630  Biso   1.000  C
  C7       1.0000 0.88190  0.61790  0.18630  Biso   1.000  C
  C8       1.0000 0.88210  0.88190  0.18630  Biso   1.000  C
  H1       1.0000 0.34600  0.10450  0.72780  Biso   1.000  H
  H2       1.0000 0.39550  0.34600  0.72780  Biso   1.000  H
  H3       1.0000 0.15400  0.39550  0.72780  Biso   1.000  H
  H4       1.0000 0.10450  0.15400  0.72780  Biso   1.000  H
  H5       1.0000 0.65400  0.89550  0.27220  Biso   1.000  H
  H6       1.0000 0.60450  0.65400  0.27220  Biso   1.000  H
  H7       1.0000 0.84600  0.60450  0.27220  Biso   1.000  H
  H8       1.0000 0.89550  0.84600  0.27220  Biso   1.000  H
  N1       1.0000 0.34580  0.15270  0.93490  Biso   1.000  N
  N2       1.0000 0.34730  0.34580  0.93490  Biso   1.000  N
  N3       1.0000 0.15420  0.34730  0.93490  Biso   1.000  N
  N4       1.0000 0.15270  0.15420  0.93490  Biso   1.000  N
  N5       1.0000 0.65420  0.84730  0.06510  Biso   1.000  N
  N6       1.0000 0.65270  0.65420  0.06510  Biso   1.000  N
  N7       1.0000 0.84580  0.65270  0.06510  Biso   1.000  N
  N8       1.0000 0.84730  0.84580  0.06510  Biso   1.000  N
  N9       1.0000 0.48350  0.10010  0.81700  Biso   1.000  N
  N10      1.0000 0.39990  0.48350  0.81700  Biso   1.000  N
  N11      1.0000 0.01650  0.39990  0.81700  Biso   1.000  N
  N12      1.0000 0.10010  0.01650  0.81700  Biso   1.000  N
  N13      1.0000 0.51650  0.89990  0.18300  Biso   1.000  N
  N14      1.0000 0.60010  0.51650  0.18300  Biso   1.000  N
  N15      1.0000 0.98350  0.60010  0.18300  Biso   1.000  N
  N16      1.0000 0.89990  0.98350  0.18300  Biso   1.000  N
  C9       1.0000 0.51780  0.12870  0.96000  Biso   1.000  C
  C10      1.0000 0.37130  0.51780  0.96000  Biso   1.000  C
  C11      1.0000 0.98220  0.37130  0.96000  Biso   1.000  C
  C12      1.0000 0.12870  0.98220  0.96000  Biso   1.000  C
  C13      1.0000 0.48220  0.87130  0.04000  Biso   1.000  C
  C14      1.0000 0.62870  0.48220  0.04000  Biso   1.000  C
  C15      1.0000 0.01780  0.62870  0.04000  Biso   1.000  C
  C16      1.0000 0.87130  0.01780  0.04000  Biso   1.000  C
  C17      1.0000 0.60890  0.11150  0.00300  Biso   1.000  C
  C18      1.0000 0.38850  0.60890  0.00300  Biso   1.000  C
  C19      1.0000 0.89110  0.38850  0.00300  Biso   1.000  C
  C20      1.0000 0.11150  0.89110  0.00300  Biso   1.000  C
  C21      1.0000 0.39110  0.88850  0.99700  Biso   1.000  C
  C22      1.0000 0.61150  0.39110  0.99700  Biso   1.000  C
  C23      1.0000 0.10890  0.61150  0.99700  Biso   1.000  C
  C24      1.0000 0.88850  0.10890  0.99700  Biso   1.000  C
  H9       1.0000 0.65530  0.08060  0.94790  Biso   1.000  H
  H10      1.0000 0.41940  0.65530  0.94790  Biso   1.000  H
  H11      1.0000 0.84470  0.41940  0.94790  Biso   1.000  H
  H12      1.0000 0.08060  0.84470  0.94790  Biso   1.000  H
  H13      1.0000 0.34470  0.91940  0.05210  Biso   1.000  H
  H14      1.0000 0.58060  0.34470  0.05210  Biso   1.000  H
  H15      1.0000 0.15530  0.58060  0.05210  Biso   1.000  H
  H16      1.0000 0.91940  0.15530  0.05210  Biso   1.000  H
  C25      1.0000 0.47220  0.02740  0.55830  Biso   1.000  C
  C26      1.0000 0.47260  0.47220  0.55830  Biso   1.000  C
  C27      1.0000 0.02780  0.47260  0.55830  Biso   1.000  C
  C28      1.0000 0.02740  0.02780  0.55830  Biso   1.000  C
  C29      1.0000 0.52780  0.97260  0.44170  Biso   1.000  C
  C30      1.0000 0.52740  0.52780  0.44170  Biso   1.000  C
  C31      1.0000 0.97220  0.52740  0.44170  Biso   1.000  C
  C32      1.0000 0.97260  0.97220  0.44170  Biso   1.000  C
  H17      1.0000 0.41660  0.99250  0.58600  Biso   1.000  H
  H18      1.0000 0.50750  0.41660  0.58600  Biso   1.000  H
  H19      1.0000 0.08340  0.50750  0.58600  Biso   1.000  H
  H20      1.0000 0.99250  0.08340  0.58600  Biso   1.000  H
  H21      1.0000 0.58340  0.00750  0.41400  Biso   1.000  H
  H22      1.0000 0.49250  0.58340  0.41400  Biso   1.000  H
  H23      1.0000 0.91660  0.49250  0.41400  Biso   1.000  H
  H24      1.0000 0.00750  0.91660  0.41400  Biso   1.000  H
  H25      1.0000 0.45250  0.08630  0.51380  Biso   1.000  H
  H26      1.0000 0.41370  0.45250  0.51380  Biso   1.000  H
  H27      1.0000 0.04750  0.41370  0.51380  Biso   1.000  H
  H28      1.0000 0.08630  0.04750  0.51380  Biso   1.000  H
  H29      1.0000 0.54750  0.91370  0.48620  Biso   1.000  H
  H30      1.0000 0.58630  0.54750  0.48620  Biso   1.000  H
  H31      1.0000 0.95250  0.58630  0.48620  Biso   1.000  H
  H32      1.0000 0.91370  0.95250  0.48620  Biso   1.000  H
  C33      1.0000 0.53110  0.04660  0.70300  Biso   1.000  C
  C34      1.0000 0.45340  0.53110  0.70300  Biso   1.000  C
  C35      1.0000 0.96890  0.45340  0.70300  Biso   1.000  C
  C36      1.0000 0.04660  0.96890  0.70300  Biso   1.000  C
  C37      1.0000 0.46890  0.95340  0.29700  Biso   1.000  C
  C38      1.0000 0.54660  0.46890  0.29700  Biso   1.000  C
  C39      1.0000 0.03110  0.54660  0.29700  Biso   1.000  C
  C40      1.0000 0.95340  0.03110  0.29700  Biso   1.000  C
  H33      1.0000 0.54970  0.98730  0.74760  Biso   1.000  H
  H34      1.0000 0.51270  0.54970  0.74760  Biso   1.000  H
  H35      1.0000 0.95030  0.51270  0.74760  Biso   1.000  H
  H36      1.0000 0.98730  0.95030  0.74760  Biso   1.000  H
  H37      1.0000 0.45030  0.01270  0.25240  Biso   1.000  H
  H38      1.0000 0.48730  0.45030  0.25240  Biso   1.000  H
  H39      1.0000 0.04970  0.48730  0.25240  Biso   1.000  H
  H40      1.0000 0.01270  0.04970  0.25240  Biso   1.000  H
  H41      1.0000 0.58750  0.07960  0.67390  Biso   1.000  H
  H42      1.0000 0.42040  0.58750  0.67390  Biso   1.000  H
  H43      1.0000 0.91250  0.42040  0.67390  Biso   1.000  H
  H44      1.0000 0.07960  0.91250  0.67390  Biso   1.000  H
  H45      1.0000 0.41250  0.92040  0.32610  Biso   1.000  H
  H46      1.0000 0.57960  0.41250  0.32610  Biso   1.000  H
  H47      1.0000 0.08750  0.57960  0.32610  Biso   1.000  H
  H48      1.0000 0.92040  0.08750  0.32610  Biso   1.000  H
  C41      1.0000 0.45510  0.21430  0.17800  Biso   1.000  C
  C42      1.0000 0.28570  0.45510  0.17800  Biso   1.000  C
  C43      1.0000 0.04490  0.28570  0.17800  Biso   1.000  C
  C44      1.0000 0.21430  0.04490  0.17800  Biso   1.000  C
  C45      1.0000 0.54490  0.78570  0.82200  Biso   1.000  C
  C46      1.0000 0.71430  0.54490  0.82200  Biso   1.000  C
  C47      1.0000 0.95510  0.71430  0.82200  Biso   1.000  C
  C48      1.0000 0.78570  0.95510  0.82200  Biso   1.000  C
  H49      1.0000 0.40830  0.24800  0.22740  Biso   1.000  H
  H50      1.0000 0.25200  0.40830  0.22740  Biso   1.000  H
  H51      1.0000 0.09170  0.25200  0.22740  Biso   1.000  H
  H52      1.0000 0.24800  0.09170  0.22740  Biso   1.000  H
  H53      1.0000 0.59170  0.75200  0.77260  Biso   1.000  H
  H54      1.0000 0.74800  0.59170  0.77260  Biso   1.000  H
  H55      1.0000 0.90830  0.74800  0.77260  Biso   1.000  H
  H56      1.0000 0.75200  0.90830  0.77260  Biso   1.000  H
  C49      1.0000 0.44510  0.17070  0.02800  Biso   1.000  C
  C50      1.0000 0.32930  0.44510  0.02800  Biso   1.000  C
  C51      1.0000 0.05490  0.32930  0.02800  Biso   1.000  C
  C52      1.0000 0.17070  0.05490  0.02800  Biso   1.000  C
  C53      1.0000 0.55490  0.82930  0.97200  Biso   1.000  C
  C54      1.0000 0.67070  0.55490  0.97200  Biso   1.000  C
  C55      1.0000 0.94510  0.67070  0.97200  Biso   1.000  C
  C56      1.0000 0.82930  0.94510  0.97200  Biso   1.000  C
  C57      1.0000 0.54600  0.19840  0.24100  Biso   1.000  C
  C58      1.0000 0.30160  0.54600  0.24100  Biso   1.000  C
  C59      1.0000 0.95400  0.30160  0.24100  Biso   1.000  C
  C60      1.0000 0.19840  0.95400  0.24100  Biso   1.000  C
  C61      1.0000 0.45400  0.80160  0.75900  Biso   1.000  C
  C62      1.0000 0.69840  0.45400  0.75900  Biso   1.000  C
  C63      1.0000 0.04600  0.69840  0.75900  Biso   1.000  C
  C64      1.0000 0.80160  0.04600  0.75900  Biso   1.000  C
  H57      1.0000 0.55800  0.21880  0.33960  Biso   1.000  H
  H58      1.0000 0.28120  0.55800  0.33960  Biso   1.000  H
  H59      1.0000 0.94200  0.28120  0.33960  Biso   1.000  H
  H60      1.0000 0.21880  0.94200  0.33960  Biso   1.000  H
  H61      1.0000 0.44200  0.78120  0.66040  Biso   1.000  H
  H62      1.0000 0.71880  0.44200  0.66040  Biso   1.000  H
  H63      1.0000 0.05800  0.71880  0.66040  Biso   1.000  H
  H64      1.0000 0.78120  0.05800  0.66040  Biso   1.000  H
  C65      1.0000 0.61600  0.15500  0.16300  Biso   1.000  C
  C66      1.0000 0.34500  0.61600  0.16300  Biso   1.000  C
  C67      1.0000 0.88400  0.34500  0.16300  Biso   1.000  C
  C68      1.0000 0.15500  0.88400  0.16300  Biso   1.000  C
  C69      1.0000 0.38400  0.84500  0.83700  Biso   1.000  C
  C70      1.0000 0.65500  0.38400  0.83700  Biso   1.000  C
  C71      1.0000 0.11600  0.65500  0.83700  Biso   1.000  C
  C72      1.0000 0.84500  0.11600  0.83700  Biso   1.000  C
  H65      1.0000 0.67360  0.15170  0.21100  Biso   1.000  H
  H66      1.0000 0.34830  0.67360  0.21100  Biso   1.000  H
  H67      1.0000 0.82640  0.34830  0.21100  Biso   1.000  H
  H68      1.0000 0.15170  0.82640  0.21100  Biso   1.000  H
  H69      1.0000 0.32640  0.84830  0.78900  Biso   1.000  H
  H70      1.0000 0.65170  0.32640  0.78900  Biso   1.000  H
  H71      1.0000 0.17360  0.65170  0.78900  Biso   1.000  H
  H72      1.0000 0.84830  0.17360  0.78900  Biso   1.000  H
  O1       1.0000 0.25000  0.25000  0.65000  Biso   1.000  O
  O2       1.0000 0.75000  0.75000  0.35000  Biso   1.000  O
  O3       1.0000 0.25300  0.15400  0.48600  Biso   1.000  O
  O4       1.0000 0.34600  0.25300  0.48600  Biso   1.000  O
  O5       1.0000 0.24700  0.34600  0.48600  Biso   1.000  O
  O6       1.0000 0.15400  0.24700  0.48600  Biso   1.000  O
  O7       1.0000 0.74700  0.84600  0.51400  Biso   1.000  O
  O8       1.0000 0.65400  0.74700  0.51400  Biso   1.000  O
  O9       1.0000 0.75300  0.65400  0.51400  Biso   1.000  O
  O10      1.0000 0.84600  0.75300  0.51400  Biso   1.000  O
  C73      1.0000 0.25000  0.25000  0.49400  Biso   1.000  C
  C74      1.0000 0.75000  0.75000  0.50600  Biso   1.000  C
  N17      1.0000 0.39800  0.01780  0.82000  Biso   1.000  N
  N18      1.0000 0.48220  0.39800  0.82000  Biso   1.000  N
  N19      1.0000 0.10200  0.48220  0.82000  Biso   1.000  N
  N20      1.0000 0.01780  0.10200  0.82000  Biso   1.000  N
  N21      1.0000 0.60200  0.98220  0.18000  Biso   1.000  N
  N22      1.0000 0.51780  0.60200  0.18000  Biso   1.000  N
  N23      1.0000 0.89800  0.51780  0.18000  Biso   1.000  N
  N24      1.0000 0.98220  0.89800  0.18000  Biso   1.000  N
  C75      1.0000 0.45670  0.96760  0.70000  Biso   1.000  C
  C76      1.0000 0.53240  0.45670  0.70000  Biso   1.000  C
  C77      1.0000 0.04330  0.53240  0.70000  Biso   1.000  C
  C78      1.0000 0.96760  0.04330  0.70000  Biso   1.000  C
  C79      1.0000 0.54330  0.03240  0.30000  Biso   1.000  C
  C80      1.0000 0.46760  0.54330  0.30000  Biso   1.000  C
  C81      1.0000 0.95670  0.46760  0.30000  Biso   1.000  C
  C82      1.0000 0.03240  0.95670  0.30000  Biso   1.000  C
  H73      1.0000 0.51670  0.95120  0.74380  Biso   1.000  H
  H74      1.0000 0.54880  0.51670  0.74380  Biso   1.000  H
  H75      1.0000 0.98330  0.54880  0.74380  Biso   1.000  H
  H76      1.0000 0.95120  0.98330  0.74380  Biso   1.000  H
  H77      1.0000 0.48330  0.04880  0.25620  Biso   1.000  H
  H78      1.0000 0.45120  0.48330  0.25620  Biso   1.000  H
  H79      1.0000 0.01670  0.45120  0.25620  Biso   1.000  H
  H80      1.0000 0.04880  0.01670  0.25620  Biso   1.000  H
  H81      1.0000 0.42550  0.91010  0.67050  Biso   1.000  H
  H82      1.0000 0.58990  0.42550  0.67050  Biso   1.000  H
  H83      1.0000 0.07450  0.58990  0.67050  Biso   1.000  H
  H84      1.0000 0.91010  0.07450  0.67050  Biso   1.000  H
  H85      1.0000 0.57450  0.08990  0.32950  Biso   1.000  H
  H86      1.0000 0.41010  0.57450  0.32950  Biso   1.000  H
  H87      1.0000 0.92550  0.41010  0.32950  Biso   1.000  H
  H88      1.0000 0.08990  0.92550  0.32950  Biso   1.000  H
  C83      1.0000 0.45600  0.28460  0.17800  Biso   1.000  C
  C84      1.0000 0.21540  0.45600  0.17800  Biso   1.000  C
  C85      1.0000 0.04400  0.21540  0.17800  Biso   1.000  C
  C86      1.0000 0.28460  0.04400  0.17800  Biso   1.000  C
  C87      1.0000 0.54400  0.71540  0.82200  Biso   1.000  C
  C88      1.0000 0.78460  0.54400  0.82200  Biso   1.000  C
  C89      1.0000 0.95600  0.78460  0.82200  Biso   1.000  C
  C90      1.0000 0.71540  0.95600  0.82200  Biso   1.000  C
  H89      1.0000 0.40870  0.25110  0.22730  Biso   1.000  H
  H90      1.0000 0.24890  0.40870  0.22730  Biso   1.000  H
  H91      1.0000 0.09130  0.24890  0.22730  Biso   1.000  H
  H92      1.0000 0.25110  0.09130  0.22730  Biso   1.000  H
  H93      1.0000 0.59130  0.74890  0.77270  Biso   1.000  H
  H94      1.0000 0.75110  0.59130  0.77270  Biso   1.000  H
  H95      1.0000 0.90870  0.75110  0.77270  Biso   1.000  H
  H96      1.0000 0.74890  0.90870  0.77270  Biso   1.000  H
  C91      1.0000 0.32530  0.05290  0.02500  Biso   1.000  C
  C92      1.0000 0.44710  0.32530  0.02500  Biso   1.000  C
  C93      1.0000 0.17470  0.44710  0.02500  Biso   1.000  C
  C94      1.0000 0.05290  0.17470  0.02500  Biso   1.000  C
  C95      1.0000 0.67470  0.94710  0.97500  Biso   1.000  C
  C96      1.0000 0.55290  0.67470  0.97500  Biso   1.000  C
  C97      1.0000 0.82530  0.55290  0.97500  Biso   1.000  C
  C98      1.0000 0.94710  0.82530  0.97500  Biso   1.000  C
  C99      1.0000 0.54800  0.30400  0.24300  Biso   1.000  C
  C100     1.0000 0.19600  0.54800  0.24300  Biso   1.000  C
  C101     1.0000 0.95200  0.19600  0.24300  Biso   1.000  C
  C102     1.0000 0.30400  0.95200  0.24300  Biso   1.000  C
  C103     1.0000 0.45200  0.69600  0.75700  Biso   1.000  C
  C104     1.0000 0.80400  0.45200  0.75700  Biso   1.000  C
  C105     1.0000 0.04800  0.80400  0.75700  Biso   1.000  C
  C106     1.0000 0.69600  0.04800  0.75700  Biso   1.000  C
  H97      1.0000 0.55980  0.28450  0.34310  Biso   1.000  H
  H98      1.0000 0.21550  0.55980  0.34310  Biso   1.000  H
  H99      1.0000 0.94020  0.21550  0.34310  Biso   1.000  H
  H100     1.0000 0.28450  0.94020  0.34310  Biso   1.000  H
  H101     1.0000 0.44020  0.71550  0.65690  Biso   1.000  H
  H102     1.0000 0.78450  0.44020  0.65690  Biso   1.000  H
  H103     1.0000 0.05980  0.78450  0.65690  Biso   1.000  H
  H104     1.0000 0.71550  0.05980  0.65690  Biso   1.000  H
  C107     1.0000 0.61500  0.34700  0.16900  Biso   1.000  C
  C108     1.0000 0.15300  0.61500  0.16900  Biso   1.000  C
  C109     1.0000 0.88500  0.15300  0.16900  Biso   1.000  C
  C110     1.0000 0.34700  0.88500  0.16900  Biso   1.000  C
  C111     1.0000 0.38500  0.65300  0.83100  Biso   1.000  C
  C112     1.0000 0.84700  0.38500  0.83100  Biso   1.000  C
  C113     1.0000 0.11500  0.84700  0.83100  Biso   1.000  C
  C114     1.0000 0.65300  0.11500  0.83100  Biso   1.000  C
  H105     1.0000 0.67160  0.35230  0.22000  Biso   1.000  H
  H106     1.0000 0.14770  0.67160  0.22000  Biso   1.000  H
  H107     1.0000 0.82840  0.14770  0.22000  Biso   1.000  H
  H108     1.0000 0.35230  0.82840  0.22000  Biso   1.000  H
  H109     1.0000 0.32840  0.64770  0.78000  Biso   1.000  H
  H110     1.0000 0.85230  0.32840  0.78000  Biso   1.000  H
  H111     1.0000 0.17160  0.85230  0.78000  Biso   1.000  H
  H112     1.0000 0.64770  0.17160  0.78000  Biso   1.000  H
  H113     1.0000 0.24880  0.29920  0.41900  Biso   1.000  H
  H114     1.0000 0.20080  0.24880  0.41900  Biso   1.000  H
  H115     1.0000 0.25120  0.20080  0.41900  Biso   1.000  H
  H116     1.0000 0.29920  0.25120  0.41900  Biso   1.000  H
  H117     1.0000 0.75120  0.70080  0.58100  Biso   1.000  H
  H118     1.0000 0.79920  0.75120  0.58100  Biso   1.000  H
  H119     1.0000 0.74880  0.79920  0.58100  Biso   1.000  H
  H120     1.0000 0.70080  0.74880  0.58100  Biso   1.000  H
  C115     1.0000 0.62850  0.01680  0.04300  Biso   1.000  C
  C116     1.0000 0.48320  0.62850  0.04300  Biso   1.000  C
  C117     1.0000 0.87150  0.48320  0.04300  Biso   1.000  C
  C118     1.0000 0.01680  0.87150  0.04300  Biso   1.000  C
  C119     1.0000 0.37150  0.98320  0.95700  Biso   1.000  C
  C120     1.0000 0.51680  0.37150  0.95700  Biso   1.000  C
  C121     1.0000 0.12850  0.51680  0.95700  Biso   1.000  C
  C122     1.0000 0.98320  0.12850  0.95700  Biso   1.000  C
