data_image0
_cell_length_a       18.266
_cell_length_b       18.266
_cell_length_c       8.8185
_cell_angle_alpha    90
_cell_angle_beta     90
_cell_angle_gamma    90

_symmetry_space_group_name_H-M    "P 1"
_symmetry_int_tables_number       1

loop_
  _symmetry_equiv_pos_as_xyz
  'x, y, z'

loop_
  _atom_site_label
  _atom_site_occupancy
  _atom_site_fract_x
  _atom_site_fract_y
  _atom_site_fract_z
  _atom_site_thermal_displace_type
  _atom_site_B_iso_or_equiv
  _atom_site_type_symbol
  Cu1      1.0000 0.37908  0.08221  0.99850  Biso   1.000  Cu
  Cu2      1.0000 0.62092  0.91779  0.99850  Biso   1.000  Cu
  Cu3      1.0000 0.08221  0.62092  0.00150  Biso   1.000  Cu
  Cu4      1.0000 0.91779  0.37908  0.00150  Biso   1.000  Cu
  Cu5      1.0000 0.87908  0.58221  0.49850  Biso   1.000  Cu
  Cu6      1.0000 0.12092  0.41779  0.49850  Biso   1.000  Cu
  Cu7      1.0000 0.58221  0.12092  0.50150  Biso   1.000  Cu
  Cu8      1.0000 0.41779  0.87908  0.50150  Biso   1.000  Cu
  Cu9      1.0000 0.50000  0.00000  0.75000  Biso   1.000  Cu
  Cu10     1.0000 0.00000  0.50000  0.25000  Biso   1.000  Cu
  Cu11     1.0000 0.42282  0.88977  0.11761  Biso   1.000  Cu
  Cu12     1.0000 0.57718  0.11023  0.11761  Biso   1.000  Cu
  Cu13     1.0000 0.88977  0.57718  0.88239  Biso   1.000  Cu
  Cu14     1.0000 0.11023  0.42282  0.88239  Biso   1.000  Cu
  Cu15     1.0000 0.92282  0.38977  0.61761  Biso   1.000  Cu
  Cu16     1.0000 0.07718  0.61023  0.61761  Biso   1.000  Cu
  Cu17     1.0000 0.38977  0.07718  0.38239  Biso   1.000  Cu
  Cu18     1.0000 0.61023  0.92282  0.38239  Biso   1.000  Cu
  S1       1.0000 0.28051  0.14686  0.93910  Biso   1.000  S
  S2       1.0000 0.71949  0.85314  0.93910  Biso   1.000  S
  S3       1.0000 0.14686  0.71949  0.06090  Biso   1.000  S
  S4       1.0000 0.85314  0.28051  0.06090  Biso   1.000  S
  S5       1.0000 0.78051  0.64686  0.43910  Biso   1.000  S
  S6       1.0000 0.21949  0.35314  0.43910  Biso   1.000  S
  S7       1.0000 0.64686  0.21949  0.56090  Biso   1.000  S
  S8       1.0000 0.35314  0.78051  0.56090  Biso   1.000  S
  H1       1.0000 0.22690  0.10960  0.95450  Biso   1.000  H
  H2       1.0000 0.77310  0.89040  0.95450  Biso   1.000  H
  H3       1.0000 0.10960  0.77310  0.04550  Biso   1.000  H
  H4       1.0000 0.89040  0.22690  0.04550  Biso   1.000  H
  H5       1.0000 0.72690  0.60960  0.45450  Biso   1.000  H
  H6       1.0000 0.27310  0.39040  0.45450  Biso   1.000  H
  H7       1.0000 0.60960  0.27310  0.54550  Biso   1.000  H
  H8       1.0000 0.39040  0.72690  0.54550  Biso   1.000  H
  S9       1.0000 0.35957  0.78238  0.08930  Biso   1.000  S
  S10      1.0000 0.64043  0.21762  0.08930  Biso   1.000  S
  S11      1.0000 0.78238  0.64043  0.91070  Biso   1.000  S
  S12      1.0000 0.21762  0.35957  0.91070  Biso   1.000  S
  S13      1.0000 0.85957  0.28238  0.58930  Biso   1.000  S
  S14      1.0000 0.14043  0.71762  0.58930  Biso   1.000  S
  S15      1.0000 0.28238  0.14043  0.41070  Biso   1.000  S
  S16      1.0000 0.71762  0.85957  0.41070  Biso   1.000  S
  H9       1.0000 0.40140  0.73410  0.05790  Biso   1.000  H
  H10      1.0000 0.59860  0.26590  0.05790  Biso   1.000  H
  H11      1.0000 0.73410  0.59860  0.94210  Biso   1.000  H
  H12      1.0000 0.26590  0.40140  0.94210  Biso   1.000  H
  H13      1.0000 0.90140  0.23410  0.55790  Biso   1.000  H
  H14      1.0000 0.09860  0.76590  0.55790  Biso   1.000  H
  H15      1.0000 0.23410  0.09860  0.44210  Biso   1.000  H
  H16      1.0000 0.76590  0.90140  0.44210  Biso   1.000  H
  N1       1.0000 0.28510  0.88710  0.86240  Biso   1.000  N
  N2       1.0000 0.71490  0.11290  0.86240  Biso   1.000  N
  N3       1.0000 0.88710  0.71490  0.13760  Biso   1.000  N
  N4       1.0000 0.11290  0.28510  0.13760  Biso   1.000  N
  N5       1.0000 0.78510  0.38710  0.36240  Biso   1.000  N
  N6       1.0000 0.21490  0.61290  0.36240  Biso   1.000  N
  N7       1.0000 0.38710  0.21490  0.63760  Biso   1.000  N
  N8       1.0000 0.61290  0.78510  0.63760  Biso   1.000  N
  H17      1.0000 0.30520  0.85880  0.93160  Biso   1.000  H
  H18      1.0000 0.69480  0.14120  0.93160  Biso   1.000  H
  H19      1.0000 0.85880  0.69480  0.06840  Biso   1.000  H
  H20      1.0000 0.14120  0.30520  0.06840  Biso   1.000  H
  H21      1.0000 0.80520  0.35880  0.43160  Biso   1.000  H
  H22      1.0000 0.19480  0.64120  0.43160  Biso   1.000  H
  H23      1.0000 0.35880  0.19480  0.56840  Biso   1.000  H
  H24      1.0000 0.64120  0.80520  0.56840  Biso   1.000  H
  C1       1.0000 0.32080  0.94770  0.82150  Biso   1.000  C
  C2       1.0000 0.67920  0.05230  0.82150  Biso   1.000  C
  C3       1.0000 0.94770  0.67920  0.17850  Biso   1.000  C
  C4       1.0000 0.05230  0.32080  0.17850  Biso   1.000  C
  C5       1.0000 0.82080  0.44770  0.32150  Biso   1.000  C
  C6       1.0000 0.17920  0.55230  0.32150  Biso   1.000  C
  C7       1.0000 0.44770  0.17920  0.67850  Biso   1.000  C
  C8       1.0000 0.55230  0.82080  0.67850  Biso   1.000  C
  S17      1.0000 0.40316  0.96920  0.91480  Biso   1.000  S
  S18      1.0000 0.59684  0.03080  0.91480  Biso   1.000  S
  S19      1.0000 0.96920  0.59684  0.08520  Biso   1.000  S
  S20      1.0000 0.03080  0.40316  0.08520  Biso   1.000  S
  S21      1.0000 0.90316  0.46920  0.41480  Biso   1.000  S
  S22      1.0000 0.09684  0.53080  0.41480  Biso   1.000  S
  S23      1.0000 0.46920  0.09684  0.58520  Biso   1.000  S
  S24      1.0000 0.53080  0.90316  0.58520  Biso   1.000  S
  C9       1.0000 0.28960  0.99210  0.70930  Biso   1.000  C
  C10      1.0000 0.71040  0.00790  0.70930  Biso   1.000  C
  C11      1.0000 0.99210  0.71040  0.29070  Biso   1.000  C
  C12      1.0000 0.00790  0.28960  0.29070  Biso   1.000  C
  C13      1.0000 0.78960  0.49210  0.20930  Biso   1.000  C
  C14      1.0000 0.21040  0.50790  0.20930  Biso   1.000  C
  C15      1.0000 0.49210  0.21040  0.79070  Biso   1.000  C
  C16      1.0000 0.50790  0.78960  0.79070  Biso   1.000  C
  H25      1.0000 0.31420  0.03480  0.67480  Biso   1.000  H
  H26      1.0000 0.68580  0.96520  0.67480  Biso   1.000  H
  H27      1.0000 0.03480  0.68580  0.32520  Biso   1.000  H
  H28      1.0000 0.96520  0.31420  0.32520  Biso   1.000  H
  H29      1.0000 0.81420  0.53480  0.17480  Biso   1.000  H
  H30      1.0000 0.18580  0.46520  0.17480  Biso   1.000  H
  H31      1.0000 0.53480  0.18580  0.82520  Biso   1.000  H
  H32      1.0000 0.46520  0.81420  0.82520  Biso   1.000  H
  C17      1.0000 0.22200  0.97260  0.64920  Biso   1.000  C
  C18      1.0000 0.77800  0.02740  0.64920  Biso   1.000  C
  C19      1.0000 0.97260  0.77800  0.35080  Biso   1.000  C
  C20      1.0000 0.02740  0.22200  0.35080  Biso   1.000  C
  C21      1.0000 0.72200  0.47260  0.14920  Biso   1.000  C
  C22      1.0000 0.27800  0.52740  0.14920  Biso   1.000  C
  C23      1.0000 0.47260  0.27800  0.85080  Biso   1.000  C
  C24      1.0000 0.52740  0.72200  0.85080  Biso   1.000  C
  H33      1.0000 0.19990  0.00260  0.57410  Biso   1.000  H
  H34      1.0000 0.80010  0.99740  0.57410  Biso   1.000  H
  H35      1.0000 0.00260  0.80010  0.42590  Biso   1.000  H
  H36      1.0000 0.99740  0.19990  0.42590  Biso   1.000  H
  H37      1.0000 0.69990  0.50260  0.07410  Biso   1.000  H
  H38      1.0000 0.30010  0.49740  0.07410  Biso   1.000  H
  H39      1.0000 0.50260  0.30010  0.92590  Biso   1.000  H
  H40      1.0000 0.49740  0.69990  0.92590  Biso   1.000  H
  C25      1.0000 0.18690  0.91000  0.69760  Biso   1.000  C
  C26      1.0000 0.81310  0.09000  0.69760  Biso   1.000  C
  C27      1.0000 0.91000  0.81310  0.30240  Biso   1.000  C
  C28      1.0000 0.09000  0.18690  0.30240  Biso   1.000  C
  C29      1.0000 0.68690  0.41000  0.19760  Biso   1.000  C
  C30      1.0000 0.31310  0.59000  0.19760  Biso   1.000  C
  C31      1.0000 0.41000  0.31310  0.80240  Biso   1.000  C
  C32      1.0000 0.59000  0.68690  0.80240  Biso   1.000  C
  H41      1.0000 0.14040  0.89700  0.65780  Biso   1.000  H
  H42      1.0000 0.85960  0.10300  0.65780  Biso   1.000  H
  H43      1.0000 0.89700  0.85960  0.34220  Biso   1.000  H
  H44      1.0000 0.10300  0.14040  0.34220  Biso   1.000  H
  H45      1.0000 0.64040  0.39700  0.15780  Biso   1.000  H
  H46      1.0000 0.35960  0.60300  0.15780  Biso   1.000  H
  H47      1.0000 0.39700  0.35960  0.84220  Biso   1.000  H
  H48      1.0000 0.60300  0.64040  0.84220  Biso   1.000  H
  C33      1.0000 0.22020  0.86700  0.80390  Biso   1.000  C
  C34      1.0000 0.77980  0.13300  0.80390  Biso   1.000  C
  C35      1.0000 0.86700  0.77980  0.19610  Biso   1.000  C
  C36      1.0000 0.13300  0.22020  0.19610  Biso   1.000  C
  C37      1.0000 0.72020  0.36700  0.30390  Biso   1.000  C
  C38      1.0000 0.27980  0.63300  0.30390  Biso   1.000  C
  C39      1.0000 0.36700  0.27980  0.69610  Biso   1.000  C
  C40      1.0000 0.63300  0.72020  0.69610  Biso   1.000  C
  H49      1.0000 0.19750  0.82290  0.83640  Biso   1.000  H
  H50      1.0000 0.80250  0.17710  0.83640  Biso   1.000  H
  H51      1.0000 0.82290  0.80250  0.16360  Biso   1.000  H
  H52      1.0000 0.17710  0.19750  0.16360  Biso   1.000  H
  H53      1.0000 0.69750  0.32290  0.33640  Biso   1.000  H
  H54      1.0000 0.30250  0.67710  0.33640  Biso   1.000  H
  H55      1.0000 0.32290  0.30250  0.66360  Biso   1.000  H
  H56      1.0000 0.67710  0.69750  0.66360  Biso   1.000  H
  N9       1.0000 0.37450  0.24690  0.16090  Biso   1.000  N
  N10      1.0000 0.62550  0.75310  0.16090  Biso   1.000  N
  N11      1.0000 0.24690  0.62550  0.83910  Biso   1.000  N
  N12      1.0000 0.75310  0.37450  0.83910  Biso   1.000  N
  N13      1.0000 0.87450  0.74690  0.66090  Biso   1.000  N
  N14      1.0000 0.12550  0.25310  0.66090  Biso   1.000  N
  N15      1.0000 0.74690  0.12550  0.33910  Biso   1.000  N
  N16      1.0000 0.25310  0.87450  0.33910  Biso   1.000  N
  H57      1.0000 0.34410  0.21900  0.10930  Biso   1.000  H
  H58      1.0000 0.65590  0.78100  0.10930  Biso   1.000  H
  H59      1.0000 0.21900  0.65590  0.89070  Biso   1.000  H
  H60      1.0000 0.78100  0.34410  0.89070  Biso   1.000  H
  H61      1.0000 0.84410  0.71900  0.60930  Biso   1.000  H
  H62      1.0000 0.15590  0.28100  0.60930  Biso   1.000  H
  H63      1.0000 0.71900  0.15590  0.39070  Biso   1.000  H
  H64      1.0000 0.28100  0.84410  0.39070  Biso   1.000  H
  C41      1.0000 0.43880  0.21760  0.20770  Biso   1.000  C
  C42      1.0000 0.56120  0.78240  0.20770  Biso   1.000  C
  C43      1.0000 0.21760  0.56120  0.79230  Biso   1.000  C
  C44      1.0000 0.78240  0.43880  0.79230  Biso   1.000  C
  C45      1.0000 0.93880  0.71760  0.70770  Biso   1.000  C
  C46      1.0000 0.06120  0.28240  0.70770  Biso   1.000  C
  C47      1.0000 0.71760  0.06120  0.29230  Biso   1.000  C
  C48      1.0000 0.28240  0.93880  0.29230  Biso   1.000  C
  S25      1.0000 0.45605  0.12512  0.17050  Biso   1.000  S
  S26      1.0000 0.54395  0.87488  0.17050  Biso   1.000  S
  S27      1.0000 0.12512  0.54395  0.82950  Biso   1.000  S
  S28      1.0000 0.87488  0.45605  0.82950  Biso   1.000  S
  S29      1.0000 0.95605  0.62512  0.67050  Biso   1.000  S
  S30      1.0000 0.04395  0.37488  0.67050  Biso   1.000  S
  S31      1.0000 0.62512  0.04395  0.32950  Biso   1.000  S
  S32      1.0000 0.37488  0.95605  0.32950  Biso   1.000  S
  C49      1.0000 0.48620  0.26100  0.29100  Biso   1.000  C
  C50      1.0000 0.51380  0.73900  0.29100  Biso   1.000  C
  C51      1.0000 0.26100  0.51380  0.70900  Biso   1.000  C
  C52      1.0000 0.73900  0.48620  0.70900  Biso   1.000  C
  C53      1.0000 0.98620  0.76100  0.79100  Biso   1.000  C
  C54      1.0000 0.01380  0.23900  0.79100  Biso   1.000  C
  C55      1.0000 0.76100  0.01380  0.20900  Biso   1.000  C
  C56      1.0000 0.23900  0.98620  0.20900  Biso   1.000  C
  H65      1.0000 0.53150  0.24160  0.32600  Biso   1.000  H
  H66      1.0000 0.46850  0.75840  0.32600  Biso   1.000  H
  H67      1.0000 0.24160  0.46850  0.67400  Biso   1.000  H
  H68      1.0000 0.75840  0.53150  0.67400  Biso   1.000  H
  H69      1.0000 0.03150  0.74160  0.82600  Biso   1.000  H
  H70      1.0000 0.96850  0.25840  0.82600  Biso   1.000  H
  H71      1.0000 0.74160  0.96850  0.17400  Biso   1.000  H
  H72      1.0000 0.25840  0.03150  0.17400  Biso   1.000  H
  C57      1.0000 0.46700  0.33370  0.32320  Biso   1.000  C
  C58      1.0000 0.53300  0.66630  0.32320  Biso   1.000  C
  C59      1.0000 0.33370  0.53300  0.67680  Biso   1.000  C
  C60      1.0000 0.66630  0.46700  0.67680  Biso   1.000  C
  C61      1.0000 0.96700  0.83370  0.82320  Biso   1.000  C
  C62      1.0000 0.03300  0.16630  0.82320  Biso   1.000  C
  C63      1.0000 0.83370  0.03300  0.17680  Biso   1.000  C
  C64      1.0000 0.16630  0.96700  0.17680  Biso   1.000  C
  H73      1.0000 0.49950  0.36440  0.37800  Biso   1.000  H
  H74      1.0000 0.50050  0.63560  0.37800  Biso   1.000  H
  H75      1.0000 0.36440  0.50050  0.62200  Biso   1.000  H
  H76      1.0000 0.63560  0.49950  0.62200  Biso   1.000  H
  H77      1.0000 0.99950  0.86440  0.87800  Biso   1.000  H
  H78      1.0000 0.00050  0.13560  0.87800  Biso   1.000  H
  H79      1.0000 0.86440  0.00050  0.12200  Biso   1.000  H
  H80      1.0000 0.13560  0.99950  0.12200  Biso   1.000  H
  C65      1.0000 0.39930  0.36030  0.27350  Biso   1.000  C
  C66      1.0000 0.60070  0.63970  0.27350  Biso   1.000  C
  C67      1.0000 0.36030  0.60070  0.72650  Biso   1.000  C
  C68      1.0000 0.63970  0.39930  0.72650  Biso   1.000  C
  C69      1.0000 0.89930  0.86030  0.77350  Biso   1.000  C
  C70      1.0000 0.10070  0.13970  0.77350  Biso   1.000  C
  C71      1.0000 0.86030  0.10070  0.22650  Biso   1.000  C
  C72      1.0000 0.13970  0.89930  0.22650  Biso   1.000  C
  H81      1.0000 0.38450  0.40880  0.29820  Biso   1.000  H
  H82      1.0000 0.61550  0.59120  0.29820  Biso   1.000  H
  H83      1.0000 0.40880  0.61550  0.70180  Biso   1.000  H
  H84      1.0000 0.59120  0.38450  0.70180  Biso   1.000  H
  H85      1.0000 0.88450  0.90880  0.79820  Biso   1.000  H
  H86      1.0000 0.11550  0.09120  0.79820  Biso   1.000  H
  H87      1.0000 0.90880  0.11550  0.20180  Biso   1.000  H
  H88      1.0000 0.09120  0.88450  0.20180  Biso   1.000  H
  C73      1.0000 0.35490  0.31660  0.18980  Biso   1.000  C
  C74      1.0000 0.64510  0.68340  0.18980  Biso   1.000  C
  C75      1.0000 0.31660  0.64510  0.81020  Biso   1.000  C
  C76      1.0000 0.68340  0.35490  0.81020  Biso   1.000  C
  C77      1.0000 0.85490  0.81660  0.68980  Biso   1.000  C
  C78      1.0000 0.14510  0.18340  0.68980  Biso   1.000  C
  C79      1.0000 0.81660  0.14510  0.31020  Biso   1.000  C
  C80      1.0000 0.18340  0.85490  0.31020  Biso   1.000  C
  H89      1.0000 0.31000  0.33510  0.15150  Biso   1.000  H
  H90      1.0000 0.69000  0.66490  0.15150  Biso   1.000  H
  H91      1.0000 0.33510  0.69000  0.84850  Biso   1.000  H
  H92      1.0000 0.66490  0.31000  0.84850  Biso   1.000  H
  H93      1.0000 0.81000  0.83510  0.65150  Biso   1.000  H
  H94      1.0000 0.19000  0.16490  0.65150  Biso   1.000  H
  H95      1.0000 0.83510  0.19000  0.34850  Biso   1.000  H
  H96      1.0000 0.16490  0.81000  0.34850  Biso   1.000  H
  B1       1.0000 0.50000  0.50000  0.50000  Biso   1.000  B
  B2       1.0000 0.00000  0.00000  0.00000  Biso   1.000  B
  F1       1.0000 0.52040  0.55720  0.59300  Biso   1.000  F
  F2       1.0000 0.47960  0.44280  0.59300  Biso   1.000  F
  F3       1.0000 0.55720  0.47960  0.40700  Biso   1.000  F
  F4       1.0000 0.44280  0.52040  0.40700  Biso   1.000  F
  F5       1.0000 0.02040  0.05720  0.09300  Biso   1.000  F
  F6       1.0000 0.97960  0.94280  0.09300  Biso   1.000  F
  F7       1.0000 0.05720  0.97960  0.90700  Biso   1.000  F
  F8       1.0000 0.94280  0.02040  0.90700  Biso   1.000  F
  B3       1.0000 0.00000  0.00000  0.50000  Biso   1.000  B
  B4       1.0000 0.50000  0.50000  0.00000  Biso   1.000  B
  F9       1.0000 0.03260  0.94670  0.58900  Biso   1.000  F
  F10      1.0000 0.96740  0.05330  0.58900  Biso   1.000  F
  F11      1.0000 0.94670  0.96740  0.41100  Biso   1.000  F
  F12      1.0000 0.05330  0.03260  0.41100  Biso   1.000  F
  F13      1.0000 0.53260  0.44670  0.08900  Biso   1.000  F
  F14      1.0000 0.46740  0.55330  0.08900  Biso   1.000  F
  F15      1.0000 0.44670  0.46740  0.91100  Biso   1.000  F
  F16      1.0000 0.55330  0.53260  0.91100  Biso   1.000  F
