data_image0
_cell_length_a       3.8738
_cell_length_b       30.379
_cell_length_c       6.3055
_cell_angle_alpha    90
_cell_angle_beta     93.001
_cell_angle_gamma    90

_symmetry_space_group_name_H-M    "P 1"
_symmetry_int_tables_number       1

loop_
  _symmetry_equiv_pos_as_xyz
  'x, y, z'

loop_
  _atom_site_label
  _atom_site_occupancy
  _atom_site_fract_x
  _atom_site_fract_y
  _atom_site_fract_z
  _atom_site_thermal_displace_type
  _atom_site_B_iso_or_equiv
  _atom_site_type_symbol
  Br1      1.0000 0.99845  0.21920  0.89766  Biso   1.000  Br
  Br2      1.0000 0.50155  0.71920  0.60234  Biso   1.000  Br
  Br3      1.0000 0.00155  0.78080  0.10234  Biso   1.000  Br
  Br4      1.0000 0.49845  0.28080  0.39766  Biso   1.000  Br
  C1       1.0000 0.68050  0.12646  0.19500  Biso   1.000  C
  C2       1.0000 0.81950  0.62646  0.30500  Biso   1.000  C
  C3       1.0000 0.31950  0.87354  0.80500  Biso   1.000  C
  C4       1.0000 0.18050  0.37354  0.69500  Biso   1.000  C
  H1       1.0000 0.76490  0.13030  0.06080  Biso   1.000  H
  H2       1.0000 0.73510  0.63030  0.43920  Biso   1.000  H
  H3       1.0000 0.23510  0.86970  0.93920  Biso   1.000  H
  H4       1.0000 0.26490  0.36970  0.56080  Biso   1.000  H
  Cu1      1.0000 0.51855  0.22119  0.14298  Biso   1.000  Cu
  Cu2      1.0000 0.98145  0.72119  0.35702  Biso   1.000  Cu
  Cu3      1.0000 0.48145  0.77881  0.85702  Biso   1.000  Cu
  Cu4      1.0000 0.01855  0.27881  0.64298  Biso   1.000  Cu
  N1       1.0000 0.56380  0.16183  0.29600  Biso   1.000  N
  N2       1.0000 0.93620  0.66183  0.20400  Biso   1.000  N
  N3       1.0000 0.43620  0.83817  0.70400  Biso   1.000  N
  N4       1.0000 0.06380  0.33817  0.79600  Biso   1.000  N
  O1       1.0000 0.79600  0.00908  0.23370  Biso   1.000  O
  O2       1.0000 0.70400  0.50908  0.26630  Biso   1.000  O
  O3       1.0000 0.20400  0.99092  0.76630  Biso   1.000  O
  O4       1.0000 0.29600  0.49092  0.73370  Biso   1.000  O
  C5       1.0000 0.68180  0.08460  0.27970  Biso   1.000  C
  C6       1.0000 0.81820  0.58460  0.22030  Biso   1.000  C
  C7       1.0000 0.31820  0.91540  0.72030  Biso   1.000  C
  C8       1.0000 0.18180  0.41540  0.77970  Biso   1.000  C
  O5       1.0000 0.94270  0.05548  0.98180  Biso   1.000  O
  O6       1.0000 0.55730  0.55548  0.51820  Biso   1.000  O
  O7       1.0000 0.05730  0.94452  0.01820  Biso   1.000  O
  O8       1.0000 0.44270  0.44452  0.48180  Biso   1.000  O
  H5       1.0000 0.01200  0.03250  0.93030  Biso   1.000  H
  H6       1.0000 0.48800  0.53250  0.56970  Biso   1.000  H
  H7       1.0000 0.98800  0.96750  0.06970  Biso   1.000  H
  H8       1.0000 0.51200  0.46750  0.43030  Biso   1.000  H
  C9       1.0000 0.55510  0.07851  0.48060  Biso   1.000  C
  C10      1.0000 0.94490  0.57851  0.01940  Biso   1.000  C
  C11      1.0000 0.44490  0.92149  0.51940  Biso   1.000  C
  C12      1.0000 0.05510  0.42149  0.98060  Biso   1.000  C
  H9       1.0000 0.55110  0.05070  0.54180  Biso   1.000  H
  H10      1.0000 0.94890  0.55070  0.95820  Biso   1.000  H
  H11      1.0000 0.44890  0.94930  0.45820  Biso   1.000  H
  H12      1.0000 0.05110  0.44930  0.04180  Biso   1.000  H
  C13      1.0000 0.43590  0.11470  0.58640  Biso   1.000  C
  C14      1.0000 0.06410  0.61470  0.91360  Biso   1.000  C
  C15      1.0000 0.56410  0.88530  0.41360  Biso   1.000  C
  C16      1.0000 0.93590  0.38530  0.08640  Biso   1.000  C
  H13      1.0000 0.34960  0.11170  0.72050  Biso   1.000  H
  H14      1.0000 0.15040  0.61170  0.77950  Biso   1.000  H
  H15      1.0000 0.65040  0.88830  0.27950  Biso   1.000  H
  H16      1.0000 0.84960  0.38830  0.22050  Biso   1.000  H
  C17      1.0000 0.44660  0.15557  0.49040  Biso   1.000  C
  C18      1.0000 0.05340  0.65557  0.00960  Biso   1.000  C
  C19      1.0000 0.55340  0.84443  0.50960  Biso   1.000  C
  C20      1.0000 0.94660  0.34443  0.99040  Biso   1.000  C
  H17      1.0000 0.36890  0.17990  0.56400  Biso   1.000  H
  H18      1.0000 0.13110  0.67990  0.93600  Biso   1.000  H
  H19      1.0000 0.63110  0.82010  0.43600  Biso   1.000  H
  H20      1.0000 0.86890  0.32010  0.06400  Biso   1.000  H
  C21      1.0000 0.81580  0.04736  0.15780  Biso   1.000  C
  C22      1.0000 0.68420  0.54736  0.34220  Biso   1.000  C
  C23      1.0000 0.18420  0.95264  0.84220  Biso   1.000  C
  C24      1.0000 0.31580  0.45264  0.65780  Biso   1.000  C
