data_image0
_cell_length_a       6.802
_cell_length_b       8.047
_cell_length_c       8.065
_cell_angle_alpha    110.214
_cell_angle_beta     99.134
_cell_angle_gamma    108.733

_symmetry_space_group_name_H-M    "P 1"
_symmetry_int_tables_number       1

loop_
  _symmetry_equiv_pos_as_xyz
  'x, y, z'

loop_
  _atom_site_label
  _atom_site_occupancy
  _atom_site_fract_x
  _atom_site_fract_y
  _atom_site_fract_z
  _atom_site_thermal_displace_type
  _atom_site_B_iso_or_equiv
  _atom_site_type_symbol
  Fe1      1.0000 0.00000  0.00000  0.00000  Biso   1.000  Fe
  Cu1      1.0000 0.48467  0.84812  0.36978  Biso   1.000  Cu
  Cu2      1.0000 0.51533  0.15188  0.63022  Biso   1.000  Cu
  N1       1.0000 0.17800  0.62860  0.28820  Biso   1.000  N
  N2       1.0000 0.82200  0.37140  0.71180  Biso   1.000  N
  C1       1.0000 0.64200  0.90870  0.62960  Biso   1.000  C
  C2       1.0000 0.35800  0.09130  0.37040  Biso   1.000  C
  C3       1.0000 0.64840  0.84510  0.19160  Biso   1.000  C
  C4       1.0000 0.35160  0.15490  0.80840  Biso   1.000  C
  N3       1.0000 0.97730  0.28700  0.13920  Biso   1.000  N
  N4       1.0000 0.02270  0.71300  0.86080  Biso   1.000  N
  N5       1.0000 0.74620  0.92120  0.75050  Biso   1.000  N
  N6       1.0000 0.25380  0.07880  0.24950  Biso   1.000  N
  N7       1.0000 0.75960  0.87340  0.10960  Biso   1.000  N
  N8       1.0000 0.24040  0.12660  0.89040  Biso   1.000  N
  C5       1.0000 0.15340  0.44680  0.19080  Biso   1.000  C
  C6       1.0000 0.84660  0.55320  0.80920  Biso   1.000  C
  H1       1.0000 0.27260  0.43150  0.15580  Biso   1.000  H
  H2       1.0000 0.72740  0.56850  0.84420  Biso   1.000  H
  C7       1.0000 0.80540  0.30980  0.18570  Biso   1.000  C
  C8       1.0000 0.19460  0.69020  0.81430  Biso   1.000  C
  H3       1.0000 0.67730  0.20100  0.15010  Biso   1.000  H
  H4       1.0000 0.32270  0.79900  0.84990  Biso   1.000  H
  C9       1.0000 0.81270  0.49050  0.28520  Biso   1.000  C
  C10      1.0000 0.18730  0.50950  0.71480  Biso   1.000  C
  H5       1.0000 0.69240  0.50580  0.31810  Biso   1.000  H
  H6       1.0000 0.30760  0.49420  0.68190  Biso   1.000  H
  C11      1.0000 0.00440  0.64710  0.33400  Biso   1.000  C
  C12      1.0000 0.99560  0.35290  0.66600  Biso   1.000  C
  H7       1.0000 0.01320  0.77060  0.40150  Biso   1.000  H
  H8       1.0000 0.98680  0.22940  0.59850  Biso   1.000  H
