data_image0
_cell_length_a       6.71
_cell_length_b       8.15
_cell_length_c       7.98
_cell_angle_alpha    110.6
_cell_angle_beta     108.1
_cell_angle_gamma    99.2

_symmetry_space_group_name_H-M    "P 1"
_symmetry_int_tables_number       1

loop_
  _symmetry_equiv_pos_as_xyz
  'x, y, z'

loop_
  _atom_site_label
  _atom_site_occupancy
  _atom_site_fract_x
  _atom_site_fract_y
  _atom_site_fract_z
  _atom_site_thermal_displace_type
  _atom_site_B_iso_or_equiv
  _atom_site_type_symbol
  Fe1      1.0000 0.00000  0.00000  0.00000  Biso   1.000  Fe
  Cu1      1.0000 0.51830  0.63010  0.15270  Biso   1.000  Cu
  Cu2      1.0000 0.48170  0.36990  0.84730  Biso   1.000  Cu
  N1       1.0000 0.24370  0.89430  0.13050  Biso   1.000  N
  N2       1.0000 0.75630  0.10570  0.86950  Biso   1.000  N
  C1       1.0000 0.35720  0.81070  0.15660  Biso   1.000  C
  C2       1.0000 0.64280  0.18930  0.84340  Biso   1.000  C
  N3       1.0000 0.25150  0.24950  0.08190  Biso   1.000  N
  N4       1.0000 0.74850  0.75050  0.91810  Biso   1.000  N
  C3       1.0000 0.35750  0.37400  0.09020  Biso   1.000  C
  C4       1.0000 0.64250  0.62600  0.90980  Biso   1.000  C
  N5       1.0000 0.02720  0.86150  0.71150  Biso   1.000  N
  N6       1.0000 0.97280  0.13850  0.28850  Biso   1.000  N
  C5       1.0000 0.20280  0.81170  0.69410  Biso   1.000  C
  C6       1.0000 0.79720  0.18830  0.30590  Biso   1.000  C
  H1       1.0000 0.33320  0.84740  0.80630  Biso   1.000  H
  H2       1.0000 0.66680  0.15260  0.19370  Biso   1.000  H
  C7       1.0000 0.19160  0.70600  0.50900  Biso   1.000  C
  C8       1.0000 0.80840  0.29400  0.49100  Biso   1.000  C
  H3       1.0000 0.31390  0.66900  0.49250  Biso   1.000  H
  H4       1.0000 0.68610  0.33100  0.50750  Biso   1.000  H
  N7       1.0000 0.82590  0.71320  0.37120  Biso   1.000  N
  N8       1.0000 0.17410  0.28680  0.62880  Biso   1.000  N
  C9       1.0000 0.00070  0.65840  0.35150  Biso   1.000  C
  C10      1.0000 0.99930  0.34160  0.64850  Biso   1.000  C
  H5       1.0000 0.99040  0.58460  0.22510  Biso   1.000  H
  H6       1.0000 0.00960  0.41540  0.77490  Biso   1.000  H
  C11      1.0000 0.85230  0.81200  0.55380  Biso   1.000  C
  C12      1.0000 0.14770  0.18800  0.44620  Biso   1.000  C
  H7       1.0000 0.73110  0.85110  0.57100  Biso   1.000  H
  H8       1.0000 0.26890  0.14890  0.42900  Biso   1.000  H
