data_image0
_cell_length_a       6.8434
_cell_length_b       7.7006
_cell_length_c       7.7696
_cell_angle_alpha    109.077
_cell_angle_beta     108.194
_cell_angle_gamma    99.021

_symmetry_space_group_name_H-M    "P 1"
_symmetry_int_tables_number       1

loop_
  _symmetry_equiv_pos_as_xyz
  'x, y, z'

loop_
  _atom_site_label
  _atom_site_occupancy
  _atom_site_fract_x
  _atom_site_fract_y
  _atom_site_fract_z
  _atom_site_thermal_displace_type
  _atom_site_B_iso_or_equiv
  _atom_site_type_symbol
  Fe1      1.0000 0.00000  0.00000  0.00000  Biso   1.000  Fe
  N1       1.0000 0.21260  0.88160  0.10880  Biso   1.000  N
  N2       1.0000 0.78740  0.11840  0.89120  Biso   1.000  N
  C1       1.0000 0.33530  0.80150  0.15170  Biso   1.000  C
  C2       1.0000 0.66470  0.19850  0.84830  Biso   1.000  C
  Cu1      1.0000 0.50912  0.62546  0.15683  Biso   1.000  Cu
  Cu2      1.0000 0.49088  0.37454  0.84317  Biso   1.000  Cu
  N3       1.0000 0.22940  0.22070  0.05470  Biso   1.000  N
  N4       1.0000 0.77060  0.77930  0.94530  Biso   1.000  N
  C3       1.0000 0.35130  0.35430  0.07770  Biso   1.000  C
  C4       1.0000 0.64870  0.64570  0.92230  Biso   1.000  C
  N5       1.0000 0.00830  0.86670  0.73010  Biso   1.000  N
  N6       1.0000 0.99170  0.13330  0.26990  Biso   1.000  N
  C5       1.0000 0.18800  0.83650  0.70590  Biso   1.000  C
  C6       1.0000 0.81200  0.16350  0.29410  Biso   1.000  C
  H1       1.0000 0.32090  0.88420  0.81670  Biso   1.000  H
  H2       1.0000 0.67910  0.11580  0.18330  Biso   1.000  H
  C7       1.0000 0.17770  0.73490  0.51730  Biso   1.000  C
  C8       1.0000 0.82230  0.26510  0.48270  Biso   1.000  C
  H3       1.0000 0.30280  0.70960  0.49870  Biso   1.000  H
  H4       1.0000 0.69720  0.29040  0.50130  Biso   1.000  H
  N7       1.0000 0.80610  0.70750  0.38340  Biso   1.000  N
  N8       1.0000 0.19390  0.29250  0.61660  Biso   1.000  N
  C9       1.0000 0.98560  0.67130  0.35820  Biso   1.000  C
  C10      1.0000 0.01440  0.32870  0.64180  Biso   1.000  C
  H5       1.0000 0.97810  0.60130  0.22930  Biso   1.000  H
  H6       1.0000 0.02190  0.39870  0.77070  Biso   1.000  H
  C11      1.0000 0.82590  0.80300  0.56940  Biso   1.000  C
  C12      1.0000 0.17410  0.19700  0.43060  Biso   1.000  C
  H7       1.0000 0.70080  0.82740  0.58860  Biso   1.000  H
  H8       1.0000 0.29920  0.17260  0.41140  Biso   1.000  H
