data_image0
_cell_length_a       6.7584
_cell_length_b       8.0796
_cell_length_c       7.9862
_cell_angle_alpha    110.102
_cell_angle_beta     108.5
_cell_angle_gamma    99.272

_symmetry_space_group_name_H-M    "P 1"
_symmetry_int_tables_number       1

loop_
  _symmetry_equiv_pos_as_xyz
  'x, y, z'

loop_
  _atom_site_label
  _atom_site_occupancy
  _atom_site_fract_x
  _atom_site_fract_y
  _atom_site_fract_z
  _atom_site_thermal_displace_type
  _atom_site_B_iso_or_equiv
  _atom_site_type_symbol
  Fe1      1.0000 0.00000  0.00000  0.00000  Biso   1.000  Fe
  Cu1      1.0000 0.51621  0.62957  0.15219  Biso   1.000  Cu
  Cu2      1.0000 0.48379  0.37043  0.84781  Biso   1.000  Cu
  N1       1.0000 0.24140  0.89210  0.12780  Biso   1.000  N
  N2       1.0000 0.75860  0.10790  0.87220  Biso   1.000  N
  C1       1.0000 0.35440  0.80680  0.15570  Biso   1.000  C
  C2       1.0000 0.64560  0.19320  0.84430  Biso   1.000  C
  N3       1.0000 0.25040  0.24580  0.07860  Biso   1.000  N
  N4       1.0000 0.74960  0.75420  0.92140  Biso   1.000  N
  C3       1.0000 0.35880  0.37360  0.08950  Biso   1.000  C
  C4       1.0000 0.64120  0.62640  0.91050  Biso   1.000  C
  N5       1.0000 0.02570  0.86210  0.71280  Biso   1.000  N
  N6       1.0000 0.97430  0.13790  0.28720  Biso   1.000  N
  C5       1.0000 0.19920  0.81200  0.69090  Biso   1.000  C
  C6       1.0000 0.80080  0.18800  0.30910  Biso   1.000  C
  H1       1.0000 0.33000  0.84690  0.80250  Biso   1.000  H
  H2       1.0000 0.67000  0.15310  0.19750  Biso   1.000  H
  C7       1.0000 0.19000  0.71050  0.50840  Biso   1.000  C
  C8       1.0000 0.81000  0.28950  0.49160  Biso   1.000  C
  H3       1.0000 0.31300  0.67600  0.49240  Biso   1.000  H
  H4       1.0000 0.68700  0.32400  0.50760  Biso   1.000  H
  N7       1.0000 0.82390  0.71200  0.37060  Biso   1.000  N
  N8       1.0000 0.17610  0.28800  0.62940  Biso   1.000  N
  C9       1.0000 0.99710  0.66080  0.35030  Biso   1.000  C
  C10      1.0000 0.00290  0.33920  0.64970  Biso   1.000  C
  H5       1.0000 0.98630  0.58840  0.22370  Biso   1.000  H
  H6       1.0000 0.01370  0.41160  0.77630  Biso   1.000  H
  C11      1.0000 0.84840  0.81100  0.55120  Biso   1.000  C
  C12      1.0000 0.15160  0.18900  0.44880  Biso   1.000  C
  H7       1.0000 0.72700  0.84920  0.56650  Biso   1.000  H
  H8       1.0000 0.27300  0.15080  0.43350  Biso   1.000  H
