data_image0
_cell_length_a       9.4926
_cell_length_b       11.3728
_cell_length_c       12.345
_cell_angle_alpha    99.253
_cell_angle_beta     100.231
_cell_angle_gamma    114.064

_symmetry_space_group_name_H-M    "P 1"
_symmetry_int_tables_number       1

loop_
  _symmetry_equiv_pos_as_xyz
  'x, y, z'

loop_
  _atom_site_label
  _atom_site_occupancy
  _atom_site_fract_x
  _atom_site_fract_y
  _atom_site_fract_z
  _atom_site_thermal_displace_type
  _atom_site_B_iso_or_equiv
  _atom_site_type_symbol
  Dy1      1.0000 0.30951  0.46625  0.09588  Biso   1.000  Dy
  Dy2      1.0000 0.69049  0.53375  0.90412  Biso   1.000  Dy
  Cu1      1.0000 0.25721  0.97710  0.59660  Biso   1.000  Cu
  Cu2      1.0000 0.74279  0.02290  0.40340  Biso   1.000  Cu
  S1       1.0000 0.30871  0.23428  0.85350  Biso   1.000  S
  S2       1.0000 0.69129  0.76572  0.14650  Biso   1.000  S
  S3       1.0000 0.21751  0.71247  0.27281  Biso   1.000  S
  S4       1.0000 0.78249  0.28753  0.72719  Biso   1.000  S
  O1       1.0000 0.18330  0.28100  0.16869  Biso   1.000  O
  O2       1.0000 0.81670  0.71900  0.83131  Biso   1.000  O
  O3       1.0000 0.37700  0.45400  0.30004  Biso   1.000  O
  O4       1.0000 0.62300  0.54600  0.69996  Biso   1.000  O
  O5       1.0000 0.22130  0.60330  0.19249  Biso   1.000  O
  O6       1.0000 0.77870  0.39670  0.80751  Biso   1.000  O
  O7       1.0000 0.24060  0.29630  0.92782  Biso   1.000  O
  O8       1.0000 0.75940  0.70370  0.07218  Biso   1.000  O
  O9       1.0000 0.12720  0.77030  0.21301  Biso   1.000  O
  O10      1.0000 0.87280  0.22970  0.78699  Biso   1.000  O
  O11      1.0000 0.37330  0.80860  0.34340  Biso   1.000  O
  O12      1.0000 0.62670  0.19140  0.65660  Biso   1.000  O
  O13      1.0000 0.51980  0.40900  0.11025  Biso   1.000  O
  O14      1.0000 0.48020  0.59100  0.88975  Biso   1.000  O
  O15      1.0000 0.45560  0.33200  0.83683  Biso   1.000  O
  O16      1.0000 0.54440  0.66800  0.16317  Biso   1.000  O
  O17      1.0000 0.19390  0.14870  0.74726  Biso   1.000  O
  O18      1.0000 0.80610  0.85130  0.25274  Biso   1.000  O
  N1       1.0000 0.24610  0.08600  0.49870  Biso   1.000  N
  N2       1.0000 0.75390  0.91400  0.50130  Biso   1.000  N
  N3       1.0000 0.72200  0.14340  0.32130  Biso   1.000  N
  N4       1.0000 0.27800  0.85660  0.67870  Biso   1.000  N
  C1       1.0000 0.86300  0.55720  0.42220  Biso   1.000  C
  C2       1.0000 0.13700  0.44280  0.57780  Biso   1.000  C
  H1       1.0000 0.76130  0.55130  0.41740  Biso   1.000  H
  H2       1.0000 0.23870  0.44870  0.58260  Biso   1.000  H
  C3       1.0000 0.95270  0.62560  0.35680  Biso   1.000  C
  C4       1.0000 0.04730  0.37440  0.64320  Biso   1.000  C
  H3       1.0000 0.91310  0.66710  0.30920  Biso   1.000  H
  H4       1.0000 0.08690  0.33290  0.69080  Biso   1.000  H
  C5       1.0000 0.10500  0.63210  0.36280  Biso   1.000  C
  C6       1.0000 0.89500  0.36790  0.63720  Biso   1.000  C
  C7       1.0000 0.16700  0.57430  0.43450  Biso   1.000  C
  C8       1.0000 0.83300  0.42570  0.56550  Biso   1.000  C
  H5       1.0000 0.26880  0.58110  0.43790  Biso   1.000  H
  H6       1.0000 0.73120  0.41890  0.56210  Biso   1.000  H
  C9       1.0000 0.92240  0.49540  0.49670  Biso   1.000  C
  C10      1.0000 0.07760  0.50460  0.50330  Biso   1.000  C
  C11      1.0000 0.56270  0.24190  0.24330  Biso   1.000  C
  C12      1.0000 0.43730  0.75810  0.75670  Biso   1.000  C
  H7       1.0000 0.46930  0.25190  0.23640  Biso   1.000  H
  H8       1.0000 0.53070  0.74810  0.76360  Biso   1.000  H
  C13      1.0000 0.59090  0.16310  0.30890  Biso   1.000  C
  C14      1.0000 0.40910  0.83690  0.69110  Biso   1.000  C
  H9       1.0000 0.51540  0.12140  0.34640  Biso   1.000  H
  H10      1.0000 0.48460  0.87860  0.65360  Biso   1.000  H
  C15      1.0000 0.82940  0.20700  0.26770  Biso   1.000  C
  C16      1.0000 0.17060  0.79300  0.73230  Biso   1.000  C
  H11      1.0000 0.92190  0.19550  0.27570  Biso   1.000  H
  H12      1.0000 0.07810  0.80450  0.72430  Biso   1.000  H
  C17      1.0000 0.80970  0.28850  0.20130  Biso   1.000  C
  C18      1.0000 0.19030  0.71150  0.79870  Biso   1.000  C
  H13      1.0000 0.88800  0.33120  0.16610  Biso   1.000  H
  H14      1.0000 0.11200  0.66880  0.83390  Biso   1.000  H
  C19      1.0000 0.50100  0.11960  0.91360  Biso   1.000  C
  C20      1.0000 0.49900  0.88040  0.08640  Biso   1.000  C
  H15      1.0000 0.56130  0.16670  0.86950  Biso   1.000  H
  H16      1.0000 0.43870  0.83330  0.13050  Biso   1.000  H
  C21      1.0000 0.54890  0.03700  0.96780  Biso   1.000  C
  C22      1.0000 0.45110  0.96300  0.03220  Biso   1.000  C
  C23      1.0000 0.68890  0.02370  0.96010  Biso   1.000  C
  C24      1.0000 0.31110  0.97630  0.03990  Biso   1.000  C
  H17      1.0000 0.75330  0.07200  0.91870  Biso   1.000  H
  H18      1.0000 0.24670  0.92800  0.08130  Biso   1.000  H
  C25      1.0000 0.26880  0.05850  0.98780  Biso   1.000  C
  C26      1.0000 0.73120  0.94150  0.01220  Biso   1.000  C
  H19      1.0000 0.17650  0.06640  0.99370  Biso   1.000  H
  H20      1.0000 0.82350  0.93360  0.00630  Biso   1.000  H
  C27      1.0000 0.36630  0.13120  0.92530  Biso   1.000  C
  C28      1.0000 0.63370  0.86880  0.07470  Biso   1.000  C
  C29      1.0000 0.34040  0.21840  0.53450  Biso   1.000  C
  C30      1.0000 0.65960  0.78160  0.46550  Biso   1.000  C
  H21      1.0000 0.40030  0.25540  0.61030  Biso   1.000  H
  H22      1.0000 0.59970  0.74460  0.38970  Biso   1.000  H
  C31      1.0000 0.35130  0.30080  0.46320  Biso   1.000  C
  C32      1.0000 0.64870  0.69920  0.53680  Biso   1.000  C
  H23      1.0000 0.41950  0.39160  0.49030  Biso   1.000  H
  H24      1.0000 0.58050  0.60840  0.50970  Biso   1.000  H
  C33      1.0000 0.26020  0.24790  0.35060  Biso   1.000  C
  C34      1.0000 0.73980  0.75210  0.64940  Biso   1.000  C
  C35      1.0000 0.16070  0.11210  0.31430  Biso   1.000  C
  C36      1.0000 0.83930  0.88790  0.68570  Biso   1.000  C
  H25      1.0000 0.09630  0.07340  0.23970  Biso   1.000  H
  H26      1.0000 0.90370  0.92660  0.76030  Biso   1.000  H
  C37      1.0000 0.15810  0.03490  0.39020  Biso   1.000  C
  C38      1.0000 0.84190  0.96510  0.60980  Biso   1.000  C
  H27      1.0000 0.09250  0.94350  0.36480  Biso   1.000  H
  H28      1.0000 0.90750  0.05650  0.63520  Biso   1.000  H
  C39      1.0000 0.67360  0.30640  0.18760  Biso   1.000  C
  C40      1.0000 0.32640  0.69360  0.81240  Biso   1.000  C
  C41      1.0000 0.63890  0.38770  0.11010  Biso   1.000  C
  C42      1.0000 0.36110  0.61230  0.88990  Biso   1.000  C
  C43      1.0000 0.27390  0.33430  0.26890  Biso   1.000  C
  C44      1.0000 0.72610  0.66570  0.73110  Biso   1.000  C
  O19      1.0000 0.73160  0.42650  0.04792  Biso   1.000  O
  O20      1.0000 0.26840  0.57350  0.95208  Biso   1.000  O
  O21      1.0000 0.02560  0.37480  0.00933  Biso   1.000  O
  O22      1.0000 0.97440  0.62520  0.99067  Biso   1.000  O
  H29      1.0000 0.98220  0.32700  0.94420  Biso   1.000  H
  H30      1.0000 0.01780  0.67300  0.05580  Biso   1.000  H
  H31      1.0000 0.96130  0.39950  0.02580  Biso   1.000  H
  H32      1.0000 0.03870  0.60050  0.97420  Biso   1.000  H
