data_image0
_cell_length_a       9.4878
_cell_length_b       11.3999
_cell_length_c       12.373
_cell_angle_alpha    99.388
_cell_angle_beta     100.155
_cell_angle_gamma    113.963

_symmetry_space_group_name_H-M    "P 1"
_symmetry_int_tables_number       1

loop_
  _symmetry_equiv_pos_as_xyz
  'x, y, z'

loop_
  _atom_site_label
  _atom_site_occupancy
  _atom_site_fract_x
  _atom_site_fract_y
  _atom_site_fract_z
  _atom_site_thermal_displace_type
  _atom_site_B_iso_or_equiv
  _atom_site_type_symbol
  Gd1      1.0000 0.30961  0.46613  0.09626  Biso   1.000  Gd
  Gd2      1.0000 0.69039  0.53387  0.90374  Biso   1.000  Gd
  Cu1      1.0000 0.26009  0.97697  0.59624  Biso   1.000  Cu
  Cu2      1.0000 0.73991  0.02303  0.40376  Biso   1.000  Cu
  S1       1.0000 0.30722  0.23196  0.85277  Biso   1.000  S
  S2       1.0000 0.69278  0.76804  0.14723  Biso   1.000  S
  S3       1.0000 0.21629  0.71354  0.27385  Biso   1.000  S
  S4       1.0000 0.78371  0.28646  0.72615  Biso   1.000  S
  O1       1.0000 0.18250  0.27960  0.17060  Biso   1.000  O
  O2       1.0000 0.81750  0.72040  0.82940  Biso   1.000  O
  O3       1.0000 0.37730  0.45290  0.30130  Biso   1.000  O
  O4       1.0000 0.62270  0.54710  0.69870  Biso   1.000  O
  O5       1.0000 0.22170  0.60500  0.19430  Biso   1.000  O
  O6       1.0000 0.77830  0.39500  0.80570  Biso   1.000  O
  O7       1.0000 0.23940  0.29460  0.92724  Biso   1.000  O
  O8       1.0000 0.76060  0.70540  0.07276  Biso   1.000  O
  O9       1.0000 0.12480  0.76970  0.21343  Biso   1.000  O
  O10      1.0000 0.87520  0.23030  0.78657  Biso   1.000  O
  O11      1.0000 0.37120  0.80980  0.34450  Biso   1.000  O
  O12      1.0000 0.62880  0.19020  0.65550  Biso   1.000  O
  O13      1.0000 0.52370  0.40970  0.10883  Biso   1.000  O
  O14      1.0000 0.47630  0.59030  0.89117  Biso   1.000  O
  O15      1.0000 0.45400  0.32970  0.83610  Biso   1.000  O
  O16      1.0000 0.54600  0.67030  0.16390  Biso   1.000  O
  O17      1.0000 0.19240  0.14670  0.74721  Biso   1.000  O
  O18      1.0000 0.80760  0.85330  0.25279  Biso   1.000  O
  N1       1.0000 0.24840  0.08600  0.49940  Biso   1.000  N
  N2       1.0000 0.75160  0.91400  0.50060  Biso   1.000  N
  N3       1.0000 0.71990  0.14300  0.32210  Biso   1.000  N
  N4       1.0000 0.28010  0.85700  0.67790  Biso   1.000  N
  C1       1.0000 0.86290  0.55720  0.42340  Biso   1.000  C
  C2       1.0000 0.13710  0.44280  0.57660  Biso   1.000  C
  H1       1.0000 0.76100  0.55080  0.41880  Biso   1.000  H
  H2       1.0000 0.23900  0.44920  0.58120  Biso   1.000  H
  C3       1.0000 0.95190  0.62610  0.35850  Biso   1.000  C
  C4       1.0000 0.04810  0.37390  0.64150  Biso   1.000  C
  H3       1.0000 0.91200  0.66780  0.31160  Biso   1.000  H
  H4       1.0000 0.08800  0.33220  0.68840  Biso   1.000  H
  C5       1.0000 0.10400  0.63260  0.36410  Biso   1.000  C
  C6       1.0000 0.89600  0.36740  0.63590  Biso   1.000  C
  C7       1.0000 0.16620  0.57440  0.43370  Biso   1.000  C
  C8       1.0000 0.83380  0.42560  0.56630  Biso   1.000  C
  H5       1.0000 0.26760  0.58080  0.43610  Biso   1.000  H
  H6       1.0000 0.73240  0.41920  0.56390  Biso   1.000  H
  C9       1.0000 0.92290  0.49580  0.49730  Biso   1.000  C
  C10      1.0000 0.07710  0.50420  0.50270  Biso   1.000  C
  C11      1.0000 0.56480  0.24330  0.24290  Biso   1.000  C
  C12      1.0000 0.43520  0.75670  0.75710  Biso   1.000  C
  H7       1.0000 0.47200  0.25440  0.23600  Biso   1.000  H
  H8       1.0000 0.52800  0.74560  0.76400  Biso   1.000  H
  C13      1.0000 0.59010  0.16360  0.30850  Biso   1.000  C
  C14      1.0000 0.40990  0.83640  0.69150  Biso   1.000  C
  H9       1.0000 0.51320  0.12220  0.34510  Biso   1.000  H
  H10      1.0000 0.48680  0.87780  0.65490  Biso   1.000  H
  C15      1.0000 0.82810  0.20610  0.26920  Biso   1.000  C
  C16      1.0000 0.17190  0.79390  0.73080  Biso   1.000  C
  H11      1.0000 0.92070  0.19460  0.27820  Biso   1.000  H
  H12      1.0000 0.07930  0.80540  0.72180  Biso   1.000  H
  C17      1.0000 0.81010  0.28680  0.20240  Biso   1.000  C
  C18      1.0000 0.18990  0.71320  0.79760  Biso   1.000  C
  H13      1.0000 0.88890  0.32800  0.16720  Biso   1.000  H
  H14      1.0000 0.11110  0.67200  0.83280  Biso   1.000  H
  C19      1.0000 0.50100  0.11940  0.91370  Biso   1.000  C
  C20      1.0000 0.49900  0.88060  0.08630  Biso   1.000  C
  H15      1.0000 0.56230  0.16740  0.87080  Biso   1.000  H
  H16      1.0000 0.43770  0.83260  0.12920  Biso   1.000  H
  C21      1.0000 0.54830  0.03580  0.96740  Biso   1.000  C
  C22      1.0000 0.45170  0.96420  0.03260  Biso   1.000  C
  C23      1.0000 0.68830  0.02370  0.96000  Biso   1.000  C
  C24      1.0000 0.31170  0.97630  0.04000  Biso   1.000  C
  H17      1.0000 0.75270  0.07210  0.91880  Biso   1.000  H
  H18      1.0000 0.24730  0.92790  0.08120  Biso   1.000  H
  C25      1.0000 0.26910  0.05790  0.98770  Biso   1.000  C
  C26      1.0000 0.73090  0.94210  0.01230  Biso   1.000  C
  H19      1.0000 0.17680  0.06570  0.99380  Biso   1.000  H
  H20      1.0000 0.82320  0.93430  0.00620  Biso   1.000  H
  C27      1.0000 0.36510  0.13010  0.92470  Biso   1.000  C
  C28      1.0000 0.63490  0.86990  0.07530  Biso   1.000  C
  C29      1.0000 0.34310  0.21800  0.53530  Biso   1.000  C
  C30      1.0000 0.65690  0.78200  0.46470  Biso   1.000  C
  H21      1.0000 0.40370  0.25500  0.61070  Biso   1.000  H
  H22      1.0000 0.59630  0.74500  0.38930  Biso   1.000  H
  C31      1.0000 0.35250  0.29970  0.46360  Biso   1.000  C
  C32      1.0000 0.64750  0.70030  0.53640  Biso   1.000  C
  H23      1.0000 0.42060  0.39030  0.49040  Biso   1.000  H
  H24      1.0000 0.57940  0.60970  0.50960  Biso   1.000  H
  C33      1.0000 0.26100  0.24730  0.35150  Biso   1.000  C
  C34      1.0000 0.73900  0.75270  0.64850  Biso   1.000  C
  C35      1.0000 0.16240  0.11190  0.31580  Biso   1.000  C
  C36      1.0000 0.83760  0.88810  0.68420  Biso   1.000  C
  H25      1.0000 0.09810  0.07310  0.24140  Biso   1.000  H
  H26      1.0000 0.90190  0.92690  0.75860  Biso   1.000  H
  C37      1.0000 0.15990  0.03490  0.39100  Biso   1.000  C
  C38      1.0000 0.84010  0.96510  0.60900  Biso   1.000  C
  H27      1.0000 0.09410  0.94380  0.36560  Biso   1.000  H
  H28      1.0000 0.90590  0.05620  0.63440  Biso   1.000  H
  C39      1.0000 0.67480  0.30640  0.18780  Biso   1.000  C
  C40      1.0000 0.32520  0.69360  0.81220  Biso   1.000  C
  C41      1.0000 0.64330  0.38790  0.11050  Biso   1.000  C
  C42      1.0000 0.35670  0.61210  0.88950  Biso   1.000  C
  C43      1.0000 0.27400  0.33390  0.27030  Biso   1.000  C
  C44      1.0000 0.72600  0.66610  0.72970  Biso   1.000  C
  O19      1.0000 0.73620  0.42570  0.04889  Biso   1.000  O
  O20      1.0000 0.26380  0.57430  0.95111  Biso   1.000  O
  O21      1.0000 0.02250  0.37330  0.00936  Biso   1.000  O
  O22      1.0000 0.97750  0.62670  0.99064  Biso   1.000  O
  H29      1.0000 0.97910  0.32550  0.94420  Biso   1.000  H
  H30      1.0000 0.02090  0.67450  0.05580  Biso   1.000  H
  H31      1.0000 0.95820  0.39800  0.02590  Biso   1.000  H
  H32      1.0000 0.04180  0.60200  0.97410  Biso   1.000  H
