data_image0
_cell_length_a       9.5121
_cell_length_b       11.4333
_cell_length_c       12.3811
_cell_angle_alpha    99.46
_cell_angle_beta     100.168
_cell_angle_gamma    114.012

_symmetry_space_group_name_H-M    "P 1"
_symmetry_int_tables_number       1

loop_
  _symmetry_equiv_pos_as_xyz
  'x, y, z'

loop_
  _atom_site_label
  _atom_site_occupancy
  _atom_site_fract_x
  _atom_site_fract_y
  _atom_site_fract_z
  _atom_site_thermal_displace_type
  _atom_site_B_iso_or_equiv
  _atom_site_type_symbol
  Sm1      1.0000 0.31025  0.46649  0.09655  Biso   1.000  Sm
  Sm2      1.0000 0.68975  0.53351  0.90345  Biso   1.000  Sm
  Cu1      1.0000 0.26246  0.97649  0.59551  Biso   1.000  Cu
  Cu2      1.0000 0.73754  0.02351  0.40449  Biso   1.000  Cu
  S1       1.0000 0.30569  0.22957  0.85232  Biso   1.000  S
  S2       1.0000 0.69431  0.77043  0.14768  Biso   1.000  S
  S3       1.0000 0.21567  0.71504  0.27536  Biso   1.000  S
  S4       1.0000 0.78433  0.28496  0.72464  Biso   1.000  S
  O1       1.0000 0.18270  0.27890  0.17200  Biso   1.000  O
  O2       1.0000 0.81730  0.72110  0.82800  Biso   1.000  O
  O3       1.0000 0.37770  0.45220  0.30260  Biso   1.000  O
  O4       1.0000 0.62230  0.54780  0.69740  Biso   1.000  O
  O5       1.0000 0.22340  0.60720  0.19650  Biso   1.000  O
  O6       1.0000 0.77660  0.39280  0.80350  Biso   1.000  O
  O7       1.0000 0.23850  0.29220  0.92680  Biso   1.000  O
  O8       1.0000 0.76150  0.70780  0.07320  Biso   1.000  O
  O9       1.0000 0.12320  0.76940  0.21390  Biso   1.000  O
  O10      1.0000 0.87680  0.23060  0.78610  Biso   1.000  O
  O11      1.0000 0.36920  0.81220  0.34610  Biso   1.000  O
  O12      1.0000 0.63080  0.18780  0.65390  Biso   1.000  O
  O13      1.0000 0.52710  0.41010  0.10800  Biso   1.000  O
  O14      1.0000 0.47290  0.58990  0.89200  Biso   1.000  O
  O15      1.0000 0.45150  0.32740  0.83470  Biso   1.000  O
  O16      1.0000 0.54850  0.67260  0.16530  Biso   1.000  O
  O17      1.0000 0.19000  0.14340  0.74690  Biso   1.000  O
  O18      1.0000 0.81000  0.85660  0.25310  Biso   1.000  O
  N1       1.0000 0.25150  0.08620  0.49980  Biso   1.000  N
  N2       1.0000 0.74850  0.91380  0.50020  Biso   1.000  N
  N3       1.0000 0.71810  0.14370  0.32260  Biso   1.000  N
  N4       1.0000 0.28190  0.85630  0.67740  Biso   1.000  N
  C1       1.0000 0.86250  0.55790  0.42470  Biso   1.000  C
  C2       1.0000 0.13750  0.44210  0.57530  Biso   1.000  C
  H1       1.0000 0.76120  0.55190  0.42080  Biso   1.000  H
  H2       1.0000 0.23880  0.44810  0.57920  Biso   1.000  H
  C3       1.0000 0.95110  0.62670  0.36010  Biso   1.000  C
  C4       1.0000 0.04890  0.37330  0.63990  Biso   1.000  C
  H3       1.0000 0.91090  0.66840  0.31370  Biso   1.000  H
  H4       1.0000 0.08910  0.33160  0.68630  Biso   1.000  H
  C5       1.0000 0.10400  0.63390  0.36430  Biso   1.000  C
  C6       1.0000 0.89600  0.36610  0.63570  Biso   1.000  C
  C7       1.0000 0.16570  0.57480  0.43360  Biso   1.000  C
  C8       1.0000 0.83430  0.42520  0.56640  Biso   1.000  C
  H5       1.0000 0.26670  0.58090  0.43560  Biso   1.000  H
  H6       1.0000 0.73330  0.41910  0.56440  Biso   1.000  H
  C9       1.0000 0.92290  0.49570  0.49760  Biso   1.000  C
  C10      1.0000 0.07710  0.50430  0.50240  Biso   1.000  C
  C11      1.0000 0.56470  0.24420  0.24340  Biso   1.000  C
  C12      1.0000 0.43530  0.75580  0.75660  Biso   1.000  C
  H7       1.0000 0.47300  0.25650  0.23660  Biso   1.000  H
  H8       1.0000 0.52700  0.74350  0.76340  Biso   1.000  H
  C13      1.0000 0.58890  0.16470  0.30870  Biso   1.000  C
  C14      1.0000 0.41110  0.83530  0.69130  Biso   1.000  C
  H9       1.0000 0.51180  0.12350  0.34490  Biso   1.000  H
  H10      1.0000 0.48820  0.87650  0.65510  Biso   1.000  H
  C15      1.0000 0.82670  0.20530  0.26980  Biso   1.000  C
  C16      1.0000 0.17330  0.79470  0.73020  Biso   1.000  C
  H11      1.0000 0.91830  0.19280  0.27880  Biso   1.000  H
  H12      1.0000 0.08170  0.80720  0.72120  Biso   1.000  H
  C17      1.0000 0.81030  0.28590  0.20340  Biso   1.000  C
  C18      1.0000 0.18970  0.71410  0.79660  Biso   1.000  C
  H13      1.0000 0.88970  0.32690  0.16880  Biso   1.000  H
  H14      1.0000 0.11030  0.67310  0.83120  Biso   1.000  H
  C19      1.0000 0.50030  0.11830  0.91350  Biso   1.000  C
  C20      1.0000 0.49970  0.88170  0.08650  Biso   1.000  C
  H15      1.0000 0.56100  0.16560  0.87010  Biso   1.000  H
  H16      1.0000 0.43900  0.83440  0.12990  Biso   1.000  H
  C21      1.0000 0.54820  0.03630  0.96810  Biso   1.000  C
  C22      1.0000 0.45180  0.96370  0.03190  Biso   1.000  C
  C23      1.0000 0.68770  0.02340  0.95990  Biso   1.000  C
  C24      1.0000 0.31230  0.97660  0.04010  Biso   1.000  C
  H17      1.0000 0.75090  0.07100  0.91780  Biso   1.000  H
  H18      1.0000 0.24910  0.92900  0.08220  Biso   1.000  H
  C25      1.0000 0.26820  0.05670  0.98810  Biso   1.000  C
  C26      1.0000 0.73180  0.94330  0.01190  Biso   1.000  C
  H19      1.0000 0.17610  0.06440  0.99430  Biso   1.000  H
  H20      1.0000 0.82390  0.93560  0.00570  Biso   1.000  H
  C27      1.0000 0.36490  0.12840  0.92410  Biso   1.000  C
  C28      1.0000 0.63510  0.87160  0.07590  Biso   1.000  C
  C29      1.0000 0.34490  0.21740  0.53500  Biso   1.000  C
  C30      1.0000 0.65510  0.78260  0.46500  Biso   1.000  C
  H21      1.0000 0.40540  0.25440  0.61050  Biso   1.000  H
  H22      1.0000 0.59460  0.74560  0.38950  Biso   1.000  H
  C31      1.0000 0.35500  0.29910  0.46470  Biso   1.000  C
  C32      1.0000 0.64500  0.70090  0.53530  Biso   1.000  C
  H23      1.0000 0.42390  0.38940  0.49180  Biso   1.000  H
  H24      1.0000 0.57610  0.61060  0.50820  Biso   1.000  H
  C33      1.0000 0.26230  0.24720  0.35230  Biso   1.000  C
  C34      1.0000 0.73770  0.75280  0.64770  Biso   1.000  C
  C35      1.0000 0.16330  0.11230  0.31650  Biso   1.000  C
  C36      1.0000 0.83670  0.88770  0.68350  Biso   1.000  C
  H25      1.0000 0.09850  0.07380  0.24220  Biso   1.000  H
  H26      1.0000 0.90150  0.92620  0.75780  Biso   1.000  H
  C37      1.0000 0.16090  0.03540  0.39120  Biso   1.000  C
  C38      1.0000 0.83910  0.96460  0.60880  Biso   1.000  C
  H27      1.0000 0.09410  0.94460  0.36570  Biso   1.000  H
  H28      1.0000 0.90590  0.05540  0.63430  Biso   1.000  H
  C39      1.0000 0.67590  0.30600  0.18780  Biso   1.000  C
  C40      1.0000 0.32410  0.69400  0.81220  Biso   1.000  C
  C41      1.0000 0.64550  0.38780  0.11090  Biso   1.000  C
  C42      1.0000 0.35450  0.61220  0.88910  Biso   1.000  C
  C43      1.0000 0.27410  0.33320  0.27200  Biso   1.000  C
  C44      1.0000 0.72590  0.66680  0.72800  Biso   1.000  C
  O19      1.0000 0.73900  0.42460  0.04930  Biso   1.000  O
  O20      1.0000 0.26100  0.57540  0.95070  Biso   1.000  O
  O21      1.0000 0.02120  0.37250  0.00960  Biso   1.000  O
  O22      1.0000 0.97880  0.62750  0.99040  Biso   1.000  O
  H29      1.0000 0.97780  0.32470  0.94450  Biso   1.000  H
  H30      1.0000 0.02220  0.67530  0.05550  Biso   1.000  H
  H31      1.0000 0.95690  0.39720  0.02610  Biso   1.000  H
  H32      1.0000 0.04310  0.60280  0.97390  Biso   1.000  H
