data_image0
_cell_length_a       9.577
_cell_length_b       11.5117
_cell_length_c       12.398
_cell_angle_alpha    99.681
_cell_angle_beta     100.128
_cell_angle_gamma    114.146

_symmetry_space_group_name_H-M    "P 1"
_symmetry_int_tables_number       1

loop_
  _symmetry_equiv_pos_as_xyz
  'x, y, z'

loop_
  _atom_site_label
  _atom_site_occupancy
  _atom_site_fract_x
  _atom_site_fract_y
  _atom_site_fract_z
  _atom_site_thermal_displace_type
  _atom_site_B_iso_or_equiv
  _atom_site_type_symbol
  Ce1      1.0000 0.31172  0.46735  0.09740  Biso   1.000  Ce
  Ce2      1.0000 0.68828  0.53265  0.90260  Biso   1.000  Ce
  Cu1      1.0000 0.26868  0.97441  0.59342  Biso   1.000  Cu
  Cu2      1.0000 0.73132  0.02559  0.40658  Biso   1.000  Cu
  S1       1.0000 0.30176  0.22333  0.85065  Biso   1.000  S
  S2       1.0000 0.69824  0.77667  0.14935  Biso   1.000  S
  S3       1.0000 0.21404  0.71833  0.27867  Biso   1.000  S
  S4       1.0000 0.78596  0.28167  0.72133  Biso   1.000  S
  O1       1.0000 0.18100  0.27880  0.17660  Biso   1.000  O
  O2       1.0000 0.81900  0.72120  0.82340  Biso   1.000  O
  O3       1.0000 0.37850  0.45010  0.30652  Biso   1.000  O
  O4       1.0000 0.62150  0.54990  0.69348  Biso   1.000  O
  O5       1.0000 0.22990  0.61440  0.20270  Biso   1.000  O
  O6       1.0000 0.77010  0.38560  0.79730  Biso   1.000  O
  O7       1.0000 0.23570  0.28570  0.92562  Biso   1.000  O
  O8       1.0000 0.76430  0.71430  0.07438  Biso   1.000  O
  O9       1.0000 0.11970  0.76850  0.21500  Biso   1.000  O
  O10      1.0000 0.88030  0.23150  0.78500  Biso   1.000  O
  O11      1.0000 0.36350  0.81940  0.35170  Biso   1.000  O
  O12      1.0000 0.63650  0.18060  0.64830  Biso   1.000  O
  O13      1.0000 0.53620  0.41270  0.10620  Biso   1.000  O
  O14      1.0000 0.46380  0.58730  0.89380  Biso   1.000  O
  O15      1.0000 0.44510  0.32100  0.83236  Biso   1.000  O
  O16      1.0000 0.55490  0.67900  0.16764  Biso   1.000  O
  O17      1.0000 0.18640  0.13600  0.74588  Biso   1.000  O
  O18      1.0000 0.81360  0.86400  0.25412  Biso   1.000  O
  N1       1.0000 0.25560  0.08430  0.49970  Biso   1.000  N
  N2       1.0000 0.74440  0.91570  0.50030  Biso   1.000  N
  N3       1.0000 0.71570  0.14500  0.32430  Biso   1.000  N
  N4       1.0000 0.28430  0.85500  0.67570  Biso   1.000  N
  C1       1.0000 0.86500  0.56060  0.42860  Biso   1.000  C
  C2       1.0000 0.13500  0.43940  0.57140  Biso   1.000  C
  H1       1.0000 0.76510  0.55580  0.42620  Biso   1.000  H
  H2       1.0000 0.23490  0.44420  0.57380  Biso   1.000  H
  C3       1.0000 0.95280  0.62990  0.36390  Biso   1.000  C
  C4       1.0000 0.04720  0.37010  0.63610  Biso   1.000  C
  H3       1.0000 0.91360  0.67280  0.31920  Biso   1.000  H
  H4       1.0000 0.08640  0.32720  0.68080  Biso   1.000  H
  C5       1.0000 0.10240  0.63510  0.36610  Biso   1.000  C
  C6       1.0000 0.89760  0.36490  0.63390  Biso   1.000  C
  C7       1.0000 0.16350  0.57410  0.43270  Biso   1.000  C
  C8       1.0000 0.83650  0.42590  0.56730  Biso   1.000  C
  H5       1.0000 0.26290  0.57900  0.43290  Biso   1.000  H
  H6       1.0000 0.73710  0.42100  0.56710  Biso   1.000  H
  C9       1.0000 0.92360  0.49640  0.49870  Biso   1.000  C
  C10      1.0000 0.07640  0.50360  0.50130  Biso   1.000  C
  C11      1.0000 0.56770  0.24780  0.24480  Biso   1.000  C
  C12      1.0000 0.43230  0.75220  0.75520  Biso   1.000  C
  H7       1.0000 0.47770  0.26150  0.23790  Biso   1.000  H
  H8       1.0000 0.52230  0.73850  0.76210  Biso   1.000  H
  C13      1.0000 0.58960  0.16830  0.31050  Biso   1.000  C
  C14      1.0000 0.41040  0.83170  0.68950  Biso   1.000  C
  H9       1.0000 0.51260  0.12910  0.34700  Biso   1.000  H
  H10      1.0000 0.48740  0.87090  0.65300  Biso   1.000  H
  C15      1.0000 0.82510  0.20410  0.27200  Biso   1.000  C
  C16      1.0000 0.17490  0.79590  0.72800  Biso   1.000  C
  H11      1.0000 0.91500  0.19010  0.28140  Biso   1.000  H
  H12      1.0000 0.08500  0.80990  0.71860  Biso   1.000  H
  C17      1.0000 0.81090  0.28480  0.20480  Biso   1.000  C
  C18      1.0000 0.18910  0.71520  0.79520  Biso   1.000  C
  H13      1.0000 0.89020  0.32410  0.17010  Biso   1.000  H
  H14      1.0000 0.10980  0.67590  0.82990  Biso   1.000  H
  C19      1.0000 0.49820  0.11610  0.91250  Biso   1.000  C
  C20      1.0000 0.50180  0.88390  0.08750  Biso   1.000  C
  H15      1.0000 0.55810  0.16300  0.86900  Biso   1.000  H
  H16      1.0000 0.44190  0.83700  0.13100  Biso   1.000  H
  C21      1.0000 0.54690  0.03540  0.96710  Biso   1.000  C
  C22      1.0000 0.45310  0.96460  0.03290  Biso   1.000  C
  C23      1.0000 0.68680  0.02370  0.95880  Biso   1.000  C
  C24      1.0000 0.31320  0.97630  0.04120  Biso   1.000  C
  H17      1.0000 0.74910  0.07050  0.91650  Biso   1.000  H
  H18      1.0000 0.25090  0.92950  0.08350  Biso   1.000  H
  C25      1.0000 0.26910  0.05500  0.98810  Biso   1.000  C
  C26      1.0000 0.73090  0.94500  0.01190  Biso   1.000  C
  H19      1.0000 0.17740  0.06220  0.99430  Biso   1.000  H
  H20      1.0000 0.82260  0.93780  0.00570  Biso   1.000  H
  C27      1.0000 0.36330  0.12570  0.92340  Biso   1.000  C
  C28      1.0000 0.63670  0.87430  0.07660  Biso   1.000  C
  C29      1.0000 0.35050  0.21490  0.53620  Biso   1.000  C
  C30      1.0000 0.64950  0.78510  0.46380  Biso   1.000  C
  H21      1.0000 0.41280  0.25070  0.61120  Biso   1.000  H
  H22      1.0000 0.58720  0.74930  0.38880  Biso   1.000  H
  C31      1.0000 0.35930  0.29780  0.46690  Biso   1.000  C
  C32      1.0000 0.64070  0.70220  0.53310  Biso   1.000  C
  H23      1.0000 0.42800  0.38760  0.49430  Biso   1.000  H
  H24      1.0000 0.57200  0.61240  0.50570  Biso   1.000  H
  C33      1.0000 0.26470  0.24610  0.35590  Biso   1.000  C
  C34      1.0000 0.73530  0.75390  0.64410  Biso   1.000  C
  C35      1.0000 0.16390  0.11190  0.31910  Biso   1.000  C
  C36      1.0000 0.83610  0.88810  0.68090  Biso   1.000  C
  H25      1.0000 0.09690  0.07440  0.24550  Biso   1.000  H
  H26      1.0000 0.90310  0.92560  0.75450  Biso   1.000  H
  C37      1.0000 0.16390  0.03490  0.39250  Biso   1.000  C
  C38      1.0000 0.83610  0.96510  0.60750  Biso   1.000  C
  H27      1.0000 0.09730  0.94450  0.36650  Biso   1.000  H
  H28      1.0000 0.90270  0.05550  0.63350  Biso   1.000  H
  C39      1.0000 0.67860  0.30700  0.18920  Biso   1.000  C
  C40      1.0000 0.32140  0.69300  0.81080  Biso   1.000  C
  C41      1.0000 0.65240  0.38770  0.11110  Biso   1.000  C
  C42      1.0000 0.34760  0.61230  0.88890  Biso   1.000  C
  C43      1.0000 0.27440  0.33200  0.27560  Biso   1.000  C
  C44      1.0000 0.72560  0.66800  0.72440  Biso   1.000  C
  O19      1.0000 0.74720  0.42280  0.05054  Biso   1.000  O
  O20      1.0000 0.25280  0.57720  0.94946  Biso   1.000  O
  O21      1.0000 0.01650  0.37030  0.00973  Biso   1.000  O
  O22      1.0000 0.98350  0.62970  0.99027  Biso   1.000  O
  H29      1.0000 0.97310  0.32250  0.94460  Biso   1.000  H
  H30      1.0000 0.02690  0.67750  0.05540  Biso   1.000  H
  H31      1.0000 0.95220  0.39500  0.02620  Biso   1.000  H
  H32      1.0000 0.04780  0.60500  0.97380  Biso   1.000  H
