data_image0
_cell_length_a       9.5144
_cell_length_b       11.4162
_cell_length_c       12.369
_cell_angle_alpha    99.415
_cell_angle_beta     100.2
_cell_angle_gamma    114.01

_symmetry_space_group_name_H-M    "P 1"
_symmetry_int_tables_number       1

loop_
  _symmetry_equiv_pos_as_xyz
  'x, y, z'

loop_
  _atom_site_label
  _atom_site_occupancy
  _atom_site_fract_x
  _atom_site_fract_y
  _atom_site_fract_z
  _atom_site_thermal_displace_type
  _atom_site_B_iso_or_equiv
  _atom_site_type_symbol
  Eu1      1.0000 0.31012  0.46648  0.09643  Biso   1.000  Eu
  Eu2      1.0000 0.68988  0.53352  0.90357  Biso   1.000  Eu
  Cu1      1.0000 0.26095  0.97641  0.59569  Biso   1.000  Cu
  Cu2      1.0000 0.73905  0.02359  0.40431  Biso   1.000  Cu
  S1       1.0000 0.30661  0.23088  0.85252  Biso   1.000  S
  S2       1.0000 0.69339  0.76912  0.14748  Biso   1.000  S
  S3       1.0000 0.21609  0.71441  0.27461  Biso   1.000  S
  S4       1.0000 0.78391  0.28559  0.72539  Biso   1.000  S
  O1       1.0000 0.18250  0.28000  0.17130  Biso   1.000  O
  O2       1.0000 0.81750  0.72000  0.82870  Biso   1.000  O
  O3       1.0000 0.37700  0.45270  0.30200  Biso   1.000  O
  O4       1.0000 0.62300  0.54730  0.69800  Biso   1.000  O
  O5       1.0000 0.22320  0.60680  0.19570  Biso   1.000  O
  O6       1.0000 0.77680  0.39320  0.80430  Biso   1.000  O
  O7       1.0000 0.23940  0.29340  0.92740  Biso   1.000  O
  O8       1.0000 0.76060  0.70660  0.07260  Biso   1.000  O
  O9       1.0000 0.12470  0.76980  0.21380  Biso   1.000  O
  O10      1.0000 0.87530  0.23020  0.78620  Biso   1.000  O
  O11      1.0000 0.37050  0.81220  0.34630  Biso   1.000  O
  O12      1.0000 0.62950  0.18780  0.65370  Biso   1.000  O
  O13      1.0000 0.52500  0.40980  0.10880  Biso   1.000  O
  O14      1.0000 0.47500  0.59020  0.89120  Biso   1.000  O
  O15      1.0000 0.45240  0.32840  0.83540  Biso   1.000  O
  O16      1.0000 0.54760  0.67160  0.16460  Biso   1.000  O
  O17      1.0000 0.19150  0.14430  0.74630  Biso   1.000  O
  O18      1.0000 0.80850  0.85570  0.25370  Biso   1.000  O
  N1       1.0000 0.24880  0.08590  0.49900  Biso   1.000  N
  N2       1.0000 0.75120  0.91410  0.50100  Biso   1.000  N
  N3       1.0000 0.71890  0.14340  0.32210  Biso   1.000  N
  N4       1.0000 0.28110  0.85660  0.67790  Biso   1.000  N
  C1       1.0000 0.86400  0.55840  0.42450  Biso   1.000  C
  C2       1.0000 0.13600  0.44160  0.57550  Biso   1.000  C
  H1       1.0000 0.76310  0.55340  0.42070  Biso   1.000  H
  H2       1.0000 0.23690  0.44660  0.57930  Biso   1.000  H
  C3       1.0000 0.95170  0.62630  0.35910  Biso   1.000  C
  C4       1.0000 0.04830  0.37370  0.64090  Biso   1.000  C
  H3       1.0000 0.91140  0.66740  0.31190  Biso   1.000  H
  H4       1.0000 0.08860  0.33260  0.68810  Biso   1.000  H
  C5       1.0000 0.10340  0.63310  0.36420  Biso   1.000  C
  C6       1.0000 0.89660  0.36690  0.63580  Biso   1.000  C
  C7       1.0000 0.16630  0.57470  0.43370  Biso   1.000  C
  C8       1.0000 0.83370  0.42530  0.56630  Biso   1.000  C
  H5       1.0000 0.26750  0.58140  0.43590  Biso   1.000  H
  H6       1.0000 0.73250  0.41860  0.56410  Biso   1.000  H
  C9       1.0000 0.92230  0.49590  0.49760  Biso   1.000  C
  C10      1.0000 0.07770  0.50410  0.50240  Biso   1.000  C
  C11      1.0000 0.56460  0.24380  0.24360  Biso   1.000  C
  C12      1.0000 0.43540  0.75620  0.75640  Biso   1.000  C
  H7       1.0000 0.47190  0.25460  0.23630  Biso   1.000  H
  H8       1.0000 0.52810  0.74540  0.76370  Biso   1.000  H
  C13      1.0000 0.59090  0.16570  0.30990  Biso   1.000  C
  C14      1.0000 0.40910  0.83430  0.69010  Biso   1.000  C
  H9       1.0000 0.51570  0.12640  0.34820  Biso   1.000  H
  H10      1.0000 0.48430  0.87360  0.65180  Biso   1.000  H
  C15      1.0000 0.82700  0.20530  0.26860  Biso   1.000  C
  C16      1.0000 0.17300  0.79470  0.73140  Biso   1.000  C
  H11      1.0000 0.91840  0.19250  0.27660  Biso   1.000  H
  H12      1.0000 0.08160  0.80750  0.72340  Biso   1.000  H
  C17      1.0000 0.80970  0.28690  0.20240  Biso   1.000  C
  C18      1.0000 0.19030  0.71310  0.79760  Biso   1.000  C
  H13      1.0000 0.88860  0.32860  0.16770  Biso   1.000  H
  H14      1.0000 0.11140  0.67140  0.83230  Biso   1.000  H
  C19      1.0000 0.50040  0.11860  0.91290  Biso   1.000  C
  C20      1.0000 0.49960  0.88140  0.08710  Biso   1.000  C
  H15      1.0000 0.56090  0.16560  0.86920  Biso   1.000  H
  H16      1.0000 0.43910  0.83440  0.13080  Biso   1.000  H
  C21      1.0000 0.54810  0.03590  0.96750  Biso   1.000  C
  C22      1.0000 0.45190  0.96410  0.03250  Biso   1.000  C
  C23      1.0000 0.68880  0.02400  0.96020  Biso   1.000  C
  C24      1.0000 0.31120  0.97600  0.03980  Biso   1.000  C
  H17      1.0000 0.75350  0.07300  0.91960  Biso   1.000  H
  H18      1.0000 0.24650  0.92700  0.08040  Biso   1.000  H
  C25      1.0000 0.26930  0.05750  0.98850  Biso   1.000  C
  C26      1.0000 0.73070  0.94250  0.01150  Biso   1.000  C
  H19      1.0000 0.17800  0.06610  0.99550  Biso   1.000  H
  H20      1.0000 0.82200  0.93390  0.00450  Biso   1.000  H
  C27      1.0000 0.36530  0.12950  0.92420  Biso   1.000  C
  C28      1.0000 0.63470  0.87050  0.07580  Biso   1.000  C
  C29      1.0000 0.34380  0.21760  0.53500  Biso   1.000  C
  C30      1.0000 0.65620  0.78240  0.46500  Biso   1.000  C
  H21      1.0000 0.40470  0.25420  0.61040  Biso   1.000  H
  H22      1.0000 0.59530  0.74580  0.38960  Biso   1.000  H
  C31      1.0000 0.35410  0.29990  0.46410  Biso   1.000  C
  C32      1.0000 0.64590  0.70010  0.53590  Biso   1.000  C
  H23      1.0000 0.42260  0.39030  0.49100  Biso   1.000  H
  H24      1.0000 0.57740  0.60970  0.50900  Biso   1.000  H
  C33      1.0000 0.26170  0.24730  0.35240  Biso   1.000  C
  C34      1.0000 0.73830  0.75270  0.64760  Biso   1.000  C
  C35      1.0000 0.16170  0.11180  0.31570  Biso   1.000  C
  C36      1.0000 0.83830  0.88820  0.68430  Biso   1.000  C
  H25      1.0000 0.09720  0.07340  0.24130  Biso   1.000  H
  H26      1.0000 0.90280  0.92660  0.75870  Biso   1.000  H
  C37      1.0000 0.15940  0.03490  0.39100  Biso   1.000  C
  C38      1.0000 0.84060  0.96510  0.60900  Biso   1.000  C
  H27      1.0000 0.09300  0.94390  0.36570  Biso   1.000  H
  H28      1.0000 0.90700  0.05610  0.63430  Biso   1.000  H
  C39      1.0000 0.67490  0.30630  0.18800  Biso   1.000  C
  C40      1.0000 0.32510  0.69370  0.81200  Biso   1.000  C
  C41      1.0000 0.64360  0.38780  0.11080  Biso   1.000  C
  C42      1.0000 0.35640  0.61220  0.88920  Biso   1.000  C
  C43      1.0000 0.27360  0.33290  0.27050  Biso   1.000  C
  C44      1.0000 0.72640  0.66710  0.72950  Biso   1.000  C
  O19      1.0000 0.73740  0.42550  0.04950  Biso   1.000  O
  O20      1.0000 0.26260  0.57450  0.95050  Biso   1.000  O
  O21      1.0000 0.02180  0.37300  0.00930  Biso   1.000  O
  O22      1.0000 0.97820  0.62700  0.99070  Biso   1.000  O
  H29      1.0000 0.97830  0.32520  0.94420  Biso   1.000  H
  H30      1.0000 0.02170  0.67480  0.05580  Biso   1.000  H
  H31      1.0000 0.95750  0.39770  0.02580  Biso   1.000  H
  H32      1.0000 0.04250  0.60230  0.97420  Biso   1.000  H
