data_image0
_cell_length_a       9.528
_cell_length_b       11.338
_cell_length_c       12.282
_cell_angle_alpha    99.109
_cell_angle_beta     100.275
_cell_angle_gamma    114.053

_symmetry_space_group_name_H-M    "P 1"
_symmetry_int_tables_number       1

loop_
  _symmetry_equiv_pos_as_xyz
  'x, y, z'

loop_
  _atom_site_label
  _atom_site_occupancy
  _atom_site_fract_x
  _atom_site_fract_y
  _atom_site_fract_z
  _atom_site_thermal_displace_type
  _atom_site_B_iso_or_equiv
  _atom_site_type_symbol
  Er1      1.0000 0.31049  0.46692  0.09605  Biso   1.000  Er
  Er2      1.0000 0.68951  0.53308  0.90395  Biso   1.000  Er
  Cu1      1.0000 0.25376  0.97571  0.59636  Biso   1.000  Cu
  Cu2      1.0000 0.74624  0.02429  0.40364  Biso   1.000  Cu
  S1       1.0000 0.31030  0.23563  0.85415  Biso   1.000  S
  S2       1.0000 0.68970  0.76437  0.14585  Biso   1.000  S
  S3       1.0000 0.21916  0.71232  0.27233  Biso   1.000  S
  S4       1.0000 0.78084  0.28768  0.72767  Biso   1.000  S
  O1       1.0000 0.18250  0.28230  0.16730  Biso   1.000  O
  O2       1.0000 0.81750  0.71770  0.83270  Biso   1.000  O
  O3       1.0000 0.37600  0.45450  0.29940  Biso   1.000  O
  O4       1.0000 0.62400  0.54550  0.70060  Biso   1.000  O
  O5       1.0000 0.22350  0.60350  0.19200  Biso   1.000  O
  O6       1.0000 0.77650  0.39650  0.80800  Biso   1.000  O
  O7       1.0000 0.24250  0.29820  0.92873  Biso   1.000  O
  O8       1.0000 0.75750  0.70180  0.07127  Biso   1.000  O
  O9       1.0000 0.12940  0.77000  0.21180  Biso   1.000  O
  O10      1.0000 0.87060  0.23000  0.78820  Biso   1.000  O
  O11      1.0000 0.37370  0.80820  0.34340  Biso   1.000  O
  O12      1.0000 0.62630  0.19180  0.65660  Biso   1.000  O
  O13      1.0000 0.51560  0.40790  0.11200  Biso   1.000  O
  O14      1.0000 0.48440  0.59210  0.88800  Biso   1.000  O
  O15      1.0000 0.45650  0.33340  0.83686  Biso   1.000  O
  O16      1.0000 0.54350  0.66660  0.16314  Biso   1.000  O
  O17      1.0000 0.19540  0.15060  0.74764  Biso   1.000  O
  O18      1.0000 0.80460  0.84940  0.25236  Biso   1.000  O
  N1       1.0000 0.24410  0.08520  0.49830  Biso   1.000  N
  N2       1.0000 0.75590  0.91480  0.50170  Biso   1.000  N
  N3       1.0000 0.72440  0.14510  0.32170  Biso   1.000  N
  N4       1.0000 0.27560  0.85490  0.67830  Biso   1.000  N
  C1       1.0000 0.86570  0.55950  0.42260  Biso   1.000  C
  C2       1.0000 0.13430  0.44050  0.57740  Biso   1.000  C
  H1       1.0000 0.76510  0.55500  0.41810  Biso   1.000  H
  H2       1.0000 0.23490  0.44500  0.58190  Biso   1.000  H
  C3       1.0000 0.95520  0.62690  0.35700  Biso   1.000  C
  C4       1.0000 0.04480  0.37310  0.64300  Biso   1.000  C
  H3       1.0000 0.91660  0.66930  0.30930  Biso   1.000  H
  H4       1.0000 0.08340  0.33070  0.69070  Biso   1.000  H
  C5       1.0000 0.10620  0.63170  0.36240  Biso   1.000  C
  C6       1.0000 0.89380  0.36830  0.63760  Biso   1.000  C
  C7       1.0000 0.16620  0.57210  0.43380  Biso   1.000  C
  C8       1.0000 0.83380  0.42790  0.56620  Biso   1.000  C
  H5       1.0000 0.26660  0.57700  0.43650  Biso   1.000  H
  H6       1.0000 0.73340  0.42300  0.56350  Biso   1.000  H
  C9       1.0000 0.92310  0.49660  0.49690  Biso   1.000  C
  C10      1.0000 0.07690  0.50340  0.50310  Biso   1.000  C
  C11      1.0000 0.56450  0.24340  0.24530  Biso   1.000  C
  C12      1.0000 0.43550  0.75660  0.75470  Biso   1.000  C
  H7       1.0000 0.47170  0.25380  0.23960  Biso   1.000  H
  H8       1.0000 0.52830  0.74620  0.76040  Biso   1.000  H
  C13      1.0000 0.59330  0.16430  0.31070  Biso   1.000  C
  C14      1.0000 0.40670  0.83570  0.68930  Biso   1.000  C
  H9       1.0000 0.51900  0.12230  0.34900  Biso   1.000  H
  H10      1.0000 0.48100  0.87770  0.65100  Biso   1.000  H
  C15      1.0000 0.82870  0.20840  0.26680  Biso   1.000  C
  C16      1.0000 0.17130  0.79160  0.73320  Biso   1.000  C
  H11      1.0000 0.92100  0.19710  0.27380  Biso   1.000  H
  H12      1.0000 0.07900  0.80290  0.72620  Biso   1.000  H
  C17      1.0000 0.80710  0.28970  0.20030  Biso   1.000  C
  C18      1.0000 0.19290  0.71030  0.79970  Biso   1.000  C
  H13      1.0000 0.88390  0.33240  0.16400  Biso   1.000  H
  H14      1.0000 0.11610  0.66760  0.83600  Biso   1.000  H
  C19      1.0000 0.50130  0.12040  0.91360  Biso   1.000  C
  C20      1.0000 0.49870  0.87960  0.08640  Biso   1.000  C
  H15      1.0000 0.56160  0.16790  0.86950  Biso   1.000  H
  H16      1.0000 0.43840  0.83210  0.13050  Biso   1.000  H
  C21      1.0000 0.54870  0.03680  0.96770  Biso   1.000  C
  C22      1.0000 0.45130  0.96320  0.03230  Biso   1.000  C
  C23      1.0000 0.68730  0.02290  0.95870  Biso   1.000  C
  C24      1.0000 0.31270  0.97710  0.04130  Biso   1.000  C
  H17      1.0000 0.75070  0.07070  0.91620  Biso   1.000  H
  H18      1.0000 0.24930  0.92930  0.08380  Biso   1.000  H
  C25      1.0000 0.27050  0.05930  0.98890  Biso   1.000  C
  C26      1.0000 0.72950  0.94070  0.01110  Biso   1.000  C
  H19      1.0000 0.17860  0.06730  0.99490  Biso   1.000  H
  H20      1.0000 0.82140  0.93270  0.00510  Biso   1.000  H
  C27      1.0000 0.36690  0.13210  0.92550  Biso   1.000  C
  C28      1.0000 0.63310  0.86790  0.07450  Biso   1.000  C
  C29      1.0000 0.33900  0.21750  0.53370  Biso   1.000  C
  C30      1.0000 0.66100  0.78250  0.46630  Biso   1.000  C
  H21      1.0000 0.39920  0.25430  0.60970  Biso   1.000  H
  H22      1.0000 0.60080  0.74570  0.39030  Biso   1.000  H
  C31      1.0000 0.35040  0.30010  0.46240  Biso   1.000  C
  C32      1.0000 0.64960  0.69990  0.53760  Biso   1.000  C
  H23      1.0000 0.41960  0.39090  0.48940  Biso   1.000  H
  H24      1.0000 0.58040  0.60910  0.51060  Biso   1.000  H
  C33      1.0000 0.25880  0.24820  0.34990  Biso   1.000  C
  C34      1.0000 0.74120  0.75180  0.65010  Biso   1.000  C
  C35      1.0000 0.15860  0.11210  0.31310  Biso   1.000  C
  C36      1.0000 0.84140  0.88790  0.68690  Biso   1.000  C
  H25      1.0000 0.09470  0.07380  0.23810  Biso   1.000  H
  H26      1.0000 0.90530  0.92620  0.76190  Biso   1.000  H
  C37      1.0000 0.15500  0.03460  0.38880  Biso   1.000  C
  C38      1.0000 0.84500  0.96540  0.61120  Biso   1.000  C
  H27      1.0000 0.08810  0.94320  0.36330  Biso   1.000  H
  H28      1.0000 0.91190  0.05680  0.63670  Biso   1.000  H
  C39      1.0000 0.67180  0.30730  0.18810  Biso   1.000  C
  C40      1.0000 0.32820  0.69270  0.81190  Biso   1.000  C
  C41      1.0000 0.63570  0.38840  0.11110  Biso   1.000  C
  C42      1.0000 0.36430  0.61160  0.88890  Biso   1.000  C
  C43      1.0000 0.27310  0.33520  0.26830  Biso   1.000  C
  C44      1.0000 0.72690  0.66480  0.73170  Biso   1.000  C
  O19      1.0000 0.72570  0.42800  0.04781  Biso   1.000  O
  O20      1.0000 0.27430  0.57200  0.95219  Biso   1.000  O
  O21      1.0000 0.03030  0.37720  0.00930  Biso   1.000  O
  O22      1.0000 0.96970  0.62280  0.99070  Biso   1.000  O
  H29      1.0000 0.98690  0.32940  0.94420  Biso   1.000  H
  H30      1.0000 0.01310  0.67060  0.05580  Biso   1.000  H
  H31      1.0000 0.96600  0.40190  0.02580  Biso   1.000  H
  H32      1.0000 0.03400  0.59810  0.97420  Biso   1.000  H
