data_image0
_cell_length_a       9.4951
_cell_length_b       11.3913
_cell_length_c       12.3599
_cell_angle_alpha    99.294
_cell_angle_beta     100.211
_cell_angle_gamma    113.999

_symmetry_space_group_name_H-M    "P 1"
_symmetry_int_tables_number       1

loop_
  _symmetry_equiv_pos_as_xyz
  'x, y, z'

loop_
  _atom_site_label
  _atom_site_occupancy
  _atom_site_fract_x
  _atom_site_fract_y
  _atom_site_fract_z
  _atom_site_thermal_displace_type
  _atom_site_B_iso_or_equiv
  _atom_site_type_symbol
  Tb1      1.0000 0.30969  0.46629  0.09598  Biso   1.000  Tb
  Tb2      1.0000 0.69031  0.53371  0.90402  Biso   1.000  Tb
  Cu1      1.0000 0.25839  0.97711  0.59639  Biso   1.000  Cu
  Cu2      1.0000 0.74161  0.02289  0.40361  Biso   1.000  Cu
  S1       1.0000 0.30785  0.23319  0.85322  Biso   1.000  S
  S2       1.0000 0.69215  0.76681  0.14678  Biso   1.000  S
  S3       1.0000 0.21690  0.71298  0.27331  Biso   1.000  S
  S4       1.0000 0.78310  0.28702  0.72669  Biso   1.000  S
  O1       1.0000 0.18380  0.28030  0.16960  Biso   1.000  O
  O2       1.0000 0.81620  0.71970  0.83040  Biso   1.000  O
  O3       1.0000 0.37720  0.45340  0.30070  Biso   1.000  O
  O4       1.0000 0.62280  0.54660  0.69930  Biso   1.000  O
  O5       1.0000 0.22130  0.60450  0.19360  Biso   1.000  O
  O6       1.0000 0.77870  0.39550  0.80640  Biso   1.000  O
  O7       1.0000 0.24000  0.29540  0.92750  Biso   1.000  O
  O8       1.0000 0.76000  0.70460  0.07250  Biso   1.000  O
  O9       1.0000 0.12620  0.77010  0.21350  Biso   1.000  O
  O10      1.0000 0.87380  0.22990  0.78650  Biso   1.000  O
  O11      1.0000 0.37270  0.80910  0.34400  Biso   1.000  O
  O12      1.0000 0.62730  0.19090  0.65600  Biso   1.000  O
  O13      1.0000 0.52200  0.40910  0.10970  Biso   1.000  O
  O14      1.0000 0.47800  0.59090  0.89030  Biso   1.000  O
  O15      1.0000 0.45500  0.33100  0.83620  Biso   1.000  O
  O16      1.0000 0.54500  0.66900  0.16380  Biso   1.000  O
  O17      1.0000 0.19260  0.14800  0.74720  Biso   1.000  O
  O18      1.0000 0.80740  0.85200  0.25280  Biso   1.000  O
  N1       1.0000 0.24730  0.08630  0.49890  Biso   1.000  N
  N2       1.0000 0.75270  0.91370  0.50110  Biso   1.000  N
  N3       1.0000 0.72100  0.14330  0.32160  Biso   1.000  N
  N4       1.0000 0.27900  0.85670  0.67840  Biso   1.000  N
  C1       1.0000 0.86200  0.55730  0.42230  Biso   1.000  C
  C2       1.0000 0.13800  0.44270  0.57770  Biso   1.000  C
  H1       1.0000 0.76010  0.55090  0.41730  Biso   1.000  H
  H2       1.0000 0.23990  0.44910  0.58270  Biso   1.000  H
  C3       1.0000 0.95270  0.62620  0.35780  Biso   1.000  C
  C4       1.0000 0.04730  0.37380  0.64220  Biso   1.000  C
  H3       1.0000 0.91370  0.66850  0.31080  Biso   1.000  H
  H4       1.0000 0.08630  0.33150  0.68920  Biso   1.000  H
  C5       1.0000 0.10400  0.63230  0.36330  Biso   1.000  C
  C6       1.0000 0.89600  0.36770  0.63670  Biso   1.000  C
  C7       1.0000 0.16700  0.57420  0.43430  Biso   1.000  C
  C8       1.0000 0.83300  0.42580  0.56570  Biso   1.000  C
  H5       1.0000 0.26850  0.58070  0.43700  Biso   1.000  H
  H6       1.0000 0.73150  0.41930  0.56300  Biso   1.000  H
  C9       1.0000 0.92260  0.49590  0.49640  Biso   1.000  C
  C10      1.0000 0.07740  0.50410  0.50360  Biso   1.000  C
  C11      1.0000 0.56350  0.24240  0.24270  Biso   1.000  C
  C12      1.0000 0.43650  0.75760  0.75730  Biso   1.000  C
  H7       1.0000 0.47020  0.25260  0.23510  Biso   1.000  H
  H8       1.0000 0.52980  0.74740  0.76490  Biso   1.000  H
  C13      1.0000 0.59050  0.16310  0.30880  Biso   1.000  C
  C14      1.0000 0.40950  0.83690  0.69120  Biso   1.000  C
  H9       1.0000 0.51460  0.12180  0.34610  Biso   1.000  H
  H10      1.0000 0.48540  0.87820  0.65390  Biso   1.000  H
  C15      1.0000 0.82910  0.20600  0.26830  Biso   1.000  C
  C16      1.0000 0.17090  0.79400  0.73170  Biso   1.000  C
  H11      1.0000 0.92110  0.19380  0.27640  Biso   1.000  H
  H12      1.0000 0.07890  0.80620  0.72360  Biso   1.000  H
  C17      1.0000 0.81060  0.28780  0.20210  Biso   1.000  C
  C18      1.0000 0.18940  0.71220  0.79790  Biso   1.000  C
  H13      1.0000 0.88930  0.33020  0.16720  Biso   1.000  H
  H14      1.0000 0.11070  0.66980  0.83280  Biso   1.000  H
  C19      1.0000 0.50160  0.12020  0.91360  Biso   1.000  C
  C20      1.0000 0.49840  0.87980  0.08640  Biso   1.000  C
  H15      1.0000 0.56250  0.16790  0.87030  Biso   1.000  H
  H16      1.0000 0.43750  0.83210  0.12970  Biso   1.000  H
  C21      1.0000 0.54890  0.03690  0.96760  Biso   1.000  C
  C22      1.0000 0.45110  0.96310  0.03240  Biso   1.000  C
  C23      1.0000 0.68900  0.02400  0.96070  Biso   1.000  C
  C24      1.0000 0.31100  0.97600  0.03930  Biso   1.000  C
  H17      1.0000 0.75410  0.07320  0.92020  Biso   1.000  H
  H18      1.0000 0.24590  0.92680  0.07980  Biso   1.000  H
  C25      1.0000 0.26860  0.05840  0.98830  Biso   1.000  C
  C26      1.0000 0.73140  0.94160  0.01170  Biso   1.000  C
  H19      1.0000 0.17710  0.06710  0.99500  Biso   1.000  H
  H20      1.0000 0.82290  0.93290  0.00500  Biso   1.000  H
  C27      1.0000 0.36660  0.13070  0.92500  Biso   1.000  C
  C28      1.0000 0.63340  0.86930  0.07500  Biso   1.000  C
  C29      1.0000 0.34100  0.21790  0.53470  Biso   1.000  C
  C30      1.0000 0.65900  0.78210  0.46530  Biso   1.000  C
  H21      1.0000 0.40030  0.25480  0.61050  Biso   1.000  H
  H22      1.0000 0.59970  0.74520  0.38950  Biso   1.000  H
  C31      1.0000 0.35250  0.30060  0.46340  Biso   1.000  C
  C32      1.0000 0.64750  0.69940  0.53660  Biso   1.000  C
  H23      1.0000 0.42150  0.39110  0.49000  Biso   1.000  H
  H24      1.0000 0.57850  0.60890  0.51000  Biso   1.000  H
  C33      1.0000 0.26010  0.24720  0.35110  Biso   1.000  C
  C34      1.0000 0.73990  0.75280  0.64890  Biso   1.000  C
  C35      1.0000 0.16060  0.11170  0.31490  Biso   1.000  C
  C36      1.0000 0.83940  0.88830  0.68510  Biso   1.000  C
  H25      1.0000 0.09600  0.07310  0.24050  Biso   1.000  H
  H26      1.0000 0.90400  0.92690  0.75950  Biso   1.000  H
  C37      1.0000 0.15850  0.03470  0.39050  Biso   1.000  C
  C38      1.0000 0.84150  0.96530  0.60950  Biso   1.000  C
  H27      1.0000 0.09290  0.94350  0.36530  Biso   1.000  H
  H28      1.0000 0.90710  0.05650  0.63470  Biso   1.000  H
  C39      1.0000 0.67480  0.30630  0.18780  Biso   1.000  C
  C40      1.0000 0.32520  0.69370  0.81220  Biso   1.000  C
  C41      1.0000 0.64130  0.38760  0.11050  Biso   1.000  C
  C42      1.0000 0.35870  0.61240  0.88950  Biso   1.000  C
  C43      1.0000 0.27420  0.33440  0.26950  Biso   1.000  C
  C44      1.0000 0.72580  0.66560  0.73050  Biso   1.000  C
  O19      1.0000 0.73410  0.42630  0.04800  Biso   1.000  O
  O20      1.0000 0.26590  0.57370  0.95200  Biso   1.000  O
  O21      1.0000 0.02420  0.37450  0.00910  Biso   1.000  O
  O22      1.0000 0.97580  0.62550  0.99090  Biso   1.000  O
  H29      1.0000 0.98080  0.32670  0.94400  Biso   1.000  H
  H30      1.0000 0.01920  0.67330  0.05600  Biso   1.000  H
  H31      1.0000 0.95990  0.39920  0.02560  Biso   1.000  H
  H32      1.0000 0.04010  0.60080  0.97440  Biso   1.000  H
