data_image0
_cell_length_a       6.7263
_cell_length_b       8.2865
_cell_length_c       6.4944
_cell_angle_alpha    102.546
_cell_angle_beta     96.719
_cell_angle_gamma    77.907

_symmetry_space_group_name_H-M    "P 1"
_symmetry_int_tables_number       1

loop_
  _symmetry_equiv_pos_as_xyz
  'x, y, z'

loop_
  _atom_site_label
  _atom_site_occupancy
  _atom_site_fract_x
  _atom_site_fract_y
  _atom_site_fract_z
  _atom_site_thermal_displace_type
  _atom_site_B_iso_or_equiv
  _atom_site_type_symbol
  Cu1      1.0000 0.10028  0.84444  0.84959  Biso   1.000  Cu
  Cu2      1.0000 0.89972  0.15556  0.15041  Biso   1.000  Cu
  Cl1      1.0000 0.22703  0.99223  0.18859  Biso   1.000  Cl
  Cl2      1.0000 0.77297  0.00777  0.81141  Biso   1.000  Cl
  N1       1.0000 0.32600  0.84310  0.64710  Biso   1.000  N
  N2       1.0000 0.67400  0.15690  0.35290  Biso   1.000  N
  N3       1.0000 0.10550  0.60180  0.83480  Biso   1.000  N
  N4       1.0000 0.89450  0.39820  0.16520  Biso   1.000  N
  C1       1.0000 0.14650  0.45960  0.78690  Biso   1.000  C
  C2       1.0000 0.85350  0.54040  0.21310  Biso   1.000  C
  C3       1.0000 0.19980  0.27630  0.72810  Biso   1.000  C
  C4       1.0000 0.80020  0.72370  0.27190  Biso   1.000  C
  C5       1.0000 0.41980  0.67060  0.56740  Biso   1.000  C
  C6       1.0000 0.58020  0.32940  0.43260  Biso   1.000  C
  C7       1.0000 0.56900  0.58640  0.69290  Biso   1.000  C
  C8       1.0000 0.43100  0.41360  0.30710  Biso   1.000  C
  C9       1.0000 0.35200  0.58390  0.37440  Biso   1.000  C
  C10      1.0000 0.64800  0.41610  0.62560  Biso   1.000  C
  H1       1.0000 0.62100  0.64600  0.82700  Biso   1.000  H
  H2       1.0000 0.37900  0.35400  0.17300  Biso   1.000  H
  H3       1.0000 0.26000  0.64400  0.29000  Biso   1.000  H
  H4       1.0000 0.74000  0.35600  0.71000  Biso   1.000  H
  H5       1.0000 0.34800  0.23500  0.75500  Biso   1.000  H
  H6       1.0000 0.65200  0.76500  0.24500  Biso   1.000  H
  H7       1.0000 0.15300  0.24600  0.59300  Biso   1.000  H
  H8       1.0000 0.84700  0.75400  0.40700  Biso   1.000  H
  H9       1.0000 0.13100  0.22800  0.81700  Biso   1.000  H
  H10      1.0000 0.86900  0.77200  0.18300  Biso   1.000  H
  H11      1.0000 0.42400  0.89800  0.72200  Biso   1.000  H
  H12      1.0000 0.57600  0.10200  0.27800  Biso   1.000  H
  H13      1.0000 0.28400  0.88800  0.54100  Biso   1.000  H
  H14      1.0000 0.71600  0.11200  0.45900  Biso   1.000  H
