data_image0
_cell_length_a       8.043
_cell_length_b       18.949
_cell_length_c       11.048
_cell_angle_alpha    90
_cell_angle_beta     110.109
_cell_angle_gamma    90

_symmetry_space_group_name_H-M    "P 1"
_symmetry_int_tables_number       1

loop_
  _symmetry_equiv_pos_as_xyz
  'x, y, z'

loop_
  _atom_site_label
  _atom_site_occupancy
  _atom_site_fract_x
  _atom_site_fract_y
  _atom_site_fract_z
  _atom_site_thermal_displace_type
  _atom_site_B_iso_or_equiv
  _atom_site_type_symbol
  Cu1      1.0000 0.37312  0.55310  0.47508  Biso   1.000  Cu
  Cu2      1.0000 0.62688  0.05310  0.02492  Biso   1.000  Cu
  Cu3      1.0000 0.62688  0.44690  0.52492  Biso   1.000  Cu
  Cu4      1.0000 0.37312  0.94690  0.97508  Biso   1.000  Cu
  Cu5      1.0000 0.15523  0.48798  0.59145  Biso   1.000  Cu
  Cu6      1.0000 0.84477  0.98798  0.90855  Biso   1.000  Cu
  Cu7      1.0000 0.84477  0.51202  0.40855  Biso   1.000  Cu
  Cu8      1.0000 0.15523  0.01202  0.09145  Biso   1.000  Cu
  S1       1.0000 0.07655  0.58195  0.41358  Biso   1.000  S
  S2       1.0000 0.92345  0.08195  0.08642  Biso   1.000  S
  S3       1.0000 0.92345  0.41805  0.58642  Biso   1.000  S
  S4       1.0000 0.07655  0.91805  0.91358  Biso   1.000  S
  S5       1.0000 0.44775  0.45493  0.64325  Biso   1.000  S
  S6       1.0000 0.55225  0.95493  0.85675  Biso   1.000  S
  S7       1.0000 0.55225  0.54507  0.35675  Biso   1.000  S
  S8       1.0000 0.44775  0.04507  0.14325  Biso   1.000  S
  N1       1.0000 0.42140  0.64403  0.58490  Biso   1.000  N
  N2       1.0000 0.57860  0.14403  0.91510  Biso   1.000  N
  N3       1.0000 0.57860  0.35597  0.41510  Biso   1.000  N
  N4       1.0000 0.42140  0.85597  0.08490  Biso   1.000  N
  N5       1.0000 0.23460  0.54604  0.75760  Biso   1.000  N
  N6       1.0000 0.76540  0.04604  0.74240  Biso   1.000  N
  N7       1.0000 0.76540  0.45396  0.24240  Biso   1.000  N
  N8       1.0000 0.23460  0.95396  0.25760  Biso   1.000  N
  C1       1.0000 0.10290  0.65543  0.51720  Biso   1.000  C
  C2       1.0000 0.89710  0.15543  0.98280  Biso   1.000  C
  C3       1.0000 0.89710  0.34457  0.48280  Biso   1.000  C
  C4       1.0000 0.10290  0.84457  0.01720  Biso   1.000  C
  C5       1.0000 0.95930  0.69080  0.52750  Biso   1.000  C
  C6       1.0000 0.04070  0.19080  0.97250  Biso   1.000  C
  C7       1.0000 0.04070  0.30920  0.47250  Biso   1.000  C
  C8       1.0000 0.95930  0.80920  0.02750  Biso   1.000  C
  H1       1.0000 0.84550  0.67680  0.47770  Biso   1.000  H
  H2       1.0000 0.15450  0.17680  0.02230  Biso   1.000  H
  H3       1.0000 0.15450  0.32320  0.52230  Biso   1.000  H
  H4       1.0000 0.84550  0.82320  0.97770  Biso   1.000  H
  C9       1.0000 0.98290  0.74840  0.61330  Biso   1.000  C
  C10      1.0000 0.01710  0.24840  0.88670  Biso   1.000  C
  C11      1.0000 0.01710  0.25160  0.38670  Biso   1.000  C
  C12      1.0000 0.98290  0.75160  0.11330  Biso   1.000  C
  H5       1.0000 0.88320  0.77160  0.61750  Biso   1.000  H
  H6       1.0000 0.11680  0.27160  0.88250  Biso   1.000  H
  H7       1.0000 0.11680  0.22840  0.38250  Biso   1.000  H
  H8       1.0000 0.88320  0.72840  0.11750  Biso   1.000  H
  C13      1.0000 0.14360  0.77080  0.68890  Biso   1.000  C
  C14      1.0000 0.85640  0.27080  0.81110  Biso   1.000  C
  C15      1.0000 0.85640  0.22920  0.31110  Biso   1.000  C
  C16      1.0000 0.14360  0.72920  0.18890  Biso   1.000  C
  H9       1.0000 0.15440  0.80860  0.74470  Biso   1.000  H
  H10      1.0000 0.84560  0.30860  0.75530  Biso   1.000  H
  H11      1.0000 0.84560  0.19140  0.25530  Biso   1.000  H
  H12      1.0000 0.15440  0.69140  0.24470  Biso   1.000  H
  C17      1.0000 0.29680  0.73594  0.68260  Biso   1.000  C
  C18      1.0000 0.70320  0.23594  0.81740  Biso   1.000  C
  C19      1.0000 0.70320  0.26406  0.31740  Biso   1.000  C
  C20      1.0000 0.29680  0.76406  0.18260  Biso   1.000  C
  C21      1.0000 0.47050  0.75420  0.76050  Biso   1.000  C
  C22      1.0000 0.52950  0.25420  0.73950  Biso   1.000  C
  C23      1.0000 0.52950  0.24580  0.23950  Biso   1.000  C
  C24      1.0000 0.47050  0.74580  0.26050  Biso   1.000  C
  H13      1.0000 0.48840  0.79020  0.82080  Biso   1.000  H
  H14      1.0000 0.51160  0.29020  0.67920  Biso   1.000  H
  H15      1.0000 0.51160  0.20980  0.17920  Biso   1.000  H
  H16      1.0000 0.48840  0.70980  0.32080  Biso   1.000  H
  C25      1.0000 0.61080  0.72010  0.74880  Biso   1.000  C
  C26      1.0000 0.38920  0.22010  0.75120  Biso   1.000  C
  C27      1.0000 0.38920  0.27990  0.25120  Biso   1.000  C
  C28      1.0000 0.61080  0.77990  0.24880  Biso   1.000  C
  H17      1.0000 0.72530  0.73270  0.79940  Biso   1.000  H
  H18      1.0000 0.27470  0.23270  0.70060  Biso   1.000  H
  H19      1.0000 0.27470  0.26730  0.20060  Biso   1.000  H
  H20      1.0000 0.72530  0.76730  0.29940  Biso   1.000  H
  C29      1.0000 0.58100  0.66478  0.65860  Biso   1.000  C
  C30      1.0000 0.41900  0.16478  0.84140  Biso   1.000  C
  C31      1.0000 0.41900  0.33522  0.34140  Biso   1.000  C
  C32      1.0000 0.58100  0.83522  0.15860  Biso   1.000  C
  H21      1.0000 0.67870  0.64170  0.65040  Biso   1.000  H
  H22      1.0000 0.32130  0.14170  0.84960  Biso   1.000  H
  H23      1.0000 0.32130  0.35830  0.34960  Biso   1.000  H
  H24      1.0000 0.67870  0.85830  0.15040  Biso   1.000  H
  C33      1.0000 0.27620  0.67866  0.59500  Biso   1.000  C
  C34      1.0000 0.72380  0.17866  0.90500  Biso   1.000  C
  C35      1.0000 0.72380  0.32134  0.40500  Biso   1.000  C
  C36      1.0000 0.27620  0.82134  0.09500  Biso   1.000  C
  C37      1.0000 0.53130  0.50870  0.78200  Biso   1.000  C
  C38      1.0000 0.46870  0.00870  0.71800  Biso   1.000  C
  C39      1.0000 0.46870  0.49130  0.21800  Biso   1.000  C
  C40      1.0000 0.53130  0.99130  0.28200  Biso   1.000  C
  C41      1.0000 0.71120  0.51250  0.85100  Biso   1.000  C
  C42      1.0000 0.28880  0.01250  0.64900  Biso   1.000  C
  C43      1.0000 0.28880  0.48750  0.14900  Biso   1.000  C
  C44      1.0000 0.71120  0.98750  0.35100  Biso   1.000  C
  H25      1.0000 0.79030  0.48810  0.82160  Biso   1.000  H
  H26      1.0000 0.20970  0.98810  0.67840  Biso   1.000  H
  H27      1.0000 0.20970  0.51190  0.17840  Biso   1.000  H
  H28      1.0000 0.79030  0.01190  0.32160  Biso   1.000  H
  C45      1.0000 0.77570  0.55250  0.96450  Biso   1.000  C
  C46      1.0000 0.22430  0.05250  0.53550  Biso   1.000  C
  C47      1.0000 0.22430  0.44750  0.03550  Biso   1.000  C
  C48      1.0000 0.77570  0.94750  0.46450  Biso   1.000  C
  H29      1.0000 0.89690  0.55410  0.00940  Biso   1.000  H
  H30      1.0000 0.10310  0.05410  0.49060  Biso   1.000  H
  H31      1.0000 0.10310  0.44590  0.99060  Biso   1.000  H
  H32      1.0000 0.89690  0.94590  0.50940  Biso   1.000  H
  C49      1.0000 0.66490  0.58900  0.00990  Biso   1.000  C
  C50      1.0000 0.33510  0.08900  0.49010  Biso   1.000  C
  C51      1.0000 0.33510  0.41100  0.99010  Biso   1.000  C
  C52      1.0000 0.66490  0.91100  0.50990  Biso   1.000  C
  H33      1.0000 0.71000  0.61430  0.08630  Biso   1.000  H
  H34      1.0000 0.29000  0.11430  0.41370  Biso   1.000  H
  H35      1.0000 0.29000  0.38570  0.91370  Biso   1.000  H
  H36      1.0000 0.71000  0.88570  0.58630  Biso   1.000  H
  C53      1.0000 0.48040  0.58852  0.94110  Biso   1.000  C
  C54      1.0000 0.51960  0.08852  0.55890  Biso   1.000  C
  C55      1.0000 0.51960  0.41148  0.05890  Biso   1.000  C
  C56      1.0000 0.48040  0.91148  0.44110  Biso   1.000  C
  C57      1.0000 0.35900  0.62780  0.98120  Biso   1.000  C
  C58      1.0000 0.64100  0.12780  0.51880  Biso   1.000  C
  C59      1.0000 0.64100  0.37220  0.01880  Biso   1.000  C
  C60      1.0000 0.35900  0.87220  0.48120  Biso   1.000  C
  H37      1.0000 0.39870  0.65510  0.05570  Biso   1.000  H
  H38      1.0000 0.60130  0.15510  0.44430  Biso   1.000  H
  H39      1.0000 0.60130  0.34490  0.94430  Biso   1.000  H
  H40      1.0000 0.39870  0.84490  0.55570  Biso   1.000  H
  C61      1.0000 0.18330  0.62520  0.90960  Biso   1.000  C
  C62      1.0000 0.81670  0.12520  0.59040  Biso   1.000  C
  C63      1.0000 0.81670  0.37480  0.09040  Biso   1.000  C
  C64      1.0000 0.18330  0.87480  0.40960  Biso   1.000  C
  H41      1.0000 0.10200  0.65100  0.93440  Biso   1.000  H
  H42      1.0000 0.89800  0.15100  0.56560  Biso   1.000  H
  H43      1.0000 0.89800  0.34900  0.06560  Biso   1.000  H
  H44      1.0000 0.10200  0.84900  0.43440  Biso   1.000  H
  C65      1.0000 0.12680  0.58378  0.79930  Biso   1.000  C
  C66      1.0000 0.87320  0.08378  0.70070  Biso   1.000  C
  C67      1.0000 0.87320  0.41622  0.20070  Biso   1.000  C
  C68      1.0000 0.12680  0.91622  0.29930  Biso   1.000  C
  H45      1.0000 0.00630  0.58250  0.75200  Biso   1.000  H
  H46      1.0000 0.99370  0.08250  0.74800  Biso   1.000  H
  H47      1.0000 0.99370  0.41750  0.24800  Biso   1.000  H
  H48      1.0000 0.00630  0.91750  0.25200  Biso   1.000  H
  C69      1.0000 0.41270  0.54787  0.82690  Biso   1.000  C
  C70      1.0000 0.58730  0.04787  0.67310  Biso   1.000  C
  C71      1.0000 0.58730  0.45213  0.17310  Biso   1.000  C
  C72      1.0000 0.41270  0.95213  0.32690  Biso   1.000  C
