data_image0
_cell_length_a       10.881
_cell_length_b       14.722
_cell_length_c       23.16
_cell_angle_alpha    90
_cell_angle_beta     90
_cell_angle_gamma    90

_symmetry_space_group_name_H-M    "P 1"
_symmetry_int_tables_number       1

loop_
  _symmetry_equiv_pos_as_xyz
  'x, y, z'

loop_
  _atom_site_label
  _atom_site_occupancy
  _atom_site_fract_x
  _atom_site_fract_y
  _atom_site_fract_z
  _atom_site_thermal_displace_type
  _atom_site_B_iso_or_equiv
  _atom_site_type_symbol
  Zn1      1.0000 0.72780  0.25000  0.50000  Biso   1.000  Zn
  Zn2      1.0000 0.27220  0.75000  0.00000  Biso   1.000  Zn
  Zn3      1.0000 0.27220  0.75000  0.50000  Biso   1.000  Zn
  Zn4      1.0000 0.72780  0.25000  0.00000  Biso   1.000  Zn
  O1       1.0000 0.76320  0.09480  0.54820  Biso   1.000  O
  O2       1.0000 0.23680  0.90520  0.04820  Biso   1.000  O
  O3       1.0000 0.76320  0.40520  0.45180  Biso   1.000  O
  O4       1.0000 0.23680  0.59480  0.95180  Biso   1.000  O
  O5       1.0000 0.23680  0.90520  0.45180  Biso   1.000  O
  O6       1.0000 0.76320  0.09480  0.95180  Biso   1.000  O
  O7       1.0000 0.23680  0.59480  0.54820  Biso   1.000  O
  O8       1.0000 0.76320  0.40520  0.04820  Biso   1.000  O
  C1       1.0000 0.79600  0.01440  0.50700  Biso   1.000  C
  C2       1.0000 0.20400  0.98560  0.00700  Biso   1.000  C
  C3       1.0000 0.79600  0.48560  0.49300  Biso   1.000  C
  C4       1.0000 0.20400  0.51440  0.99300  Biso   1.000  C
  C5       1.0000 0.20400  0.98560  0.49300  Biso   1.000  C
  C6       1.0000 0.79600  0.01440  0.99300  Biso   1.000  C
  C7       1.0000 0.20400  0.51440  0.50700  Biso   1.000  C
  C8       1.0000 0.79600  0.48560  0.00700  Biso   1.000  C
  C9       1.0000 0.68500  0.01350  0.46280  Biso   1.000  C
  C10      1.0000 0.31500  0.98650  0.96280  Biso   1.000  C
  C11      1.0000 0.68500  0.48650  0.53720  Biso   1.000  C
  C12      1.0000 0.31500  0.51350  0.03720  Biso   1.000  C
  C13      1.0000 0.31500  0.98650  0.53720  Biso   1.000  C
  C14      1.0000 0.68500  0.01350  0.03720  Biso   1.000  C
  C15      1.0000 0.31500  0.51350  0.46280  Biso   1.000  C
  C16      1.0000 0.68500  0.48650  0.96280  Biso   1.000  C
  O9       1.0000 0.68300  0.10460  0.43200  Biso   1.000  O
  O10      1.0000 0.31700  0.89540  0.93200  Biso   1.000  O
  O11      1.0000 0.68300  0.39540  0.56800  Biso   1.000  O
  O12      1.0000 0.31700  0.60460  0.06800  Biso   1.000  O
  O13      1.0000 0.31700  0.89540  0.56800  Biso   1.000  O
  O14      1.0000 0.68300  0.10460  0.06800  Biso   1.000  O
  O15      1.0000 0.31700  0.60460  0.43200  Biso   1.000  O
  O16      1.0000 0.68300  0.39540  0.93200  Biso   1.000  O
  C17      1.0000 0.60000  0.11160  0.38380  Biso   1.000  C
  C18      1.0000 0.40000  0.88840  0.88380  Biso   1.000  C
  C19      1.0000 0.60000  0.38840  0.61620  Biso   1.000  C
  C20      1.0000 0.40000  0.61160  0.11620  Biso   1.000  C
  C21      1.0000 0.40000  0.88840  0.61620  Biso   1.000  C
  C22      1.0000 0.60000  0.11160  0.11620  Biso   1.000  C
  C23      1.0000 0.40000  0.61160  0.38380  Biso   1.000  C
  C24      1.0000 0.60000  0.38840  0.88380  Biso   1.000  C
  C25      1.0000 0.63600  0.19650  0.35140  Biso   1.000  C
  C26      1.0000 0.36400  0.80350  0.85140  Biso   1.000  C
  C27      1.0000 0.63600  0.30350  0.64860  Biso   1.000  C
  C28      1.0000 0.36400  0.69650  0.14860  Biso   1.000  C
  C29      1.0000 0.36400  0.80350  0.64860  Biso   1.000  C
  C30      1.0000 0.63600  0.19650  0.14860  Biso   1.000  C
  C31      1.0000 0.36400  0.69650  0.35140  Biso   1.000  C
  C32      1.0000 0.63600  0.30350  0.85140  Biso   1.000  C
  O17      1.0000 0.63730  0.27160  0.38920  Biso   1.000  O
  O18      1.0000 0.36270  0.72840  0.88920  Biso   1.000  O
  O19      1.0000 0.63730  0.22840  0.61080  Biso   1.000  O
  O20      1.0000 0.36270  0.77160  0.11080  Biso   1.000  O
  O21      1.0000 0.36270  0.72840  0.61080  Biso   1.000  O
  O22      1.0000 0.63730  0.27160  0.11080  Biso   1.000  O
  O23      1.0000 0.36270  0.77160  0.38920  Biso   1.000  O
  O24      1.0000 0.63730  0.22840  0.88920  Biso   1.000  O
  C33      1.0000 0.67800  0.35170  0.36190  Biso   1.000  C
  C34      1.0000 0.32200  0.64830  0.86190  Biso   1.000  C
  C35      1.0000 0.67800  0.14830  0.63810  Biso   1.000  C
  C36      1.0000 0.32200  0.85170  0.13810  Biso   1.000  C
  C37      1.0000 0.32200  0.64830  0.63810  Biso   1.000  C
  C38      1.0000 0.67800  0.35170  0.13810  Biso   1.000  C
  C39      1.0000 0.32200  0.85170  0.36190  Biso   1.000  C
  C40      1.0000 0.67800  0.14830  0.86190  Biso   1.000  C
  C41      1.0000 0.68200  0.07320  0.59630  Biso   1.000  C
  C42      1.0000 0.31800  0.92680  0.09630  Biso   1.000  C
  C43      1.0000 0.68200  0.42680  0.40370  Biso   1.000  C
  C44      1.0000 0.31800  0.57320  0.90370  Biso   1.000  C
  C45      1.0000 0.31800  0.92680  0.40370  Biso   1.000  C
  C46      1.0000 0.68200  0.07320  0.90370  Biso   1.000  C
  C47      1.0000 0.31800  0.57320  0.59630  Biso   1.000  C
  C48      1.0000 0.68200  0.42680  0.09630  Biso   1.000  C
  O25      1.0000 0.89990  0.28710  0.56270  Biso   1.000  O
  O26      1.0000 0.10010  0.71290  0.06270  Biso   1.000  O
  O27      1.0000 0.89990  0.21290  0.43730  Biso   1.000  O
  O28      1.0000 0.10010  0.78710  0.93730  Biso   1.000  O
  O29      1.0000 0.10010  0.71290  0.43730  Biso   1.000  O
  O30      1.0000 0.89990  0.28710  0.93730  Biso   1.000  O
  O31      1.0000 0.10010  0.78710  0.56270  Biso   1.000  O
  O32      1.0000 0.89990  0.21290  0.06270  Biso   1.000  O
  O33      1.0000 0.50000  0.25000  0.50000  Biso   1.000  O
  O34      1.0000 0.50000  0.75000  0.00000  Biso   1.000  O
  O35      1.0000 0.50000  0.75000  0.50000  Biso   1.000  O
  O36      1.0000 0.50000  0.25000  0.00000  Biso   1.000  O
  I1       1.0000 0.02053  0.50523  0.14893  Biso   1.000  I
  I2       1.0000 0.97947  0.49477  0.64893  Biso   1.000  I
  I3       1.0000 0.02053  0.99477  0.85107  Biso   1.000  I
  I4       1.0000 0.97947  0.00523  0.35107  Biso   1.000  I
  I5       1.0000 0.97947  0.49477  0.85107  Biso   1.000  I
  I6       1.0000 0.02053  0.50523  0.35107  Biso   1.000  I
  I7       1.0000 0.97947  0.00523  0.14893  Biso   1.000  I
  I8       1.0000 0.02053  0.99477  0.64893  Biso   1.000  I
  I9       1.0000 0.35410  0.39669  0.25000  Biso   1.000  I
  I10      1.0000 0.64590  0.60331  0.75000  Biso   1.000  I
  I11      1.0000 0.35410  0.10331  0.75000  Biso   1.000  I
  I12      1.0000 0.64590  0.89669  0.25000  Biso   1.000  I
  I13      1.0000 0.01720  0.75644  0.25000  Biso   1.000  I
  I14      1.0000 0.98280  0.24356  0.75000  Biso   1.000  I
  I15      1.0000 0.01720  0.74356  0.75000  Biso   1.000  I
  I16      1.0000 0.98280  0.25644  0.25000  Biso   1.000  I
  I17      1.0000 0.22891  0.25211  0.09403  Biso   1.000  I
  I18      1.0000 0.77109  0.74789  0.59403  Biso   1.000  I
  I19      1.0000 0.22891  0.24789  0.90597  Biso   1.000  I
  I20      1.0000 0.77109  0.75211  0.40597  Biso   1.000  I
  I21      1.0000 0.77109  0.74789  0.90597  Biso   1.000  I
  I22      1.0000 0.22891  0.25211  0.40597  Biso   1.000  I
  I23      1.0000 0.77109  0.75211  0.09403  Biso   1.000  I
  I24      1.0000 0.22891  0.24789  0.59403  Biso   1.000  I
  I25      1.0000 0.67320  0.57475  0.25000  Biso   1.000  I
  I26      1.0000 0.32680  0.42525  0.75000  Biso   1.000  I
  I27      1.0000 0.67320  0.92525  0.75000  Biso   1.000  I
  I28      1.0000 0.32680  0.07475  0.25000  Biso   1.000  I
  Cu1      1.0000 0.95400  0.56460  0.25000  Biso   1.000  Cu
  Cu2      1.0000 0.04600  0.43540  0.75000  Biso   1.000  Cu
  Cu3      1.0000 0.95400  0.93540  0.75000  Biso   1.000  Cu
  Cu4      1.0000 0.04600  0.06460  0.25000  Biso   1.000  Cu
  Cu5      1.0000 0.15080  0.36340  0.18379  Biso   1.000  Cu
  Cu6      1.0000 0.84920  0.63660  0.68379  Biso   1.000  Cu
  Cu7      1.0000 0.15080  0.13660  0.81621  Biso   1.000  Cu
  Cu8      1.0000 0.84920  0.86340  0.31621  Biso   1.000  Cu
  Cu9      1.0000 0.84920  0.63660  0.81621  Biso   1.000  Cu
  Cu10     1.0000 0.15080  0.36340  0.31621  Biso   1.000  Cu
  Cu11     1.0000 0.84920  0.86340  0.18379  Biso   1.000  Cu
  Cu12     1.0000 0.15080  0.13660  0.68379  Biso   1.000  Cu
  Cu13     1.0000 0.72300  0.73140  0.29420  Biso   1.000  Cu
  Cu14     1.0000 0.27700  0.26860  0.79420  Biso   1.000  Cu
  Cu15     1.0000 0.72300  0.76860  0.70580  Biso   1.000  Cu
  Cu16     1.0000 0.27700  0.23140  0.20580  Biso   1.000  Cu
  Cu17     1.0000 0.27700  0.26860  0.70580  Biso   1.000  Cu
  Cu18     1.0000 0.72300  0.73140  0.20580  Biso   1.000  Cu
  Cu19     1.0000 0.27700  0.23140  0.29420  Biso   1.000  Cu
  Cu20     1.0000 0.72300  0.76860  0.79420  Biso   1.000  Cu
  Cu21     1.0000 0.83220  0.67110  0.31140  Biso   1.000  Cu
  Cu22     1.0000 0.16780  0.32890  0.81140  Biso   1.000  Cu
  Cu23     1.0000 0.83220  0.82890  0.68860  Biso   1.000  Cu
  Cu24     1.0000 0.16780  0.17110  0.18860  Biso   1.000  Cu
  Cu25     1.0000 0.16780  0.32890  0.68860  Biso   1.000  Cu
  Cu26     1.0000 0.83220  0.67110  0.18860  Biso   1.000  Cu
  Cu27     1.0000 0.16780  0.17110  0.31140  Biso   1.000  Cu
  Cu28     1.0000 0.83220  0.82890  0.81140  Biso   1.000  Cu
