data_image0
_cell_length_a       10.648
_cell_length_b       14.444
_cell_length_c       22.674
_cell_angle_alpha    90
_cell_angle_beta     90
_cell_angle_gamma    90

_symmetry_space_group_name_H-M    "P 1"
_symmetry_int_tables_number       1

loop_
  _symmetry_equiv_pos_as_xyz
  'x, y, z'

loop_
  _atom_site_label
  _atom_site_occupancy
  _atom_site_fract_x
  _atom_site_fract_y
  _atom_site_fract_z
  _atom_site_thermal_displace_type
  _atom_site_B_iso_or_equiv
  _atom_site_type_symbol
  I1       1.0000 0.02017  0.50515  0.14887  Biso   1.000  I
  I2       1.0000 0.97983  0.49485  0.64887  Biso   1.000  I
  I3       1.0000 0.02017  0.99485  0.85113  Biso   1.000  I
  I4       1.0000 0.97983  0.00515  0.35113  Biso   1.000  I
  I5       1.0000 0.97983  0.49485  0.85113  Biso   1.000  I
  I6       1.0000 0.02017  0.50515  0.35113  Biso   1.000  I
  I7       1.0000 0.97983  0.00515  0.14887  Biso   1.000  I
  I8       1.0000 0.02017  0.99485  0.64887  Biso   1.000  I
  I9       1.0000 0.35423  0.39688  0.25000  Biso   1.000  I
  I10      1.0000 0.64577  0.60312  0.75000  Biso   1.000  I
  I11      1.0000 0.35423  0.10312  0.75000  Biso   1.000  I
  I12      1.0000 0.64577  0.89688  0.25000  Biso   1.000  I
  I13      1.0000 0.01782  0.75648  0.25000  Biso   1.000  I
  I14      1.0000 0.98218  0.24352  0.75000  Biso   1.000  I
  I15      1.0000 0.01782  0.74352  0.75000  Biso   1.000  I
  I16      1.0000 0.98218  0.25648  0.25000  Biso   1.000  I
  I17      1.0000 0.22903  0.25200  0.09425  Biso   1.000  I
  I18      1.0000 0.77097  0.74800  0.59425  Biso   1.000  I
  I19      1.0000 0.22903  0.24800  0.90575  Biso   1.000  I
  I20      1.0000 0.77097  0.75200  0.40575  Biso   1.000  I
  I21      1.0000 0.77097  0.74800  0.90575  Biso   1.000  I
  I22      1.0000 0.22903  0.25200  0.40575  Biso   1.000  I
  I23      1.0000 0.77097  0.75200  0.09425  Biso   1.000  I
  I24      1.0000 0.22903  0.24800  0.59425  Biso   1.000  I
  I25      1.0000 0.67276  0.57470  0.25000  Biso   1.000  I
  I26      1.0000 0.32724  0.42530  0.75000  Biso   1.000  I
  I27      1.0000 0.67276  0.92530  0.75000  Biso   1.000  I
  I28      1.0000 0.32724  0.07470  0.25000  Biso   1.000  I
  Cu1      1.0000 0.95250  0.56360  0.25000  Biso   1.000  Cu
  Cu2      1.0000 0.04750  0.43640  0.75000  Biso   1.000  Cu
  Cu3      1.0000 0.95250  0.93640  0.75000  Biso   1.000  Cu
  Cu4      1.0000 0.04750  0.06360  0.25000  Biso   1.000  Cu
  Cu5      1.0000 0.15100  0.36324  0.18375  Biso   1.000  Cu
  Cu6      1.0000 0.84900  0.63676  0.68375  Biso   1.000  Cu
  Cu7      1.0000 0.15100  0.13676  0.81625  Biso   1.000  Cu
  Cu8      1.0000 0.84900  0.86324  0.31625  Biso   1.000  Cu
  Cu9      1.0000 0.84900  0.63676  0.81625  Biso   1.000  Cu
  Cu10     1.0000 0.15100  0.36324  0.31625  Biso   1.000  Cu
  Cu11     1.0000 0.84900  0.86324  0.18375  Biso   1.000  Cu
  Cu12     1.0000 0.15100  0.13676  0.68375  Biso   1.000  Cu
  Cu13     1.0000 0.72180  0.73150  0.29300  Biso   1.000  Cu
  Cu14     1.0000 0.27820  0.26850  0.79300  Biso   1.000  Cu
  Cu15     1.0000 0.72180  0.76850  0.70700  Biso   1.000  Cu
  Cu16     1.0000 0.27820  0.23150  0.20700  Biso   1.000  Cu
  Cu17     1.0000 0.27820  0.26850  0.70700  Biso   1.000  Cu
  Cu18     1.0000 0.72180  0.73150  0.20700  Biso   1.000  Cu
  Cu19     1.0000 0.27820  0.23150  0.29300  Biso   1.000  Cu
  Cu20     1.0000 0.72180  0.76850  0.79300  Biso   1.000  Cu
  Cu21     1.0000 0.83230  0.67150  0.31120  Biso   1.000  Cu
  Cu22     1.0000 0.16770  0.32850  0.81120  Biso   1.000  Cu
  Cu23     1.0000 0.83230  0.82850  0.68880  Biso   1.000  Cu
  Cu24     1.0000 0.16770  0.17150  0.18880  Biso   1.000  Cu
  Cu25     1.0000 0.16770  0.32850  0.68880  Biso   1.000  Cu
  Cu26     1.0000 0.83230  0.67150  0.18880  Biso   1.000  Cu
  Cu27     1.0000 0.16770  0.17150  0.31120  Biso   1.000  Cu
  Cu28     1.0000 0.83230  0.82850  0.81120  Biso   1.000  Cu
  Ca1      1.0000 0.72600  0.25000  0.50000  Biso   1.000  Ca
  Ca2      1.0000 0.27400  0.75000  0.00000  Biso   1.000  Ca
  Ca3      1.0000 0.27400  0.75000  0.50000  Biso   1.000  Ca
  Ca4      1.0000 0.72600  0.25000  0.00000  Biso   1.000  Ca
  O1       1.0000 0.75980  0.09380  0.54760  Biso   1.000  O
  O2       1.0000 0.24020  0.90620  0.04760  Biso   1.000  O
  O3       1.0000 0.75980  0.40620  0.45240  Biso   1.000  O
  O4       1.0000 0.24020  0.59380  0.95240  Biso   1.000  O
  O5       1.0000 0.24020  0.90620  0.45240  Biso   1.000  O
  O6       1.0000 0.75980  0.09380  0.95240  Biso   1.000  O
  O7       1.0000 0.24020  0.59380  0.54760  Biso   1.000  O
  O8       1.0000 0.75980  0.40620  0.04760  Biso   1.000  O
  C1       1.0000 0.78610  0.01620  0.50700  Biso   1.000  C
  C2       1.0000 0.21390  0.98380  0.00700  Biso   1.000  C
  C3       1.0000 0.78610  0.48380  0.49300  Biso   1.000  C
  C4       1.0000 0.21390  0.51620  0.99300  Biso   1.000  C
  C5       1.0000 0.21390  0.98380  0.49300  Biso   1.000  C
  C6       1.0000 0.78610  0.01620  0.99300  Biso   1.000  C
  C7       1.0000 0.21390  0.51620  0.50700  Biso   1.000  C
  C8       1.0000 0.78610  0.48380  0.00700  Biso   1.000  C
  C9       1.0000 0.68550  0.01380  0.45990  Biso   1.000  C
  C10      1.0000 0.31450  0.98620  0.95990  Biso   1.000  C
  C11      1.0000 0.68550  0.48620  0.54010  Biso   1.000  C
  C12      1.0000 0.31450  0.51380  0.04010  Biso   1.000  C
  C13      1.0000 0.31450  0.98620  0.54010  Biso   1.000  C
  C14      1.0000 0.68550  0.01380  0.04010  Biso   1.000  C
  C15      1.0000 0.31450  0.51380  0.45990  Biso   1.000  C
  C16      1.0000 0.68550  0.48620  0.95990  Biso   1.000  C
  O9       1.0000 0.68240  0.10460  0.43410  Biso   1.000  O
  O10      1.0000 0.31760  0.89540  0.93410  Biso   1.000  O
  O11      1.0000 0.68240  0.39540  0.56590  Biso   1.000  O
  O12      1.0000 0.31760  0.60460  0.06590  Biso   1.000  O
  O13      1.0000 0.31760  0.89540  0.56590  Biso   1.000  O
  O14      1.0000 0.68240  0.10460  0.06590  Biso   1.000  O
  O15      1.0000 0.31760  0.60460  0.43410  Biso   1.000  O
  O16      1.0000 0.68240  0.39540  0.93410  Biso   1.000  O
  C17      1.0000 0.59750  0.11190  0.38520  Biso   1.000  C
  C18      1.0000 0.40250  0.88810  0.88520  Biso   1.000  C
  C19      1.0000 0.59750  0.38810  0.61480  Biso   1.000  C
  C20      1.0000 0.40250  0.61190  0.11480  Biso   1.000  C
  C21      1.0000 0.40250  0.88810  0.61480  Biso   1.000  C
  C22      1.0000 0.59750  0.11190  0.11480  Biso   1.000  C
  C23      1.0000 0.40250  0.61190  0.38520  Biso   1.000  C
  C24      1.0000 0.59750  0.38810  0.88520  Biso   1.000  C
  C25      1.0000 0.63770  0.19440  0.35020  Biso   1.000  C
  C26      1.0000 0.36230  0.80560  0.85020  Biso   1.000  C
  C27      1.0000 0.63770  0.30560  0.64980  Biso   1.000  C
  C28      1.0000 0.36230  0.69440  0.14980  Biso   1.000  C
  C29      1.0000 0.36230  0.80560  0.64980  Biso   1.000  C
  C30      1.0000 0.63770  0.19440  0.14980  Biso   1.000  C
  C31      1.0000 0.36230  0.69440  0.35020  Biso   1.000  C
  C32      1.0000 0.63770  0.30560  0.85020  Biso   1.000  C
  O17      1.0000 0.63520  0.27240  0.38980  Biso   1.000  O
  O18      1.0000 0.36480  0.72760  0.88980  Biso   1.000  O
  O19      1.0000 0.63520  0.22760  0.61020  Biso   1.000  O
  O20      1.0000 0.36480  0.77240  0.11020  Biso   1.000  O
  O21      1.0000 0.36480  0.72760  0.61020  Biso   1.000  O
  O22      1.0000 0.63520  0.27240  0.11020  Biso   1.000  O
  O23      1.0000 0.36480  0.77240  0.38980  Biso   1.000  O
  O24      1.0000 0.63520  0.22760  0.88980  Biso   1.000  O
  C33      1.0000 0.67570  0.35470  0.36120  Biso   1.000  C
  C34      1.0000 0.32430  0.64530  0.86120  Biso   1.000  C
  C35      1.0000 0.67570  0.14530  0.63880  Biso   1.000  C
  C36      1.0000 0.32430  0.85470  0.13880  Biso   1.000  C
  C37      1.0000 0.32430  0.64530  0.63880  Biso   1.000  C
  C38      1.0000 0.67570  0.35470  0.13880  Biso   1.000  C
  C39      1.0000 0.32430  0.85470  0.36120  Biso   1.000  C
  C40      1.0000 0.67570  0.14530  0.86120  Biso   1.000  C
  C41      1.0000 0.67920  0.06960  0.59410  Biso   1.000  C
  C42      1.0000 0.32080  0.93040  0.09410  Biso   1.000  C
  C43      1.0000 0.67920  0.43040  0.40590  Biso   1.000  C
  C44      1.0000 0.32080  0.56960  0.90590  Biso   1.000  C
  C45      1.0000 0.32080  0.93040  0.40590  Biso   1.000  C
  C46      1.0000 0.67920  0.06960  0.90590  Biso   1.000  C
  C47      1.0000 0.32080  0.56960  0.59410  Biso   1.000  C
  C48      1.0000 0.67920  0.43040  0.09410  Biso   1.000  C
  O25      1.0000 0.90640  0.28610  0.56180  Biso   1.000  O
  O26      1.0000 0.09360  0.71390  0.06180  Biso   1.000  O
  O27      1.0000 0.90640  0.21390  0.43820  Biso   1.000  O
  O28      1.0000 0.09360  0.78610  0.93820  Biso   1.000  O
  O29      1.0000 0.09360  0.71390  0.43820  Biso   1.000  O
  O30      1.0000 0.90640  0.28610  0.93820  Biso   1.000  O
  O31      1.0000 0.09360  0.78610  0.56180  Biso   1.000  O
  O32      1.0000 0.90640  0.21390  0.06180  Biso   1.000  O
  O33      1.0000 0.50570  0.25000  0.50000  Biso   1.000  O
  O34      1.0000 0.49430  0.75000  0.00000  Biso   1.000  O
  O35      1.0000 0.49430  0.75000  0.50000  Biso   1.000  O
  O36      1.0000 0.50570  0.25000  0.00000  Biso   1.000  O
