data_image0
_cell_length_a       10.969
_cell_length_b       14.708
_cell_length_c       23.02
_cell_angle_alpha    90
_cell_angle_beta     90
_cell_angle_gamma    90

_symmetry_space_group_name_H-M    "P 1"
_symmetry_int_tables_number       1

loop_
  _symmetry_equiv_pos_as_xyz
  'x, y, z'

loop_
  _atom_site_label
  _atom_site_occupancy
  _atom_site_fract_x
  _atom_site_fract_y
  _atom_site_fract_z
  _atom_site_thermal_displace_type
  _atom_site_B_iso_or_equiv
  _atom_site_type_symbol
  I1       1.0000 0.01739  0.50220  0.14969  Biso   1.000  I
  I2       1.0000 0.98261  0.49780  0.64969  Biso   1.000  I
  I3       1.0000 0.01739  0.99780  0.85031  Biso   1.000  I
  I4       1.0000 0.98261  0.00220  0.35031  Biso   1.000  I
  I5       1.0000 0.98261  0.49780  0.85031  Biso   1.000  I
  I6       1.0000 0.01739  0.50220  0.35031  Biso   1.000  I
  I7       1.0000 0.98261  0.00220  0.14969  Biso   1.000  I
  I8       1.0000 0.01739  0.99780  0.64969  Biso   1.000  I
  I9       1.0000 0.35200  0.39912  0.25000  Biso   1.000  I
  I10      1.0000 0.64800  0.60088  0.75000  Biso   1.000  I
  I11      1.0000 0.35200  0.10088  0.75000  Biso   1.000  I
  I12      1.0000 0.64800  0.89912  0.25000  Biso   1.000  I
  I13      1.0000 0.01310  0.75481  0.25000  Biso   1.000  I
  I14      1.0000 0.98690  0.24519  0.75000  Biso   1.000  I
  I15      1.0000 0.01310  0.74519  0.75000  Biso   1.000  I
  I16      1.0000 0.98690  0.25481  0.25000  Biso   1.000  I
  I17      1.0000 0.23257  0.25349  0.09531  Biso   1.000  I
  I18      1.0000 0.76743  0.74651  0.59531  Biso   1.000  I
  I19      1.0000 0.23257  0.24651  0.90469  Biso   1.000  I
  I20      1.0000 0.76743  0.75349  0.40469  Biso   1.000  I
  I21      1.0000 0.76743  0.74651  0.90469  Biso   1.000  I
  I22      1.0000 0.23257  0.25349  0.40469  Biso   1.000  I
  I23      1.0000 0.76743  0.75349  0.09531  Biso   1.000  I
  I24      1.0000 0.23257  0.24651  0.59531  Biso   1.000  I
  I25      1.0000 0.67080  0.57786  0.25000  Biso   1.000  I
  I26      1.0000 0.32920  0.42214  0.75000  Biso   1.000  I
  I27      1.0000 0.67080  0.92214  0.75000  Biso   1.000  I
  I28      1.0000 0.32920  0.07786  0.25000  Biso   1.000  I
  Cu1      1.0000 0.95750  0.56500  0.25000  Biso   1.000  Cu
  Cu2      1.0000 0.04250  0.43500  0.75000  Biso   1.000  Cu
  Cu3      1.0000 0.95750  0.93500  0.75000  Biso   1.000  Cu
  Cu4      1.0000 0.04250  0.06500  0.25000  Biso   1.000  Cu
  Cu5      1.0000 0.15090  0.36460  0.18440  Biso   1.000  Cu
  Cu6      1.0000 0.84910  0.63540  0.68440  Biso   1.000  Cu
  Cu7      1.0000 0.15090  0.13540  0.81560  Biso   1.000  Cu
  Cu8      1.0000 0.84910  0.86460  0.31560  Biso   1.000  Cu
  Cu9      1.0000 0.84910  0.63540  0.81560  Biso   1.000  Cu
  Cu10     1.0000 0.15090  0.36460  0.31560  Biso   1.000  Cu
  Cu11     1.0000 0.84910  0.86460  0.18440  Biso   1.000  Cu
  Cu12     1.0000 0.15090  0.13540  0.68440  Biso   1.000  Cu
  Cu13     1.0000 0.71290  0.73650  0.29300  Biso   1.000  Cu
  Cu14     1.0000 0.28710  0.26350  0.79300  Biso   1.000  Cu
  Cu15     1.0000 0.71290  0.76350  0.70700  Biso   1.000  Cu
  Cu16     1.0000 0.28710  0.23650  0.20700  Biso   1.000  Cu
  Cu17     1.0000 0.28710  0.26350  0.70700  Biso   1.000  Cu
  Cu18     1.0000 0.71290  0.73650  0.20700  Biso   1.000  Cu
  Cu19     1.0000 0.28710  0.23650  0.29300  Biso   1.000  Cu
  Cu20     1.0000 0.71290  0.76350  0.79300  Biso   1.000  Cu
  Cu21     1.0000 0.82750  0.67370  0.30930  Biso   1.000  Cu
  Cu22     1.0000 0.17250  0.32630  0.80930  Biso   1.000  Cu
  Cu23     1.0000 0.82750  0.82630  0.69070  Biso   1.000  Cu
  Cu24     1.0000 0.17250  0.17370  0.19070  Biso   1.000  Cu
  Cu25     1.0000 0.17250  0.32630  0.69070  Biso   1.000  Cu
  Cu26     1.0000 0.82750  0.67370  0.19070  Biso   1.000  Cu
  Cu27     1.0000 0.17250  0.17370  0.30930  Biso   1.000  Cu
  Cu28     1.0000 0.82750  0.82630  0.80930  Biso   1.000  Cu
  Sr1      1.0000 0.73070  0.25000  0.50000  Biso   1.000  Sr
  Sr2      1.0000 0.26930  0.75000  0.00000  Biso   1.000  Sr
  Sr3      1.0000 0.26930  0.75000  0.50000  Biso   1.000  Sr
  Sr4      1.0000 0.73070  0.25000  0.00000  Biso   1.000  Sr
  O1       1.0000 0.75910  0.08530  0.54650  Biso   1.000  O
  O2       1.0000 0.24090  0.91470  0.04650  Biso   1.000  O
  O3       1.0000 0.75910  0.41470  0.45350  Biso   1.000  O
  O4       1.0000 0.24090  0.58530  0.95350  Biso   1.000  O
  O5       1.0000 0.24090  0.91470  0.45350  Biso   1.000  O
  O6       1.0000 0.75910  0.08530  0.95350  Biso   1.000  O
  O7       1.0000 0.24090  0.58530  0.54650  Biso   1.000  O
  O8       1.0000 0.75910  0.41470  0.04650  Biso   1.000  O
  C1       1.0000 0.77000  0.00960  0.50190  Biso   1.000  C
  C2       1.0000 0.23000  0.99040  0.00190  Biso   1.000  C
  C3       1.0000 0.77000  0.49040  0.49810  Biso   1.000  C
  C4       1.0000 0.23000  0.50960  0.99810  Biso   1.000  C
  C5       1.0000 0.23000  0.99040  0.49810  Biso   1.000  C
  C6       1.0000 0.77000  0.00960  0.99810  Biso   1.000  C
  C7       1.0000 0.23000  0.50960  0.50190  Biso   1.000  C
  C8       1.0000 0.77000  0.49040  0.00190  Biso   1.000  C
  C9       1.0000 0.68100  0.01550  0.45810  Biso   1.000  C
  C10      1.0000 0.31900  0.98450  0.95810  Biso   1.000  C
  C11      1.0000 0.68100  0.48450  0.54190  Biso   1.000  C
  C12      1.0000 0.31900  0.51550  0.04190  Biso   1.000  C
  C13      1.0000 0.31900  0.98450  0.54190  Biso   1.000  C
  C14      1.0000 0.68100  0.01550  0.04190  Biso   1.000  C
  C15      1.0000 0.31900  0.51550  0.45810  Biso   1.000  C
  C16      1.0000 0.68100  0.48450  0.95810  Biso   1.000  C
  O9       1.0000 0.68700  0.10530  0.42970  Biso   1.000  O
  O10      1.0000 0.31300  0.89470  0.92970  Biso   1.000  O
  O11      1.0000 0.68700  0.39470  0.57030  Biso   1.000  O
  O12      1.0000 0.31300  0.60530  0.07030  Biso   1.000  O
  O13      1.0000 0.31300  0.89470  0.57030  Biso   1.000  O
  O14      1.0000 0.68700  0.10530  0.07030  Biso   1.000  O
  O15      1.0000 0.31300  0.60530  0.42970  Biso   1.000  O
  O16      1.0000 0.68700  0.39470  0.92970  Biso   1.000  O
  C17      1.0000 0.61200  0.11800  0.38570  Biso   1.000  C
  C18      1.0000 0.38800  0.88200  0.88570  Biso   1.000  C
  C19      1.0000 0.61200  0.38200  0.61430  Biso   1.000  C
  C20      1.0000 0.38800  0.61800  0.11430  Biso   1.000  C
  C21      1.0000 0.38800  0.88200  0.61430  Biso   1.000  C
  C22      1.0000 0.61200  0.11800  0.11430  Biso   1.000  C
  C23      1.0000 0.38800  0.61800  0.38570  Biso   1.000  C
  C24      1.0000 0.61200  0.38200  0.88570  Biso   1.000  C
  C25      1.0000 0.64400  0.20300  0.35030  Biso   1.000  C
  C26      1.0000 0.35600  0.79700  0.85030  Biso   1.000  C
  C27      1.0000 0.64400  0.29700  0.64970  Biso   1.000  C
  C28      1.0000 0.35600  0.70300  0.14970  Biso   1.000  C
  C29      1.0000 0.35600  0.79700  0.64970  Biso   1.000  C
  C30      1.0000 0.64400  0.20300  0.14970  Biso   1.000  C
  C31      1.0000 0.35600  0.70300  0.35030  Biso   1.000  C
  C32      1.0000 0.64400  0.29700  0.85030  Biso   1.000  C
  O17      1.0000 0.64260  0.27440  0.38810  Biso   1.000  O
  O18      1.0000 0.35740  0.72560  0.88810  Biso   1.000  O
  O19      1.0000 0.64260  0.22560  0.61190  Biso   1.000  O
  O20      1.0000 0.35740  0.77440  0.11190  Biso   1.000  O
  O21      1.0000 0.35740  0.72560  0.61190  Biso   1.000  O
  O22      1.0000 0.64260  0.27440  0.11190  Biso   1.000  O
  O23      1.0000 0.35740  0.77440  0.38810  Biso   1.000  O
  O24      1.0000 0.64260  0.22560  0.88810  Biso   1.000  O
  C33      1.0000 0.67700  0.36000  0.35860  Biso   1.000  C
  C34      1.0000 0.32300  0.64000  0.85860  Biso   1.000  C
  C35      1.0000 0.67700  0.14000  0.64140  Biso   1.000  C
  C36      1.0000 0.32300  0.86000  0.14140  Biso   1.000  C
  C37      1.0000 0.32300  0.64000  0.64140  Biso   1.000  C
  C38      1.0000 0.67700  0.36000  0.14140  Biso   1.000  C
  C39      1.0000 0.32300  0.86000  0.35860  Biso   1.000  C
  C40      1.0000 0.67700  0.14000  0.85860  Biso   1.000  C
  C41      1.0000 0.67700  0.06100  0.59200  Biso   1.000  C
  C42      1.0000 0.32300  0.93900  0.09200  Biso   1.000  C
  C43      1.0000 0.67700  0.43900  0.40800  Biso   1.000  C
  C44      1.0000 0.32300  0.56100  0.90800  Biso   1.000  C
  C45      1.0000 0.32300  0.93900  0.40800  Biso   1.000  C
  C46      1.0000 0.67700  0.06100  0.90800  Biso   1.000  C
  C47      1.0000 0.32300  0.56100  0.59200  Biso   1.000  C
  C48      1.0000 0.67700  0.43900  0.09200  Biso   1.000  C
  O25      1.0000 0.91400  0.28970  0.56320  Biso   1.000  O
  O26      1.0000 0.08600  0.71030  0.06320  Biso   1.000  O
  O27      1.0000 0.91400  0.21030  0.43680  Biso   1.000  O
  O28      1.0000 0.08600  0.78970  0.93680  Biso   1.000  O
  O29      1.0000 0.08600  0.71030  0.43680  Biso   1.000  O
  O30      1.0000 0.91400  0.28970  0.93680  Biso   1.000  O
  O31      1.0000 0.08600  0.78970  0.56320  Biso   1.000  O
  O32      1.0000 0.91400  0.21030  0.06320  Biso   1.000  O
  O33      1.0000 0.49000  0.25000  0.50000  Biso   1.000  O
  O34      1.0000 0.51000  0.75000  0.00000  Biso   1.000  O
  O35      1.0000 0.51000  0.75000  0.50000  Biso   1.000  O
  O36      1.0000 0.49000  0.25000  0.00000  Biso   1.000  O
