data_image0
_cell_length_a       3.7512
_cell_length_b       8.412
_cell_length_c       8.9
_cell_angle_alpha    90.43
_cell_angle_beta     94.04
_cell_angle_gamma    92.27

_symmetry_space_group_name_H-M    "P 1"
_symmetry_int_tables_number       1

loop_
  _symmetry_equiv_pos_as_xyz
  'x, y, z'

loop_
  _atom_site_label
  _atom_site_occupancy
  _atom_site_fract_x
  _atom_site_fract_y
  _atom_site_fract_z
  _atom_site_thermal_displace_type
  _atom_site_B_iso_or_equiv
  _atom_site_type_symbol
  Cu1      1.0000 0.93020  0.65150  0.11320  Biso   1.000  Cu
  Cu2      1.0000 0.06980  0.34850  0.88680  Biso   1.000  Cu
  Cl1      1.0000 0.47230  0.77780  0.22610  Biso   1.000  Cl
  Cl2      1.0000 0.52770  0.22220  0.77390  Biso   1.000  Cl
  N1       1.0000 0.92280  0.42600  0.19170  Biso   1.000  N
  N2       1.0000 0.07720  0.57400  0.80830  Biso   1.000  N
  N3       1.0000 0.04400  0.30800  0.10750  Biso   1.000  N
  N4       1.0000 0.95600  0.69200  0.89250  Biso   1.000  N
  C1       1.0000 0.08440  0.16570  0.16810  Biso   1.000  C
  C2       1.0000 0.91560  0.83430  0.83190  Biso   1.000  C
  C3       1.0000 0.01010  0.13020  0.31450  Biso   1.000  C
  C4       1.0000 0.98990  0.86980  0.68550  Biso   1.000  C
  C5       1.0000 0.88510  0.24880  0.39890  Biso   1.000  C
  C6       1.0000 0.11490  0.75120  0.60110  Biso   1.000  C
  C7       1.0000 0.84430  0.39490  0.33180  Biso   1.000  C
  C8       1.0000 0.15570  0.60510  0.66820  Biso   1.000  C
  H1       1.0000 0.16720  0.08540  0.10900  Biso   1.000  H
  H2       1.0000 0.83280  0.91460  0.89100  Biso   1.000  H
  H3       1.0000 0.04420  0.02930  0.35370  Biso   1.000  H
  H4       1.0000 0.95580  0.97070  0.64630  Biso   1.000  H
  H5       1.0000 0.82940  0.23190  0.49780  Biso   1.000  H
  H6       1.0000 0.17060  0.76810  0.50220  Biso   1.000  H
  H7       1.0000 0.75660  0.47640  0.38810  Biso   1.000  H
  H8       1.0000 0.24340  0.52360  0.61190  Biso   1.000  H
