data_image0
_cell_length_a       3.7757
_cell_length_b       8.687
_cell_length_c       11.537
_cell_angle_alpha    106.03
_cell_angle_beta     95.69
_cell_angle_gamma    96.36

_symmetry_space_group_name_H-M    "P 1"
_symmetry_int_tables_number       1

loop_
  _symmetry_equiv_pos_as_xyz
  'x, y, z'

loop_
  _atom_site_label
  _atom_site_occupancy
  _atom_site_fract_x
  _atom_site_fract_y
  _atom_site_fract_z
  _atom_site_thermal_displace_type
  _atom_site_B_iso_or_equiv
  _atom_site_type_symbol
  Cu1      1.0000 0.62360  0.91400  0.60030  Biso   1.000  Cu
  Cu2      1.0000 0.37640  0.08600  0.39970  Biso   1.000  Cu
  Cl1      1.0000 0.10610  0.81990  0.69230  Biso   1.000  Cl
  Cl2      1.0000 0.89390  0.18010  0.30770  Biso   1.000  Cl
  N1       1.0000 0.52340  0.77900  0.42670  Biso   1.000  N
  N2       1.0000 0.47660  0.22100  0.57330  Biso   1.000  N
  N3       1.0000 0.62500  0.15240  0.65460  Biso   1.000  N
  N4       1.0000 0.37500  0.84760  0.34540  Biso   1.000  N
  Cu3      1.0000 0.18550  0.89950  0.90050  Biso   1.000  Cu
  Cu4      1.0000 0.81450  0.10050  0.09950  Biso   1.000  Cu
  C1       1.0000 0.57140  0.62560  0.38900  Biso   1.000  C
  C2       1.0000 0.42860  0.37440  0.61100  Biso   1.000  C
  Cl3      1.0000 0.68950  0.81040  0.98910  Biso   1.000  Cl
  Cl4      1.0000 0.31050  0.18960  0.01090  Biso   1.000  Cl
  C3       1.0000 0.27680  0.75910  0.23130  Biso   1.000  C
  C4       1.0000 0.72320  0.24090  0.76870  Biso   1.000  C
  C5       1.0000 0.46820  0.52820  0.27110  Biso   1.000  C
  C6       1.0000 0.53180  0.47180  0.72890  Biso   1.000  C
  C7       1.0000 0.31620  0.59660  0.18970  Biso   1.000  C
  C8       1.0000 0.68380  0.40340  0.81030  Biso   1.000  C
