data_image0
_cell_length_a       35.352
_cell_length_b       9.2297
_cell_length_c       14.88
_cell_angle_alpha    90
_cell_angle_beta     90.88
_cell_angle_gamma    90

_symmetry_space_group_name_H-M    "P 1"
_symmetry_int_tables_number       1

loop_
  _symmetry_equiv_pos_as_xyz
  'x, y, z'

loop_
  _atom_site_label
  _atom_site_occupancy
  _atom_site_fract_x
  _atom_site_fract_y
  _atom_site_fract_z
  _atom_site_thermal_displace_type
  _atom_site_B_iso_or_equiv
  _atom_site_type_symbol
  C1       1.0000 0.20612  0.90440  0.90750  Biso   1.000  C
  C2       1.0000 0.20612  0.59560  0.40750  Biso   1.000  C
  C3       1.0000 0.79388  0.09560  0.09250  Biso   1.000  C
  C4       1.0000 0.79388  0.40440  0.59250  Biso   1.000  C
  H1       1.0000 0.18310  0.93870  0.92830  Biso   1.000  H
  H2       1.0000 0.18310  0.56130  0.42830  Biso   1.000  H
  H3       1.0000 0.81690  0.06130  0.07170  Biso   1.000  H
  H4       1.0000 0.81690  0.43870  0.57170  Biso   1.000  H
  C5       1.0000 0.21290  0.75590  0.90940  Biso   1.000  C
  C6       1.0000 0.21290  0.74410  0.40940  Biso   1.000  C
  C7       1.0000 0.78710  0.24410  0.09060  Biso   1.000  C
  C8       1.0000 0.78710  0.25590  0.59060  Biso   1.000  C
  H5       1.0000 0.19450  0.69290  0.93060  Biso   1.000  H
  H6       1.0000 0.19450  0.80710  0.43060  Biso   1.000  H
  H7       1.0000 0.80550  0.30710  0.06940  Biso   1.000  H
  H8       1.0000 0.80550  0.19290  0.56940  Biso   1.000  H
  C9       1.0000 0.24619  0.70360  0.88050  Biso   1.000  C
  C10      1.0000 0.24619  0.79640  0.38050  Biso   1.000  C
  C11      1.0000 0.75381  0.29640  0.11950  Biso   1.000  C
  C12      1.0000 0.75381  0.20360  0.61950  Biso   1.000  C
  H9       1.0000 0.25080  0.60440  0.88200  Biso   1.000  H
  H10      1.0000 0.25080  0.89560  0.38200  Biso   1.000  H
  H11      1.0000 0.74920  0.39560  0.11800  Biso   1.000  H
  H12      1.0000 0.74920  0.10440  0.61800  Biso   1.000  H
  C13      1.0000 0.27400  0.79910  0.84790  Biso   1.000  C
  C14      1.0000 0.27400  0.70090  0.34790  Biso   1.000  C
  C15      1.0000 0.72600  0.20090  0.15210  Biso   1.000  C
  C16      1.0000 0.72600  0.29910  0.65210  Biso   1.000  C
  C17      1.0000 0.30978  0.75560  0.81510  Biso   1.000  C
  C18      1.0000 0.30978  0.74440  0.31510  Biso   1.000  C
  C19      1.0000 0.69022  0.24440  0.18490  Biso   1.000  C
  C20      1.0000 0.69022  0.25560  0.68490  Biso   1.000  C
  H13      1.0000 0.31650  0.65820  0.81740  Biso   1.000  H
  H14      1.0000 0.31650  0.84180  0.31740  Biso   1.000  H
  H15      1.0000 0.68350  0.34180  0.18260  Biso   1.000  H
  H16      1.0000 0.68350  0.15820  0.68260  Biso   1.000  H
  C21      1.0000 0.33402  0.85180  0.78100  Biso   1.000  C
  C22      1.0000 0.33402  0.64820  0.28100  Biso   1.000  C
  C23      1.0000 0.66598  0.14820  0.21900  Biso   1.000  C
  C24      1.0000 0.66598  0.35180  0.71900  Biso   1.000  C
  H17      1.0000 0.35720  0.81980  0.75980  Biso   1.000  H
  H18      1.0000 0.35720  0.68020  0.25980  Biso   1.000  H
  H19      1.0000 0.64280  0.18020  0.24020  Biso   1.000  H
  H20      1.0000 0.64280  0.31980  0.74020  Biso   1.000  H
  C25      1.0000 0.32499  0.00400  0.77640  Biso   1.000  C
  C26      1.0000 0.32499  0.49600  0.27640  Biso   1.000  C
  C27      1.0000 0.67501  0.99600  0.22360  Biso   1.000  C
  C28      1.0000 0.67501  0.50400  0.72360  Biso   1.000  C
  C29      1.0000 0.34887  0.10650  0.73850  Biso   1.000  C
  C30      1.0000 0.34887  0.39350  0.23850  Biso   1.000  C
  C31      1.0000 0.65113  0.89350  0.26150  Biso   1.000  C
  C32      1.0000 0.65113  0.60650  0.76150  Biso   1.000  C
  H21      1.0000 0.37190  0.07900  0.71430  Biso   1.000  H
  H22      1.0000 0.37190  0.42100  0.21430  Biso   1.000  H
  H23      1.0000 0.62810  0.92100  0.28570  Biso   1.000  H
  H24      1.0000 0.62810  0.57900  0.78570  Biso   1.000  H
  C33      1.0000 0.33779  0.24770  0.73750  Biso   1.000  C
  C34      1.0000 0.33779  0.25230  0.23750  Biso   1.000  C
  C35      1.0000 0.66221  0.75230  0.26250  Biso   1.000  C
  C36      1.0000 0.66221  0.74770  0.76250  Biso   1.000  C
  H25      1.0000 0.35320  0.31780  0.71210  Biso   1.000  H
  H26      1.0000 0.35320  0.18220  0.21210  Biso   1.000  H
  H27      1.0000 0.64680  0.68220  0.28790  Biso   1.000  H
  H28      1.0000 0.64680  0.81780  0.78790  Biso   1.000  H
  C37      1.0000 0.30348  0.28740  0.77440  Biso   1.000  C
  C38      1.0000 0.30348  0.21260  0.27440  Biso   1.000  C
  C39      1.0000 0.69652  0.71260  0.22560  Biso   1.000  C
  C40      1.0000 0.69652  0.78740  0.72560  Biso   1.000  C
  H29      1.0000 0.29680  0.38480  0.77410  Biso   1.000  H
  H30      1.0000 0.29680  0.11520  0.27410  Biso   1.000  H
  H31      1.0000 0.70320  0.61520  0.22590  Biso   1.000  H
  H32      1.0000 0.70320  0.88480  0.72590  Biso   1.000  H
  C41      1.0000 0.29053  0.05060  0.81080  Biso   1.000  C
  C42      1.0000 0.29053  0.44940  0.31080  Biso   1.000  C
  C43      1.0000 0.70947  0.94940  0.18920  Biso   1.000  C
  C44      1.0000 0.70947  0.55060  0.68920  Biso   1.000  C
  C45      1.0000 0.26462  0.94690  0.84650  Biso   1.000  C
  C46      1.0000 0.26462  0.55310  0.34650  Biso   1.000  C
  C47      1.0000 0.73538  0.05310  0.15350  Biso   1.000  C
  C48      1.0000 0.73538  0.44690  0.65350  Biso   1.000  C
  C49      1.0000 0.42764  0.19880  0.08330  Biso   1.000  C
  C50      1.0000 0.42764  0.30120  0.58330  Biso   1.000  C
  C51      1.0000 0.57236  0.80120  0.91670  Biso   1.000  C
  C52      1.0000 0.57236  0.69880  0.41670  Biso   1.000  C
  H33      1.0000 0.40140  0.20410  0.07950  Biso   1.000  H
  H34      1.0000 0.40140  0.29590  0.57950  Biso   1.000  H
  H35      1.0000 0.59860  0.79590  0.92050  Biso   1.000  H
  H36      1.0000 0.59860  0.70410  0.42050  Biso   1.000  H
  C53      1.0000 0.44858  0.32430  0.06710  Biso   1.000  C
  C54      1.0000 0.44858  0.17570  0.56710  Biso   1.000  C
  C55      1.0000 0.55142  0.67570  0.93290  Biso   1.000  C
  C56      1.0000 0.55142  0.82430  0.43290  Biso   1.000  C
  H37      1.0000 0.43640  0.41120  0.05370  Biso   1.000  H
  H38      1.0000 0.43640  0.08880  0.55370  Biso   1.000  H
  H39      1.0000 0.56360  0.58880  0.94630  Biso   1.000  H
  H40      1.0000 0.56360  0.91120  0.44630  Biso   1.000  H
  C57      1.0000 0.48660  0.31730  0.07120  Biso   1.000  C
  C58      1.0000 0.48660  0.18270  0.57120  Biso   1.000  C
  C59      1.0000 0.51340  0.68270  0.92880  Biso   1.000  C
  C60      1.0000 0.51340  0.81730  0.42880  Biso   1.000  C
  H41      1.0000 0.50070  0.40050  0.06070  Biso   1.000  H
  H42      1.0000 0.50070  0.09950  0.56070  Biso   1.000  H
  H43      1.0000 0.49930  0.59950  0.93930  Biso   1.000  H
  H44      1.0000 0.49930  0.90050  0.43930  Biso   1.000  H
  C61      1.0000 0.50531  0.18760  0.09090  Biso   1.000  C
  C62      1.0000 0.50531  0.31240  0.59090  Biso   1.000  C
  C63      1.0000 0.49469  0.81240  0.90910  Biso   1.000  C
  C64      1.0000 0.49469  0.68760  0.40910  Biso   1.000  C
  C65      1.0000 0.54515  0.16900  0.09560  Biso   1.000  C
  C66      1.0000 0.54515  0.33100  0.59560  Biso   1.000  C
  C67      1.0000 0.45485  0.83100  0.90440  Biso   1.000  C
  C68      1.0000 0.45485  0.66900  0.40440  Biso   1.000  C
  H45      1.0000 0.56080  0.24820  0.08530  Biso   1.000  H
  H46      1.0000 0.56080  0.25180  0.58530  Biso   1.000  H
  H47      1.0000 0.43920  0.75180  0.91470  Biso   1.000  H
  H48      1.0000 0.43920  0.74820  0.41470  Biso   1.000  H
  C69      1.0000 0.56091  0.03930  0.11460  Biso   1.000  C
  C70      1.0000 0.56091  0.46070  0.61460  Biso   1.000  C
  C71      1.0000 0.43909  0.96070  0.88540  Biso   1.000  C
  C72      1.0000 0.43909  0.53930  0.38540  Biso   1.000  C
  H49      1.0000 0.58710  0.02990  0.11370  Biso   1.000  H
  H50      1.0000 0.58710  0.47010  0.61370  Biso   1.000  H
  H51      1.0000 0.41290  0.97010  0.88630  Biso   1.000  H
  H52      1.0000 0.41290  0.52990  0.38630  Biso   1.000  H
  C73      1.0000 0.53828  0.91530  0.13640  Biso   1.000  C
  C74      1.0000 0.53828  0.58470  0.63640  Biso   1.000  C
  C75      1.0000 0.46172  0.08470  0.86360  Biso   1.000  C
  C76      1.0000 0.46172  0.41530  0.36360  Biso   1.000  C
  C77      1.0000 0.55315  0.77950  0.15880  Biso   1.000  C
  C78      1.0000 0.55315  0.72050  0.65880  Biso   1.000  C
  C79      1.0000 0.44685  0.22050  0.84120  Biso   1.000  C
  C80      1.0000 0.44685  0.27950  0.34120  Biso   1.000  C
  H53      1.0000 0.57920  0.76430  0.16000  Biso   1.000  H
  H54      1.0000 0.57920  0.73570  0.66000  Biso   1.000  H
  H55      1.0000 0.42080  0.23570  0.84000  Biso   1.000  H
  H56      1.0000 0.42080  0.26430  0.34000  Biso   1.000  H
  C81      1.0000 0.52905  0.67000  0.17880  Biso   1.000  C
  C82      1.0000 0.52905  0.83000  0.67880  Biso   1.000  C
  C83      1.0000 0.47095  0.33000  0.82120  Biso   1.000  C
  C84      1.0000 0.47095  0.17000  0.32120  Biso   1.000  C
  H57      1.0000 0.53840  0.57860  0.19290  Biso   1.000  H
  H58      1.0000 0.53840  0.92140  0.69290  Biso   1.000  H
  H59      1.0000 0.46160  0.42140  0.80710  Biso   1.000  H
  H60      1.0000 0.46160  0.07860  0.30710  Biso   1.000  H
  C85      1.0000 0.49024  0.69510  0.17810  Biso   1.000  C
  C86      1.0000 0.49024  0.80490  0.67810  Biso   1.000  C
  C87      1.0000 0.50976  0.30490  0.82190  Biso   1.000  C
  C88      1.0000 0.50976  0.19510  0.32190  Biso   1.000  C
  H61      1.0000 0.47420  0.61930  0.19310  Biso   1.000  H
  H62      1.0000 0.47420  0.88070  0.69310  Biso   1.000  H
  H63      1.0000 0.52580  0.38070  0.80690  Biso   1.000  H
  H64      1.0000 0.52580  0.11930  0.30690  Biso   1.000  H
  C89      1.0000 0.49912  0.93070  0.13450  Biso   1.000  C
  C90      1.0000 0.49912  0.56930  0.63450  Biso   1.000  C
  C91      1.0000 0.50088  0.06930  0.86550  Biso   1.000  C
  C92      1.0000 0.50088  0.43070  0.36550  Biso   1.000  C
  C93      1.0000 0.48168  0.06780  0.10890  Biso   1.000  C
  C94      1.0000 0.48168  0.43220  0.60890  Biso   1.000  C
  C95      1.0000 0.51832  0.93220  0.89110  Biso   1.000  C
  C96      1.0000 0.51832  0.56780  0.39110  Biso   1.000  C
  C97      1.0000 0.07843  0.25120  0.88670  Biso   1.000  C
  C98      1.0000 0.07843  0.24880  0.38670  Biso   1.000  C
  C99      1.0000 0.92157  0.74880  0.11330  Biso   1.000  C
  C100     1.0000 0.92157  0.75120  0.61330  Biso   1.000  C
  H65      1.0000 0.10460  0.25860  0.88180  Biso   1.000  H
  H66      1.0000 0.10460  0.24140  0.38180  Biso   1.000  H
  H67      1.0000 0.89540  0.74140  0.11820  Biso   1.000  H
  H68      1.0000 0.89540  0.75860  0.61820  Biso   1.000  H
  C101     1.0000 0.05710  0.37620  0.90560  Biso   1.000  C
  C102     1.0000 0.05710  0.12380  0.40560  Biso   1.000  C
  C103     1.0000 0.94290  0.62380  0.09440  Biso   1.000  C
  C104     1.0000 0.94290  0.87620  0.59440  Biso   1.000  C
  H69      1.0000 0.06920  0.46560  0.90970  Biso   1.000  H
  H70      1.0000 0.06920  0.03440  0.40970  Biso   1.000  H
  H71      1.0000 0.93080  0.53440  0.09030  Biso   1.000  H
  H72      1.0000 0.93080  0.96560  0.59030  Biso   1.000  H
  C105     1.0000 0.02010  0.36830  0.91760  Biso   1.000  C
  C106     1.0000 0.02010  0.13170  0.41760  Biso   1.000  C
  C107     1.0000 0.97990  0.63170  0.08240  Biso   1.000  C
  C108     1.0000 0.97990  0.86830  0.58240  Biso   1.000  C
  H73      1.0000 0.00660  0.45150  0.93210  Biso   1.000  H
  H74      1.0000 0.00660  0.04850  0.43210  Biso   1.000  H
  H75      1.0000 0.99340  0.54850  0.06790  Biso   1.000  H
  H76      1.0000 0.99340  0.95150  0.56790  Biso   1.000  H
  C109     1.0000 0.00090  0.23540  0.90860  Biso   1.000  C
  C110     1.0000 0.00090  0.26460  0.40860  Biso   1.000  C
  C111     1.0000 0.99910  0.76460  0.09140  Biso   1.000  C
  C112     1.0000 0.99910  0.73540  0.59140  Biso   1.000  C
  C113     1.0000 0.96107  0.21680  0.92170  Biso   1.000  C
  C114     1.0000 0.96107  0.28320  0.42170  Biso   1.000  C
  C115     1.0000 0.03893  0.78320  0.07830  Biso   1.000  C
  C116     1.0000 0.03893  0.71680  0.57830  Biso   1.000  C
  H77      1.0000 0.94620  0.29580  0.93730  Biso   1.000  H
  H78      1.0000 0.94620  0.20420  0.43730  Biso   1.000  H
  H79      1.0000 0.05380  0.70420  0.06270  Biso   1.000  H
  H80      1.0000 0.05380  0.79580  0.56270  Biso   1.000  H
  C117     1.0000 0.94539  0.08690  0.91170  Biso   1.000  C
  C118     1.0000 0.94539  0.41310  0.41170  Biso   1.000  C
  C119     1.0000 0.05461  0.91310  0.08830  Biso   1.000  C
  C120     1.0000 0.05461  0.58690  0.58830  Biso   1.000  C
  H81      1.0000 0.91980  0.07620  0.92350  Biso   1.000  H
  H82      1.0000 0.91980  0.42380  0.42350  Biso   1.000  H
  H83      1.0000 0.08020  0.92380  0.07650  Biso   1.000  H
  H84      1.0000 0.08020  0.57620  0.57650  Biso   1.000  H
  C121     1.0000 0.96624  0.96360  0.88350  Biso   1.000  C
  C122     1.0000 0.96624  0.53640  0.38350  Biso   1.000  C
  C123     1.0000 0.03376  0.03640  0.11650  Biso   1.000  C
  C124     1.0000 0.03376  0.46360  0.61650  Biso   1.000  C
  C125     1.0000 0.95030  0.82530  0.86650  Biso   1.000  C
  C126     1.0000 0.95030  0.67470  0.36650  Biso   1.000  C
  C127     1.0000 0.04970  0.17470  0.13350  Biso   1.000  C
  C128     1.0000 0.04970  0.32530  0.63350  Biso   1.000  C
  H85      1.0000 0.92470  0.80960  0.87600  Biso   1.000  H
  H86      1.0000 0.92470  0.69040  0.37600  Biso   1.000  H
  H87      1.0000 0.07530  0.19040  0.12400  Biso   1.000  H
  H88      1.0000 0.07530  0.30960  0.62400  Biso   1.000  H
  C129     1.0000 0.97232  0.71590  0.83660  Biso   1.000  C
  C130     1.0000 0.97232  0.78410  0.33660  Biso   1.000  C
  C131     1.0000 0.02768  0.28410  0.16340  Biso   1.000  C
  C132     1.0000 0.02768  0.21590  0.66340  Biso   1.000  C
  H89      1.0000 0.96210  0.62440  0.82630  Biso   1.000  H
  H90      1.0000 0.96210  0.87560  0.32630  Biso   1.000  H
  H91      1.0000 0.03790  0.37560  0.17370  Biso   1.000  H
  H92      1.0000 0.03790  0.12440  0.67370  Biso   1.000  H
  C133     1.0000 0.01041  0.74270  0.82130  Biso   1.000  C
  C134     1.0000 0.01041  0.75730  0.32130  Biso   1.000  C
  C135     1.0000 0.98959  0.25730  0.17870  Biso   1.000  C
  C136     1.0000 0.98959  0.24270  0.67870  Biso   1.000  C
  H93      1.0000 0.02530  0.66720  0.80020  Biso   1.000  H
  H94      1.0000 0.02530  0.83280  0.30020  Biso   1.000  H
  H95      1.0000 0.97470  0.33280  0.19980  Biso   1.000  H
  H96      1.0000 0.97470  0.16720  0.69980  Biso   1.000  H
  C137     1.0000 0.00496  0.97970  0.86770  Biso   1.000  C
  C138     1.0000 0.00496  0.52030  0.36770  Biso   1.000  C
  C139     1.0000 0.99504  0.02030  0.13230  Biso   1.000  C
  C140     1.0000 0.99504  0.47970  0.63230  Biso   1.000  C
  C141     1.0000 0.02377  0.11690  0.88450  Biso   1.000  C
  C142     1.0000 0.02377  0.38310  0.38450  Biso   1.000  C
  C143     1.0000 0.97623  0.88310  0.11550  Biso   1.000  C
  C144     1.0000 0.97623  0.61690  0.61550  Biso   1.000  C
  C145     1.0000 0.19608  0.22900  0.15750  Biso   1.000  C
  C146     1.0000 0.19608  0.27100  0.65750  Biso   1.000  C
  C147     1.0000 0.80392  0.77100  0.84250  Biso   1.000  C
  C148     1.0000 0.80392  0.72900  0.34250  Biso   1.000  C
  H97      1.0000 0.20120  0.32560  0.14470  Biso   1.000  H
  H98      1.0000 0.20120  0.17440  0.64470  Biso   1.000  H
  H99      1.0000 0.79880  0.67440  0.85530  Biso   1.000  H
  H100     1.0000 0.79880  0.82560  0.35530  Biso   1.000  H
  C149     1.0000 0.16263  0.19810  0.19970  Biso   1.000  C
  C150     1.0000 0.16263  0.30190  0.69970  Biso   1.000  C
  C151     1.0000 0.83737  0.80190  0.80030  Biso   1.000  C
  C152     1.0000 0.83737  0.69810  0.30030  Biso   1.000  C
  H101     1.0000 0.14650  0.27230  0.21680  Biso   1.000  H
  H102     1.0000 0.14650  0.22770  0.71680  Biso   1.000  H
  H103     1.0000 0.85350  0.72770  0.78320  Biso   1.000  H
  H104     1.0000 0.85350  0.77230  0.28320  Biso   1.000  H
  C153     1.0000 0.15369  0.05820  0.21590  Biso   1.000  C
  C154     1.0000 0.15369  0.44180  0.71590  Biso   1.000  C
  C155     1.0000 0.84631  0.94180  0.78410  Biso   1.000  C
  C156     1.0000 0.84631  0.55820  0.28410  Biso   1.000  C
  H105     1.0000 0.13130  0.03540  0.24460  Biso   1.000  H
  H106     1.0000 0.13130  0.46460  0.74460  Biso   1.000  H
  H107     1.0000 0.86870  0.96460  0.75540  Biso   1.000  H
  H108     1.0000 0.86870  0.53540  0.25540  Biso   1.000  H
  C157     1.0000 0.17812  0.94790  0.18940  Biso   1.000  C
  C158     1.0000 0.17812  0.55210  0.68940  Biso   1.000  C
  C159     1.0000 0.82188  0.05210  0.81060  Biso   1.000  C
  C160     1.0000 0.82188  0.44790  0.31060  Biso   1.000  C
  C161     1.0000 0.17003  0.79760  0.20070  Biso   1.000  C
  C162     1.0000 0.17003  0.70240  0.70070  Biso   1.000  C
  C163     1.0000 0.82997  0.20240  0.79930  Biso   1.000  C
  C164     1.0000 0.82997  0.29760  0.29930  Biso   1.000  C
  H109     1.0000 0.14720  0.76920  0.22540  Biso   1.000  H
  H110     1.0000 0.14720  0.73080  0.72540  Biso   1.000  H
  H111     1.0000 0.85280  0.23080  0.77460  Biso   1.000  H
  H112     1.0000 0.85280  0.26920  0.27460  Biso   1.000  H
  C165     1.0000 0.19529  0.69660  0.17570  Biso   1.000  C
  C166     1.0000 0.19529  0.80340  0.67570  Biso   1.000  C
  C167     1.0000 0.80471  0.30340  0.82430  Biso   1.000  C
  C168     1.0000 0.80471  0.19660  0.32430  Biso   1.000  C
  H113     1.0000 0.18930  0.59920  0.18270  Biso   1.000  H
  H114     1.0000 0.18930  0.90080  0.68270  Biso   1.000  H
  H115     1.0000 0.81070  0.40080  0.81730  Biso   1.000  H
  H116     1.0000 0.81070  0.09920  0.31730  Biso   1.000  H
  C169     1.0000 0.23111  0.73460  0.13870  Biso   1.000  C
  C170     1.0000 0.23111  0.76540  0.63870  Biso   1.000  C
  C171     1.0000 0.76889  0.26540  0.86130  Biso   1.000  C
  C172     1.0000 0.76889  0.23460  0.36130  Biso   1.000  C
  C173     1.0000 0.25828  0.63410  0.11320  Biso   1.000  C
  C174     1.0000 0.25828  0.86590  0.61320  Biso   1.000  C
  C175     1.0000 0.74172  0.36590  0.88680  Biso   1.000  C
  C176     1.0000 0.74172  0.13410  0.38680  Biso   1.000  C
  H117     1.0000 0.25350  0.53550  0.11950  Biso   1.000  H
  H118     1.0000 0.25350  0.96450  0.61950  Biso   1.000  H
  H119     1.0000 0.74650  0.46450  0.88050  Biso   1.000  H
  H120     1.0000 0.74650  0.03550  0.38050  Biso   1.000  H
  C177     1.0000 0.29161  0.67930  0.07930  Biso   1.000  C
  C178     1.0000 0.29161  0.82070  0.57930  Biso   1.000  C
  C179     1.0000 0.70839  0.32070  0.92070  Biso   1.000  C
  C180     1.0000 0.70839  0.17930  0.42070  Biso   1.000  C
  H121     1.0000 0.31010  0.61270  0.06330  Biso   1.000  H
  H122     1.0000 0.31010  0.88730  0.56330  Biso   1.000  H
  H123     1.0000 0.68990  0.38730  0.93670  Biso   1.000  H
  H124     1.0000 0.68990  0.11270  0.43670  Biso   1.000  H
  C181     1.0000 0.29779  0.82790  0.06880  Biso   1.000  C
  C182     1.0000 0.29779  0.67210  0.56880  Biso   1.000  C
  C183     1.0000 0.70221  0.17210  0.93120  Biso   1.000  C
  C184     1.0000 0.70221  0.32790  0.43120  Biso   1.000  C
  H125     1.0000 0.32070  0.85840  0.04550  Biso   1.000  H
  H126     1.0000 0.32070  0.64160  0.54550  Biso   1.000  H
  H127     1.0000 0.67930  0.14160  0.95450  Biso   1.000  H
  H128     1.0000 0.67930  0.35840  0.45450  Biso   1.000  H
  C185     1.0000 0.23963  0.88190  0.12560  Biso   1.000  C
  C186     1.0000 0.23963  0.61810  0.62560  Biso   1.000  C
  C187     1.0000 0.76037  0.11810  0.87440  Biso   1.000  C
  C188     1.0000 0.76037  0.38190  0.37440  Biso   1.000  C
  C189     1.0000 0.21241  0.99010  0.15030  Biso   1.000  C
  C190     1.0000 0.21241  0.50990  0.65030  Biso   1.000  C
  C191     1.0000 0.78759  0.00990  0.84970  Biso   1.000  C
  C192     1.0000 0.78759  0.49010  0.34970  Biso   1.000  C
  C193     1.0000 0.10930  0.78850  0.90220  Biso   1.000  C
  C194     1.0000 0.10930  0.71150  0.40220  Biso   1.000  C
  C195     1.0000 0.89070  0.21150  0.09780  Biso   1.000  C
  C196     1.0000 0.89070  0.28850  0.59780  Biso   1.000  C
  C197     1.0000 0.38562  0.52400  0.83390  Biso   1.000  C
  C198     1.0000 0.38562  0.97600  0.33390  Biso   1.000  C
  C199     1.0000 0.61438  0.47600  0.16610  Biso   1.000  C
  C200     1.0000 0.61438  0.02400  0.66610  Biso   1.000  C
  C201     1.0000 0.19689  0.34690  0.93120  Biso   1.000  C
  C202     1.0000 0.19689  0.15310  0.43120  Biso   1.000  C
  C203     1.0000 0.80311  0.65310  0.06880  Biso   1.000  C
  C204     1.0000 0.80311  0.84690  0.56880  Biso   1.000  C
  C205     1.0000 0.39479  0.73060  0.07780  Biso   1.000  C
  C206     1.0000 0.39479  0.76940  0.57780  Biso   1.000  C
  C207     1.0000 0.60521  0.26940  0.92220  Biso   1.000  C
  C208     1.0000 0.60521  0.23060  0.42220  Biso   1.000  C
  C209     1.0000 0.11273  0.51380  0.13360  Biso   1.000  C
  C210     1.0000 0.11273  0.98620  0.63360  Biso   1.000  C
  C211     1.0000 0.88727  0.48620  0.86640  Biso   1.000  C
  C212     1.0000 0.88727  0.01380  0.36640  Biso   1.000  C
  C213     1.0000 0.30671  0.27650  0.02050  Biso   1.000  C
  C214     1.0000 0.30671  0.22350  0.52050  Biso   1.000  C
  C215     1.0000 0.69329  0.72350  0.97950  Biso   1.000  C
  C216     1.0000 0.69329  0.77650  0.47950  Biso   1.000  C
  N1       1.0000 0.23133  0.99980  0.87708  Biso   1.000  N
  N2       1.0000 0.23133  0.50020  0.37708  Biso   1.000  N
  N3       1.0000 0.76867  0.00020  0.12292  Biso   1.000  N
  N4       1.0000 0.76867  0.49980  0.62292  Biso   1.000  N
  N5       1.0000 0.27951  0.19160  0.81040  Biso   1.000  N
  N6       1.0000 0.27951  0.30840  0.31040  Biso   1.000  N
  N7       1.0000 0.72049  0.80840  0.18960  Biso   1.000  N
  N8       1.0000 0.72049  0.69160  0.68960  Biso   1.000  N
  N9       1.0000 0.47512  0.82230  0.15705  Biso   1.000  N
  N10      1.0000 0.47512  0.67770  0.65705  Biso   1.000  N
  N11      1.0000 0.52488  0.17770  0.84295  Biso   1.000  N
  N12      1.0000 0.52488  0.32230  0.34295  Biso   1.000  N
  N13      1.0000 0.44357  0.07170  0.10411  Biso   1.000  N
  N14      1.0000 0.44357  0.42830  0.60411  Biso   1.000  N
  N15      1.0000 0.55643  0.92830  0.89589  Biso   1.000  N
  N16      1.0000 0.55643  0.57170  0.39589  Biso   1.000  N
  N17      1.0000 0.02661  0.87050  0.83544  Biso   1.000  N
  N18      1.0000 0.02661  0.62950  0.33544  Biso   1.000  N
  N19      1.0000 0.97339  0.12950  0.16456  Biso   1.000  N
  N20      1.0000 0.97339  0.37050  0.66456  Biso   1.000  N
  N21      1.0000 0.06180  0.12140  0.87561  Biso   1.000  N
  N22      1.0000 0.06180  0.37860  0.37561  Biso   1.000  N
  N23      1.0000 0.93820  0.87860  0.12439  Biso   1.000  N
  N24      1.0000 0.93820  0.62140  0.62439  Biso   1.000  N
  N25      1.0000 0.27235  0.92770  0.09045  Biso   1.000  N
  N26      1.0000 0.27235  0.57230  0.59045  Biso   1.000  N
  N27      1.0000 0.72765  0.07230  0.90955  Biso   1.000  N
  N28      1.0000 0.72765  0.42770  0.40955  Biso   1.000  N
  N29      1.0000 0.22176  0.13050  0.13356  Biso   1.000  N
  N30      1.0000 0.22176  0.36950  0.63356  Biso   1.000  N
  N31      1.0000 0.77824  0.86950  0.86644  Biso   1.000  N
  N32      1.0000 0.77824  0.63050  0.36644  Biso   1.000  N
  N33      1.0000 0.12031  0.69240  0.94490  Biso   1.000  N
  N34      1.0000 0.12031  0.80760  0.44490  Biso   1.000  N
  N35      1.0000 0.87969  0.30760  0.05510  Biso   1.000  N
  N36      1.0000 0.87969  0.19240  0.55510  Biso   1.000  N
  N37      1.0000 0.10080  0.52650  0.20530  Biso   1.000  N
  N38      1.0000 0.10080  0.97350  0.70530  Biso   1.000  N
  N39      1.0000 0.89920  0.47350  0.79470  Biso   1.000  N
  N40      1.0000 0.89920  0.02650  0.29470  Biso   1.000  N
  N41      1.0000 0.17445  0.41530  0.96680  Biso   1.000  N
  N42      1.0000 0.17445  0.08470  0.46680  Biso   1.000  N
  N43      1.0000 0.82555  0.58470  0.03320  Biso   1.000  N
  N44      1.0000 0.82555  0.91530  0.53320  Biso   1.000  N
  N45      1.0000 0.39746  0.56000  0.76590  Biso   1.000  N
  N46      1.0000 0.39746  0.94000  0.26590  Biso   1.000  N
  N47      1.0000 0.60254  0.44000  0.23410  Biso   1.000  N
  N48      1.0000 0.60254  0.06000  0.73410  Biso   1.000  N
  N49      1.0000 0.38402  0.63100  0.03790  Biso   1.000  N
  N50      1.0000 0.38402  0.86900  0.53790  Biso   1.000  N
  N51      1.0000 0.61598  0.36900  0.96210  Biso   1.000  N
  N52      1.0000 0.61598  0.13100  0.46210  Biso   1.000  N
  N53      1.0000 0.32929  0.35130  0.99230  Biso   1.000  N
  N54      1.0000 0.32929  0.14870  0.49230  Biso   1.000  N
  N55      1.0000 0.67071  0.64870  0.00770  Biso   1.000  N
  N56      1.0000 0.67071  0.85130  0.50770  Biso   1.000  N
  Cu1      1.0000 0.08472  0.92661  0.82719  Biso   1.000  Cu
  Cu2      1.0000 0.08472  0.57339  0.32719  Biso   1.000  Cu
  Cu3      1.0000 0.91528  0.07339  0.17281  Biso   1.000  Cu
  Cu4      1.0000 0.91528  0.42661  0.67281  Biso   1.000  Cu
  Cu5      1.0000 0.13557  0.52994  0.02167  Biso   1.000  Cu
  Cu6      1.0000 0.13557  0.97006  0.52167  Biso   1.000  Cu
  Cu7      1.0000 0.86443  0.47006  0.97833  Biso   1.000  Cu
  Cu8      1.0000 0.86443  0.02994  0.47833  Biso   1.000  Cu
  Cu9      1.0000 0.23155  0.22405  0.87923  Biso   1.000  Cu
  Cu10     1.0000 0.23155  0.27595  0.37923  Biso   1.000  Cu
  Cu11     1.0000 0.76845  0.77595  0.12077  Biso   1.000  Cu
  Cu12     1.0000 0.76845  0.72405  0.62077  Biso   1.000  Cu
  Cu13     1.0000 0.41728  0.87635  0.14999  Biso   1.000  Cu
  Cu14     1.0000 0.41728  0.62365  0.64999  Biso   1.000  Cu
  Cu15     1.0000 0.58272  0.12365  0.85001  Biso   1.000  Cu
  Cu16     1.0000 0.58272  0.37635  0.35001  Biso   1.000  Cu
  Cu17     1.0000 0.36566  0.48823  0.94841  Biso   1.000  Cu
  Cu18     1.0000 0.36566  0.01177  0.44841  Biso   1.000  Cu
  Cu19     1.0000 0.63434  0.51177  0.05159  Biso   1.000  Cu
  Cu20     1.0000 0.63434  0.98823  0.55159  Biso   1.000  Cu
  Cu21     1.0000 0.27135  0.15239  0.06986  Biso   1.000  Cu
  Cu22     1.0000 0.27135  0.34761  0.56986  Biso   1.000  Cu
  Cu23     1.0000 0.72865  0.84761  0.93014  Biso   1.000  Cu
  Cu24     1.0000 0.72865  0.65239  0.43014  Biso   1.000  Cu
