data_image0
_cell_length_a       35.528
_cell_length_b       9.2692
_cell_length_c       14.9734
_cell_angle_alpha    90
_cell_angle_beta     90.203
_cell_angle_gamma    90

_symmetry_space_group_name_H-M    "P 1"
_symmetry_int_tables_number       1

loop_
  _symmetry_equiv_pos_as_xyz
  'x, y, z'

loop_
  _atom_site_label
  _atom_site_occupancy
  _atom_site_fract_x
  _atom_site_fract_y
  _atom_site_fract_z
  _atom_site_thermal_displace_type
  _atom_site_B_iso_or_equiv
  _atom_site_type_symbol
  Cu1      1.0000 0.08253  0.87550  0.34773  Biso   1.000  Cu
  Cu2      1.0000 0.91747  0.37550  0.15227  Biso   1.000  Cu
  Cu3      1.0000 0.91747  0.12450  0.65227  Biso   1.000  Cu
  Cu4      1.0000 0.08253  0.62450  0.84773  Biso   1.000  Cu
  Cu5      1.0000 0.13402  0.49310  0.54979  Biso   1.000  Cu
  Cu6      1.0000 0.86598  0.99310  0.95021  Biso   1.000  Cu
  Cu7      1.0000 0.86598  0.50690  0.45021  Biso   1.000  Cu
  Cu8      1.0000 0.13402  0.00690  0.04979  Biso   1.000  Cu
  Cu9      1.0000 0.22805  0.15908  0.42719  Biso   1.000  Cu
  Cu10     1.0000 0.77195  0.65908  0.07281  Biso   1.000  Cu
  Cu11     1.0000 0.77195  0.84092  0.57281  Biso   1.000  Cu
  Cu12     1.0000 0.22805  0.34092  0.92719  Biso   1.000  Cu
  Cu13     1.0000 0.41559  0.57958  0.17309  Biso   1.000  Cu
  Cu14     1.0000 0.58441  0.07958  0.32691  Biso   1.000  Cu
  Cu15     1.0000 0.58441  0.42042  0.82691  Biso   1.000  Cu
  Cu16     1.0000 0.41559  0.92042  0.67309  Biso   1.000  Cu
  Cu17     1.0000 0.36497  0.52999  0.47770  Biso   1.000  Cu
  Cu18     1.0000 0.63503  0.02999  0.02230  Biso   1.000  Cu
  Cu19     1.0000 0.63503  0.47001  0.52230  Biso   1.000  Cu
  Cu20     1.0000 0.36497  0.97001  0.97770  Biso   1.000  Cu
  Cu21     1.0000 0.26942  0.22170  0.61828  Biso   1.000  Cu
  Cu22     1.0000 0.73058  0.72170  0.88172  Biso   1.000  Cu
  Cu23     1.0000 0.73058  0.77830  0.38172  Biso   1.000  Cu
  Cu24     1.0000 0.26942  0.27830  0.11828  Biso   1.000  Cu
  N1       1.0000 0.05708  0.07250  0.39440  Biso   1.000  N
  N2       1.0000 0.94292  0.57250  0.10560  Biso   1.000  N
  N3       1.0000 0.94292  0.92750  0.60560  Biso   1.000  N
  N4       1.0000 0.05708  0.42750  0.89440  Biso   1.000  N
  N5       1.0000 0.02467  0.82410  0.34240  Biso   1.000  N
  N6       1.0000 0.97533  0.32410  0.15760  Biso   1.000  N
  N7       1.0000 0.97533  0.17590  0.65760  Biso   1.000  N
  N8       1.0000 0.02467  0.67590  0.84240  Biso   1.000  N
  N9       1.0000 0.27804  0.13810  0.36450  Biso   1.000  N
  N10      1.0000 0.72196  0.63810  0.13550  Biso   1.000  N
  N11      1.0000 0.72196  0.86190  0.63550  Biso   1.000  N
  N12      1.0000 0.27804  0.36190  0.86450  Biso   1.000  N
  N13      1.0000 0.22701  0.93630  0.40770  Biso   1.000  N
  N14      1.0000 0.77299  0.43630  0.09230  Biso   1.000  N
  N15      1.0000 0.77299  0.06370  0.59230  Biso   1.000  N
  N16      1.0000 0.22701  0.56370  0.90770  Biso   1.000  N
  N17      1.0000 0.11555  0.63330  0.46100  Biso   1.000  N
  N18      1.0000 0.88445  0.13330  0.03900  Biso   1.000  N
  N19      1.0000 0.88445  0.36670  0.53900  Biso   1.000  N
  N20      1.0000 0.11555  0.86670  0.96100  Biso   1.000  N
  N21      1.0000 0.17042  0.35770  0.50590  Biso   1.000  N
  N22      1.0000 0.82958  0.85770  0.99410  Biso   1.000  N
  N23      1.0000 0.82958  0.64230  0.49410  Biso   1.000  N
  N24      1.0000 0.17042  0.14230  0.00590  Biso   1.000  N
  N25      1.0000 0.10231  0.56140  0.73210  Biso   1.000  N
  N26      1.0000 0.89769  0.06140  0.76790  Biso   1.000  N
  N27      1.0000 0.89769  0.43860  0.26790  Biso   1.000  N
  N28      1.0000 0.10231  0.93860  0.23210  Biso   1.000  N
  N29      1.0000 0.43909  0.38530  0.12430  Biso   1.000  N
  N30      1.0000 0.56091  0.88530  0.37570  Biso   1.000  N
  N31      1.0000 0.56091  0.61470  0.87570  Biso   1.000  N
  N32      1.0000 0.43909  0.11470  0.62430  Biso   1.000  N
  N33      1.0000 0.47358  0.63400  0.16390  Biso   1.000  N
  N34      1.0000 0.52642  0.13400  0.33610  Biso   1.000  N
  N35      1.0000 0.52642  0.36600  0.83610  Biso   1.000  N
  N36      1.0000 0.47358  0.86600  0.66390  Biso   1.000  N
  N37      1.0000 0.26945  0.99730  0.62110  Biso   1.000  N
  N38      1.0000 0.73055  0.49730  0.87890  Biso   1.000  N
  N39      1.0000 0.73055  0.00270  0.37890  Biso   1.000  N
  N40      1.0000 0.26945  0.50270  0.12110  Biso   1.000  N
  N41      1.0000 0.22072  0.19070  0.68570  Biso   1.000  N
  N42      1.0000 0.77928  0.69070  0.81430  Biso   1.000  N
  N43      1.0000 0.77928  0.80930  0.31430  Biso   1.000  N
  N44      1.0000 0.22072  0.30930  0.18570  Biso   1.000  N
  N45      1.0000 0.38807  0.51770  0.36210  Biso   1.000  N
  N46      1.0000 0.61193  0.01770  0.13790  Biso   1.000  N
  N47      1.0000 0.61193  0.48230  0.63790  Biso   1.000  N
  N48      1.0000 0.38807  0.98230  0.86210  Biso   1.000  N
  N49      1.0000 0.32636  0.41280  0.53150  Biso   1.000  N
  N50      1.0000 0.67364  0.91280  0.96850  Biso   1.000  N
  N51      1.0000 0.67364  0.58720  0.46850  Biso   1.000  N
  N52      1.0000 0.32636  0.08720  0.03150  Biso   1.000  N
  N53      1.0000 0.38038  0.68940  0.55620  Biso   1.000  N
  N54      1.0000 0.61962  0.18940  0.94380  Biso   1.000  N
  N55      1.0000 0.61962  0.31060  0.44380  Biso   1.000  N
  N56      1.0000 0.38038  0.81060  0.05620  Biso   1.000  N
  C1       1.0000 0.07260  0.19820  0.41470  Biso   1.000  C
  C2       1.0000 0.92740  0.69820  0.08530  Biso   1.000  C
  C3       1.0000 0.92740  0.80180  0.58530  Biso   1.000  C
  C4       1.0000 0.07260  0.30180  0.91470  Biso   1.000  C
  H1       1.0000 0.09870  0.20350  0.41780  Biso   1.000  H
  H2       1.0000 0.90130  0.70350  0.08220  Biso   1.000  H
  H3       1.0000 0.90130  0.79650  0.58220  Biso   1.000  H
  H4       1.0000 0.09870  0.29650  0.91780  Biso   1.000  H
  C5       1.0000 0.05180  0.32370  0.43200  Biso   1.000  C
  C6       1.0000 0.94820  0.82370  0.06800  Biso   1.000  C
  C7       1.0000 0.94820  0.67630  0.56800  Biso   1.000  C
  C8       1.0000 0.05180  0.17630  0.93200  Biso   1.000  C
  H5       1.0000 0.06400  0.40970  0.44560  Biso   1.000  H
  H6       1.0000 0.93600  0.90970  0.05440  Biso   1.000  H
  H7       1.0000 0.93600  0.59030  0.55440  Biso   1.000  H
  H8       1.0000 0.06400  0.09030  0.94560  Biso   1.000  H
  C9       1.0000 0.01400  0.31850  0.42860  Biso   1.000  C
  C10      1.0000 0.98600  0.81850  0.07140  Biso   1.000  C
  C11      1.0000 0.98600  0.68150  0.57140  Biso   1.000  C
  C12      1.0000 0.01400  0.18150  0.92860  Biso   1.000  C
  H9       1.0000 0.00000  0.40150  0.43940  Biso   1.000  H
  H10      1.0000 0.00000  0.90150  0.06060  Biso   1.000  H
  H11      1.0000 0.00000  0.59850  0.56060  Biso   1.000  H
  H12      1.0000 0.00000  0.09850  0.93940  Biso   1.000  H
  C13      1.0000 0.99550  0.18770  0.40880  Biso   1.000  C
  C14      1.0000 0.00450  0.68770  0.09120  Biso   1.000  C
  C15      1.0000 0.00450  0.81230  0.59120  Biso   1.000  C
  C16      1.0000 0.99550  0.31230  0.90880  Biso   1.000  C
  C17      1.0000 0.01891  0.06740  0.39030  Biso   1.000  C
  C18      1.0000 0.98109  0.56740  0.10970  Biso   1.000  C
  C19      1.0000 0.98109  0.93260  0.60970  Biso   1.000  C
  C20      1.0000 0.01891  0.43260  0.89030  Biso   1.000  C
  C21      1.0000 0.00145  0.93400  0.36570  Biso   1.000  C
  C22      1.0000 0.99855  0.43400  0.13430  Biso   1.000  C
  C23      1.0000 0.99855  0.06600  0.63430  Biso   1.000  C
  C24      1.0000 0.00145  0.56600  0.86570  Biso   1.000  C
  C25      1.0000 0.96169  0.91800  0.36490  Biso   1.000  C
  C26      1.0000 0.03831  0.41800  0.13510  Biso   1.000  C
  C27      1.0000 0.03831  0.08200  0.63510  Biso   1.000  C
  C28      1.0000 0.96169  0.58200  0.86490  Biso   1.000  C
  C29      1.0000 0.94730  0.78350  0.34190  Biso   1.000  C
  C30      1.0000 0.05270  0.28350  0.15810  Biso   1.000  C
  C31      1.0000 0.05270  0.21650  0.65810  Biso   1.000  C
  C32      1.0000 0.94730  0.71650  0.84190  Biso   1.000  C
  H13      1.0000 0.92130  0.76960  0.34040  Biso   1.000  H
  H14      1.0000 0.07870  0.26960  0.15960  Biso   1.000  H
  H15      1.0000 0.07870  0.23040  0.65960  Biso   1.000  H
  H16      1.0000 0.92130  0.73040  0.84040  Biso   1.000  H
  C33      1.0000 0.97070  0.67130  0.32140  Biso   1.000  C
  C34      1.0000 0.02930  0.17130  0.17860  Biso   1.000  C
  C35      1.0000 0.02930  0.32870  0.67860  Biso   1.000  C
  C36      1.0000 0.97070  0.82870  0.82140  Biso   1.000  C
  H17      1.0000 0.96120  0.58040  0.30760  Biso   1.000  H
  H18      1.0000 0.03880  0.08040  0.19240  Biso   1.000  H
  H19      1.0000 0.03880  0.41960  0.69240  Biso   1.000  H
  H20      1.0000 0.96120  0.91960  0.80760  Biso   1.000  H
  C37      1.0000 0.00880  0.69770  0.32180  Biso   1.000  C
  C38      1.0000 0.99120  0.19770  0.17820  Biso   1.000  C
  C39      1.0000 0.99120  0.30230  0.67820  Biso   1.000  C
  C40      1.0000 0.00880  0.80230  0.82180  Biso   1.000  C
  H21      1.0000 0.02470  0.62190  0.30670  Biso   1.000  H
  H22      1.0000 0.97530  0.12190  0.19330  Biso   1.000  H
  H23      1.0000 0.97530  0.37810  0.69330  Biso   1.000  H
  H24      1.0000 0.02470  0.87810  0.80670  Biso   1.000  H
  C41      1.0000 0.95510  0.16810  0.40550  Biso   1.000  C
  C42      1.0000 0.04490  0.66810  0.09450  Biso   1.000  C
  C43      1.0000 0.04490  0.83190  0.59450  Biso   1.000  C
  C44      1.0000 0.95510  0.33190  0.90550  Biso   1.000  C
  H25      1.0000 0.93950  0.24660  0.41700  Biso   1.000  H
  H26      1.0000 0.06050  0.74660  0.08300  Biso   1.000  H
  H27      1.0000 0.06050  0.75340  0.58300  Biso   1.000  H
  H28      1.0000 0.93950  0.25340  0.91700  Biso   1.000  H
  C45      1.0000 0.93950  0.04100  0.38640  Biso   1.000  C
  C46      1.0000 0.06050  0.54100  0.11360  Biso   1.000  C
  C47      1.0000 0.06050  0.95900  0.61360  Biso   1.000  C
  C48      1.0000 0.93950  0.45900  0.88640  Biso   1.000  C
  H29      1.0000 0.91340  0.03240  0.38700  Biso   1.000  H
  H30      1.0000 0.08660  0.53240  0.11300  Biso   1.000  H
  H31      1.0000 0.08660  0.96760  0.61300  Biso   1.000  H
  H32      1.0000 0.91340  0.46760  0.88700  Biso   1.000  H
  C49      1.0000 0.30340  0.23750  0.34000  Biso   1.000  C
  C50      1.0000 0.69660  0.73750  0.16000  Biso   1.000  C
  C51      1.0000 0.69660  0.76250  0.66000  Biso   1.000  C
  C52      1.0000 0.30340  0.26250  0.84000  Biso   1.000  C
  H33      1.0000 0.29820  0.33400  0.35170  Biso   1.000  H
  H34      1.0000 0.70180  0.83400  0.14830  Biso   1.000  H
  H35      1.0000 0.70180  0.66600  0.64830  Biso   1.000  H
  H36      1.0000 0.29820  0.16600  0.85170  Biso   1.000  H
  C53      1.0000 0.33680  0.20410  0.29860  Biso   1.000  C
  C54      1.0000 0.66320  0.70410  0.20140  Biso   1.000  C
  C55      1.0000 0.66320  0.79590  0.70140  Biso   1.000  C
  C56      1.0000 0.33680  0.29590  0.79860  Biso   1.000  C
  H37      1.0000 0.35290  0.27770  0.28100  Biso   1.000  H
  H38      1.0000 0.64710  0.77770  0.21900  Biso   1.000  H
  H39      1.0000 0.64710  0.72230  0.71900  Biso   1.000  H
  H40      1.0000 0.35290  0.22230  0.78100  Biso   1.000  H
  C57      1.0000 0.34620  0.06550  0.28310  Biso   1.000  C
  C58      1.0000 0.65380  0.56550  0.21690  Biso   1.000  C
  C59      1.0000 0.65380  0.93450  0.71690  Biso   1.000  C
  C60      1.0000 0.34620  0.43450  0.78310  Biso   1.000  C
  H41      1.0000 0.36910  0.04350  0.25620  Biso   1.000  H
  H42      1.0000 0.63090  0.54350  0.24380  Biso   1.000  H
  H43      1.0000 0.63090  0.95650  0.74380  Biso   1.000  H
  H44      1.0000 0.36910  0.45650  0.75620  Biso   1.000  H
  C61      1.0000 0.32118  0.95330  0.30810  Biso   1.000  C
  C62      1.0000 0.67882  0.45330  0.19190  Biso   1.000  C
  C63      1.0000 0.67882  0.04670  0.69190  Biso   1.000  C
  C64      1.0000 0.32118  0.54670  0.80810  Biso   1.000  C
  C65      1.0000 0.28728  0.99660  0.34790  Biso   1.000  C
  C66      1.0000 0.71272  0.49660  0.15210  Biso   1.000  C
  C67      1.0000 0.71272  0.00340  0.65210  Biso   1.000  C
  C68      1.0000 0.28728  0.50340  0.84790  Biso   1.000  C
  C69      1.0000 0.26048  0.89020  0.37260  Biso   1.000  C
  C70      1.0000 0.73952  0.39020  0.12740  Biso   1.000  C
  C71      1.0000 0.73952  0.10980  0.62740  Biso   1.000  C
  C72      1.0000 0.26048  0.60980  0.87260  Biso   1.000  C
  C73      1.0000 0.26869  0.74180  0.36020  Biso   1.000  C
  C74      1.0000 0.73131  0.24180  0.13980  Biso   1.000  C
  C75      1.0000 0.73131  0.25820  0.63980  Biso   1.000  C
  C76      1.0000 0.26869  0.75820  0.86020  Biso   1.000  C
  C77      1.0000 0.24130  0.64200  0.38590  Biso   1.000  C
  C78      1.0000 0.75870  0.14200  0.11410  Biso   1.000  C
  C79      1.0000 0.75870  0.35800  0.61410  Biso   1.000  C
  C80      1.0000 0.24130  0.85800  0.88590  Biso   1.000  C
  H45      1.0000 0.24580  0.54360  0.38050  Biso   1.000  H
  H46      1.0000 0.75420  0.04360  0.11950  Biso   1.000  H
  H47      1.0000 0.75420  0.45640  0.61950  Biso   1.000  H
  H48      1.0000 0.24580  0.95640  0.88050  Biso   1.000  H
  C81      1.0000 0.20780  0.68930  0.41900  Biso   1.000  C
  C82      1.0000 0.79220  0.18930  0.08100  Biso   1.000  C
  C83      1.0000 0.79220  0.31070  0.58100  Biso   1.000  C
  C84      1.0000 0.20780  0.81070  0.91900  Biso   1.000  C
  H49      1.0000 0.18930  0.62330  0.43470  Biso   1.000  H
  H50      1.0000 0.81070  0.12330  0.06530  Biso   1.000  H
  H51      1.0000 0.81070  0.37670  0.56530  Biso   1.000  H
  H52      1.0000 0.18930  0.87670  0.93470  Biso   1.000  H
  C85      1.0000 0.20150  0.83490  0.42930  Biso   1.000  C
  C86      1.0000 0.79850  0.33490  0.07070  Biso   1.000  C
  C87      1.0000 0.79850  0.16510  0.57070  Biso   1.000  C
  C88      1.0000 0.20150  0.66510  0.92930  Biso   1.000  C
  H53      1.0000 0.17850  0.86460  0.45230  Biso   1.000  H
  H54      1.0000 0.82150  0.36460  0.04770  Biso   1.000  H
  H55      1.0000 0.82150  0.13540  0.54770  Biso   1.000  H
  H56      1.0000 0.17850  0.63540  0.95230  Biso   1.000  H
  C89      1.0000 0.32910  0.80480  0.29740  Biso   1.000  C
  C90      1.0000 0.67090  0.30480  0.20260  Biso   1.000  C
  C91      1.0000 0.67090  0.19520  0.70260  Biso   1.000  C
  C92      1.0000 0.32910  0.69520  0.79740  Biso   1.000  C
  H57      1.0000 0.35170  0.77640  0.27170  Biso   1.000  H
  H58      1.0000 0.64830  0.27640  0.22830  Biso   1.000  H
  H59      1.0000 0.64830  0.22360  0.72830  Biso   1.000  H
  H60      1.0000 0.35170  0.72360  0.77170  Biso   1.000  H
  C93      1.0000 0.30420  0.70390  0.32410  Biso   1.000  C
  C94      1.0000 0.69580  0.20390  0.17590  Biso   1.000  C
  C95      1.0000 0.69580  0.29610  0.67590  Biso   1.000  C
  C96      1.0000 0.30420  0.79610  0.82410  Biso   1.000  C
  H61      1.0000 0.31040  0.60690  0.31870  Biso   1.000  H
  H62      1.0000 0.68960  0.10690  0.18130  Biso   1.000  H
  H63      1.0000 0.68960  0.39310  0.68130  Biso   1.000  H
  H64      1.0000 0.31040  0.89310  0.81870  Biso   1.000  H
  C97      1.0000 0.10489  0.73100  0.42030  Biso   1.000  C
  C98      1.0000 0.89511  0.23100  0.07970  Biso   1.000  C
  C99      1.0000 0.89511  0.26900  0.57970  Biso   1.000  C
  C100     1.0000 0.10489  0.76900  0.92030  Biso   1.000  C
  C101     1.0000 0.19310  0.28390  0.47640  Biso   1.000  C
  C102     1.0000 0.80690  0.78390  0.02360  Biso   1.000  C
  C103     1.0000 0.80690  0.71610  0.52360  Biso   1.000  C
  C104     1.0000 0.19310  0.21610  0.97640  Biso   1.000  C
  C105     1.0000 0.11425  0.52720  0.66400  Biso   1.000  C
  C106     1.0000 0.88575  0.02720  0.83600  Biso   1.000  C
  C107     1.0000 0.88575  0.47280  0.33600  Biso   1.000  C
  C108     1.0000 0.11425  0.97280  0.16400  Biso   1.000  C
  C109     1.0000 0.42230  0.25780  0.11260  Biso   1.000  C
  C110     1.0000 0.57770  0.75780  0.38740  Biso   1.000  C
  C111     1.0000 0.57770  0.74220  0.88740  Biso   1.000  C
  C112     1.0000 0.42230  0.24220  0.61260  Biso   1.000  C
  H65      1.0000 0.39630  0.25120  0.11850  Biso   1.000  H
  H66      1.0000 0.60370  0.75120  0.38150  Biso   1.000  H
  H67      1.0000 0.60370  0.74880  0.88150  Biso   1.000  H
  H68      1.0000 0.39630  0.24880  0.61850  Biso   1.000  H
  C113     1.0000 0.44310  0.13260  0.09140  Biso   1.000  C
  C114     1.0000 0.55690  0.63260  0.40860  Biso   1.000  C
  C115     1.0000 0.55690  0.86740  0.90860  Biso   1.000  C
  C116     1.0000 0.44310  0.36740  0.59140  Biso   1.000  C
  H69      1.0000 0.43080  0.04480  0.08420  Biso   1.000  H
  H70      1.0000 0.56920  0.54480  0.41580  Biso   1.000  H
  H71      1.0000 0.56920  0.95520  0.91580  Biso   1.000  H
  H72      1.0000 0.43080  0.45520  0.58420  Biso   1.000  H
  C117     1.0000 0.48060  0.13960  0.08160  Biso   1.000  C
  C118     1.0000 0.51940  0.63960  0.41840  Biso   1.000  C
  C119     1.0000 0.51940  0.86040  0.91840  Biso   1.000  C
  C120     1.0000 0.48060  0.36040  0.58160  Biso   1.000  C
  H73      1.0000 0.49440  0.05700  0.06860  Biso   1.000  H
  H74      1.0000 0.50560  0.55700  0.43140  Biso   1.000  H
  H75      1.0000 0.50560  0.94300  0.93140  Biso   1.000  H
  H76      1.0000 0.49440  0.44300  0.56860  Biso   1.000  H
  C121     1.0000 0.49840  0.27030  0.09110  Biso   1.000  C
  C122     1.0000 0.50160  0.77030  0.40890  Biso   1.000  C
  C123     1.0000 0.50160  0.72970  0.90890  Biso   1.000  C
  C124     1.0000 0.49840  0.22970  0.59110  Biso   1.000  C
  C125     1.0000 0.47690  0.39100  0.11520  Biso   1.000  C
  C126     1.0000 0.52310  0.89100  0.38480  Biso   1.000  C
  C127     1.0000 0.52310  0.60900  0.88480  Biso   1.000  C
  C128     1.0000 0.47690  0.10900  0.61520  Biso   1.000  C
  C129     1.0000 0.49521  0.52490  0.13240  Biso   1.000  C
  C130     1.0000 0.50479  0.02490  0.36760  Biso   1.000  C
  C131     1.0000 0.50479  0.47510  0.86760  Biso   1.000  C
  C132     1.0000 0.49521  0.97510  0.63240  Biso   1.000  C
  C133     1.0000 0.53480  0.54200  0.11790  Biso   1.000  C
  C134     1.0000 0.46520  0.04200  0.38210  Biso   1.000  C
  C135     1.0000 0.46520  0.45800  0.88210  Biso   1.000  C
  C136     1.0000 0.53480  0.95800  0.61790  Biso   1.000  C
  C137     1.0000 0.54920  0.68200  0.13530  Biso   1.000  C
  C138     1.0000 0.45080  0.18200  0.36470  Biso   1.000  C
  C139     1.0000 0.45080  0.31800  0.86470  Biso   1.000  C
  C140     1.0000 0.54920  0.81800  0.63530  Biso   1.000  C
  H77      1.0000 0.57460  0.70000  0.12580  Biso   1.000  H
  H78      1.0000 0.42540  0.20000  0.37420  Biso   1.000  H
  H79      1.0000 0.42540  0.30000  0.87420  Biso   1.000  H
  H80      1.0000 0.57460  0.80000  0.62580  Biso   1.000  H
  C141     1.0000 0.52750  0.78780  0.16470  Biso   1.000  C
  C142     1.0000 0.47250  0.28780  0.33530  Biso   1.000  C
  C143     1.0000 0.47250  0.21220  0.83530  Biso   1.000  C
  C144     1.0000 0.52750  0.71220  0.66470  Biso   1.000  C
  H81      1.0000 0.53740  0.87890  0.17550  Biso   1.000  H
  H82      1.0000 0.46260  0.37890  0.32450  Biso   1.000  H
  H83      1.0000 0.46260  0.12110  0.82450  Biso   1.000  H
  H84      1.0000 0.53740  0.62110  0.67550  Biso   1.000  H
  C145     1.0000 0.49010  0.76080  0.17900  Biso   1.000  C
  C146     1.0000 0.50990  0.26080  0.32100  Biso   1.000  C
  C147     1.0000 0.50990  0.23920  0.82100  Biso   1.000  C
  C148     1.0000 0.49010  0.73920  0.67900  Biso   1.000  C
  H85      1.0000 0.47530  0.83570  0.20070  Biso   1.000  H
  H86      1.0000 0.52470  0.33570  0.29930  Biso   1.000  H
  H87      1.0000 0.52470  0.16430  0.79930  Biso   1.000  H
  H88      1.0000 0.47530  0.66430  0.70070  Biso   1.000  H
  C149     1.0000 0.53860  0.28940  0.07840  Biso   1.000  C
  C150     1.0000 0.46140  0.78940  0.42160  Biso   1.000  C
  C151     1.0000 0.46140  0.71060  0.92160  Biso   1.000  C
  C152     1.0000 0.53860  0.21060  0.57840  Biso   1.000  C
  H89      1.0000 0.55340  0.21100  0.06220  Biso   1.000  H
  H90      1.0000 0.44660  0.71100  0.43780  Biso   1.000  H
  H91      1.0000 0.44660  0.78900  0.93780  Biso   1.000  H
  H92      1.0000 0.55340  0.28900  0.56220  Biso   1.000  H
  C153     1.0000 0.55430  0.41820  0.08980  Biso   1.000  C
  C154     1.0000 0.44570  0.91820  0.41020  Biso   1.000  C
  C155     1.0000 0.44570  0.58180  0.91020  Biso   1.000  C
  C156     1.0000 0.55430  0.08180  0.58980  Biso   1.000  C
  H93      1.0000 0.57990  0.42710  0.07840  Biso   1.000  H
  H94      1.0000 0.42010  0.92710  0.42160  Biso   1.000  H
  H95      1.0000 0.42010  0.57290  0.92160  Biso   1.000  H
  H96      1.0000 0.57990  0.07290  0.57840  Biso   1.000  H
  C157     1.0000 0.29420  0.90250  0.58990  Biso   1.000  C
  C158     1.0000 0.70580  0.40250  0.91010  Biso   1.000  C
  C159     1.0000 0.70580  0.09750  0.41010  Biso   1.000  C
  C160     1.0000 0.29420  0.59750  0.08990  Biso   1.000  C
  H97      1.0000 0.31700  0.93580  0.56780  Biso   1.000  H
  H98      1.0000 0.68300  0.43580  0.93220  Biso   1.000  H
  H99      1.0000 0.68300  0.06420  0.43220  Biso   1.000  H
  H100     1.0000 0.31700  0.56420  0.06780  Biso   1.000  H
  C161     1.0000 0.28700  0.75460  0.58920  Biso   1.000  C
  C162     1.0000 0.71300  0.25460  0.91080  Biso   1.000  C
  C163     1.0000 0.71300  0.24540  0.41080  Biso   1.000  C
  C164     1.0000 0.28700  0.74540  0.08920  Biso   1.000  C
  H101     1.0000 0.30530  0.69070  0.56890  Biso   1.000  H
  H102     1.0000 0.69470  0.19070  0.93110  Biso   1.000  H
  H103     1.0000 0.69470  0.30930  0.43110  Biso   1.000  H
  H104     1.0000 0.30530  0.80930  0.06890  Biso   1.000  H
  C165     1.0000 0.25370  0.70480  0.61800  Biso   1.000  C
  C166     1.0000 0.74630  0.20480  0.88200  Biso   1.000  C
  C167     1.0000 0.74630  0.29520  0.38200  Biso   1.000  C
  C168     1.0000 0.25370  0.79520  0.11800  Biso   1.000  C
  H105     1.0000 0.24880  0.60630  0.61580  Biso   1.000  H
  H106     1.0000 0.75120  0.10630  0.88420  Biso   1.000  H
  H107     1.0000 0.75120  0.39370  0.38420  Biso   1.000  H
  H108     1.0000 0.24880  0.89370  0.11580  Biso   1.000  H
  C169     1.0000 0.22630  0.79890  0.65120  Biso   1.000  C
  C170     1.0000 0.77370  0.29890  0.84880  Biso   1.000  C
  C171     1.0000 0.77370  0.20110  0.34880  Biso   1.000  C
  C172     1.0000 0.22630  0.70110  0.15120  Biso   1.000  C
  C173     1.0000 0.23554  0.94620  0.65190  Biso   1.000  C
  C174     1.0000 0.76446  0.44620  0.84810  Biso   1.000  C
  C175     1.0000 0.76446  0.05380  0.34810  Biso   1.000  C
  C176     1.0000 0.23554  0.55380  0.15190  Biso   1.000  C
  C177     1.0000 0.21030  0.05070  0.68710  Biso   1.000  C
  C178     1.0000 0.78970  0.55070  0.81290  Biso   1.000  C
  C179     1.0000 0.78970  0.94930  0.31290  Biso   1.000  C
  C180     1.0000 0.21030  0.44930  0.18710  Biso   1.000  C
  C181     1.0000 0.17541  0.00190  0.72110  Biso   1.000  C
  C182     1.0000 0.82459  0.50190  0.77890  Biso   1.000  C
  C183     1.0000 0.82459  0.99810  0.27890  Biso   1.000  C
  C184     1.0000 0.17541  0.49810  0.22110  Biso   1.000  C
  C185     1.0000 0.15230  0.10660  0.75770  Biso   1.000  C
  C186     1.0000 0.84770  0.60660  0.74230  Biso   1.000  C
  C187     1.0000 0.84770  0.89340  0.24230  Biso   1.000  C
  C188     1.0000 0.15230  0.39340  0.25770  Biso   1.000  C
  H109     1.0000 0.12940  0.07930  0.78240  Biso   1.000  H
  H110     1.0000 0.87060  0.57930  0.71760  Biso   1.000  H
  H111     1.0000 0.87060  0.92070  0.21760  Biso   1.000  H
  H112     1.0000 0.12940  0.42070  0.28240  Biso   1.000  H
  C189     1.0000 0.16220  0.24720  0.75850  Biso   1.000  C
  C190     1.0000 0.83780  0.74720  0.74150  Biso   1.000  C
  C191     1.0000 0.83780  0.75280  0.24150  Biso   1.000  C
  C192     1.0000 0.16220  0.25280  0.25850  Biso   1.000  C
  H113     1.0000 0.14650  0.31670  0.78320  Biso   1.000  H
  H114     1.0000 0.85350  0.81670  0.71680  Biso   1.000  H
  H115     1.0000 0.85350  0.68330  0.21680  Biso   1.000  H
  H116     1.0000 0.14650  0.18330  0.28320  Biso   1.000  H
  C193     1.0000 0.19700  0.28540  0.72060  Biso   1.000  C
  C194     1.0000 0.80300  0.78540  0.77940  Biso   1.000  C
  C195     1.0000 0.80300  0.71460  0.27940  Biso   1.000  C
  C196     1.0000 0.19700  0.21460  0.22060  Biso   1.000  C
  H117     1.0000 0.20380  0.38230  0.72010  Biso   1.000  H
  H118     1.0000 0.79620  0.88230  0.77990  Biso   1.000  H
  H119     1.0000 0.79620  0.61770  0.27990  Biso   1.000  H
  H120     1.0000 0.20380  0.11770  0.22010  Biso   1.000  H
  C197     1.0000 0.19100  0.75780  0.68410  Biso   1.000  C
  C198     1.0000 0.80900  0.25780  0.81590  Biso   1.000  C
  C199     1.0000 0.80900  0.24220  0.31590  Biso   1.000  C
  C200     1.0000 0.19100  0.74220  0.18410  Biso   1.000  C
  H121     1.0000 0.18470  0.66050  0.68340  Biso   1.000  H
  H122     1.0000 0.81530  0.16050  0.81660  Biso   1.000  H
  H123     1.0000 0.81530  0.33950  0.31660  Biso   1.000  H
  H124     1.0000 0.18470  0.83950  0.18340  Biso   1.000  H
  C201     1.0000 0.16590  0.85250  0.71660  Biso   1.000  C
  C202     1.0000 0.83410  0.35250  0.78340  Biso   1.000  C
  C203     1.0000 0.83410  0.14750  0.28340  Biso   1.000  C
  C204     1.0000 0.16590  0.64750  0.21660  Biso   1.000  C
  H125     1.0000 0.14240  0.82080  0.73610  Biso   1.000  H
  H126     1.0000 0.85760  0.32080  0.76390  Biso   1.000  H
  H127     1.0000 0.85760  0.17920  0.26390  Biso   1.000  H
  H128     1.0000 0.14240  0.67920  0.23610  Biso   1.000  H
  C205     1.0000 0.39948  0.53350  0.29110  Biso   1.000  C
  C206     1.0000 0.60052  0.03350  0.20890  Biso   1.000  C
  C207     1.0000 0.60052  0.46650  0.70890  Biso   1.000  C
  C208     1.0000 0.39948  0.96650  0.79110  Biso   1.000  C
  C209     1.0000 0.30380  0.34510  0.56550  Biso   1.000  C
  C210     1.0000 0.69620  0.84510  0.93450  Biso   1.000  C
  C211     1.0000 0.69620  0.65490  0.43450  Biso   1.000  C
  C212     1.0000 0.30380  0.15490  0.06550  Biso   1.000  C
  C213     1.0000 0.39196  0.78420  0.59890  Biso   1.000  C
  C214     1.0000 0.60804  0.28420  0.90110  Biso   1.000  C
  C215     1.0000 0.60804  0.21580  0.40110  Biso   1.000  C
  C216     1.0000 0.39196  0.71580  0.09890  Biso   1.000  C
