data_image0
_cell_length_a       13.6036
_cell_length_b       13.6036
_cell_length_c       20.5614
_cell_angle_alpha    90
_cell_angle_beta     90
_cell_angle_gamma    90

_symmetry_space_group_name_H-M    "P 1"
_symmetry_int_tables_number       1

loop_
  _symmetry_equiv_pos_as_xyz
  'x, y, z'

loop_
  _atom_site_label
  _atom_site_occupancy
  _atom_site_fract_x
  _atom_site_fract_y
  _atom_site_fract_z
  _atom_site_thermal_displace_type
  _atom_site_B_iso_or_equiv
  _atom_site_type_symbol
  Cu1      1.0000 0.63818  0.25000  0.75000  Biso   1.000  Cu
  Cu2      1.0000 0.25000  0.63818  0.75000  Biso   1.000  Cu
  Cu3      1.0000 0.25000  0.86182  0.75000  Biso   1.000  Cu
  Cu4      1.0000 0.13818  0.75000  0.25000  Biso   1.000  Cu
  Cu5      1.0000 0.36182  0.75000  0.25000  Biso   1.000  Cu
  Cu6      1.0000 0.75000  0.13818  0.25000  Biso   1.000  Cu
  Cu7      1.0000 0.75000  0.36182  0.25000  Biso   1.000  Cu
  Cu8      1.0000 0.86182  0.25000  0.75000  Biso   1.000  Cu
  Cu9      1.0000 0.75000  0.07983  0.75000  Biso   1.000  Cu
  Cu10     1.0000 0.42017  0.75000  0.75000  Biso   1.000  Cu
  Cu11     1.0000 0.07983  0.75000  0.75000  Biso   1.000  Cu
  Cu12     1.0000 0.25000  0.57983  0.25000  Biso   1.000  Cu
  Cu13     1.0000 0.25000  0.92017  0.25000  Biso   1.000  Cu
  Cu14     1.0000 0.57983  0.25000  0.25000  Biso   1.000  Cu
  Cu15     1.0000 0.92017  0.25000  0.25000  Biso   1.000  Cu
  Cu16     1.0000 0.75000  0.42017  0.75000  Biso   1.000  Cu
  Cu17     1.0000 0.53547  0.96453  0.25000  Biso   1.000  Cu
  Cu18     1.0000 0.53547  0.53547  0.25000  Biso   1.000  Cu
  Cu19     1.0000 0.96453  0.96453  0.25000  Biso   1.000  Cu
  Cu20     1.0000 0.96453  0.53547  0.25000  Biso   1.000  Cu
  Cu21     1.0000 0.03547  0.46453  0.75000  Biso   1.000  Cu
  Cu22     1.0000 0.03547  0.03547  0.75000  Biso   1.000  Cu
  Cu23     1.0000 0.46453  0.46453  0.75000  Biso   1.000  Cu
  Cu24     1.0000 0.46453  0.03547  0.75000  Biso   1.000  Cu
  O1       1.0000 0.62430  0.22260  0.66200  Biso   1.000  O
  O2       1.0000 0.27740  0.62430  0.66200  Biso   1.000  O
  O3       1.0000 0.22260  0.87570  0.66200  Biso   1.000  O
  O4       1.0000 0.22260  0.62430  0.83800  Biso   1.000  O
  O5       1.0000 0.12430  0.72260  0.33800  Biso   1.000  O
  O6       1.0000 0.12430  0.77740  0.16200  Biso   1.000  O
  O7       1.0000 0.37570  0.72260  0.16200  Biso   1.000  O
  O8       1.0000 0.72260  0.12430  0.16200  Biso   1.000  O
  O9       1.0000 0.37570  0.77740  0.33800  Biso   1.000  O
  O10      1.0000 0.72260  0.37570  0.33800  Biso   1.000  O
  O11      1.0000 0.77740  0.12430  0.33800  Biso   1.000  O
  O12      1.0000 0.77740  0.37570  0.16200  Biso   1.000  O
  O13      1.0000 0.87570  0.27740  0.66200  Biso   1.000  O
  O14      1.0000 0.87570  0.22260  0.83800  Biso   1.000  O
  O15      1.0000 0.62430  0.27740  0.83800  Biso   1.000  O
  O16      1.0000 0.27740  0.87570  0.83800  Biso   1.000  O
  O17      1.0000 0.69840  0.07710  0.66540  Biso   1.000  O
  O18      1.0000 0.42290  0.69840  0.66540  Biso   1.000  O
  O19      1.0000 0.07710  0.80160  0.66540  Biso   1.000  O
  O20      1.0000 0.07710  0.69840  0.83460  Biso   1.000  O
  O21      1.0000 0.19840  0.57710  0.33460  Biso   1.000  O
  O22      1.0000 0.19840  0.92290  0.16540  Biso   1.000  O
  O23      1.0000 0.30160  0.57710  0.16540  Biso   1.000  O
  O24      1.0000 0.57710  0.19840  0.16540  Biso   1.000  O
  O25      1.0000 0.30160  0.92290  0.33460  Biso   1.000  O
  O26      1.0000 0.57710  0.30160  0.33460  Biso   1.000  O
  O27      1.0000 0.92290  0.19840  0.33460  Biso   1.000  O
  O28      1.0000 0.92290  0.30160  0.16540  Biso   1.000  O
  O29      1.0000 0.80160  0.42290  0.66540  Biso   1.000  O
  O30      1.0000 0.80160  0.07710  0.83460  Biso   1.000  O
  O31      1.0000 0.69840  0.42290  0.83460  Biso   1.000  O
  O32      1.0000 0.42290  0.80160  0.83460  Biso   1.000  O
  N1       1.0000 0.56120  0.98930  0.33890  Biso   1.000  N
  N2       1.0000 0.51070  0.56120  0.33890  Biso   1.000  N
  N3       1.0000 0.98930  0.93880  0.33890  Biso   1.000  N
  N4       1.0000 0.98930  0.56120  0.16110  Biso   1.000  N
  N5       1.0000 0.06120  0.48930  0.66110  Biso   1.000  N
  N6       1.0000 0.06120  0.01070  0.83890  Biso   1.000  N
  N7       1.0000 0.43880  0.48930  0.83890  Biso   1.000  N
  N8       1.0000 0.48930  0.06120  0.83890  Biso   1.000  N
  N9       1.0000 0.43880  0.01070  0.66110  Biso   1.000  N
  N10      1.0000 0.48930  0.43880  0.66110  Biso   1.000  N
  N11      1.0000 0.01070  0.06120  0.66110  Biso   1.000  N
  N12      1.0000 0.01070  0.43880  0.83890  Biso   1.000  N
  N13      1.0000 0.93880  0.51070  0.33890  Biso   1.000  N
  N14      1.0000 0.93880  0.98930  0.16110  Biso   1.000  N
  N15      1.0000 0.56120  0.51070  0.16110  Biso   1.000  N
  N16      1.0000 0.51070  0.93880  0.16110  Biso   1.000  N
  C1       1.0000 0.53130  0.07040  0.36780  Biso   1.000  C
  C2       1.0000 0.42960  0.53130  0.36780  Biso   1.000  C
  C3       1.0000 0.07040  0.96870  0.36780  Biso   1.000  C
  C4       1.0000 0.07040  0.53130  0.13220  Biso   1.000  C
  C5       1.0000 0.03130  0.57040  0.63220  Biso   1.000  C
  C6       1.0000 0.03130  0.92960  0.86780  Biso   1.000  C
  C7       1.0000 0.46870  0.57040  0.86780  Biso   1.000  C
  C8       1.0000 0.57040  0.03130  0.86780  Biso   1.000  C
  C9       1.0000 0.46870  0.92960  0.63220  Biso   1.000  C
  C10      1.0000 0.57040  0.46870  0.63220  Biso   1.000  C
  C11      1.0000 0.92960  0.03130  0.63220  Biso   1.000  C
  C12      1.0000 0.92960  0.46870  0.86780  Biso   1.000  C
  C13      1.0000 0.96870  0.42960  0.36780  Biso   1.000  C
  C14      1.0000 0.96870  0.07040  0.13220  Biso   1.000  C
  C15      1.0000 0.53130  0.42960  0.13220  Biso   1.000  C
  C16      1.0000 0.42960  0.96870  0.13220  Biso   1.000  C
  H1       1.0000 0.49270  0.11440  0.34450  Biso   1.000  H
  H2       1.0000 0.38560  0.49270  0.34450  Biso   1.000  H
  H3       1.0000 0.11440  0.00730  0.34450  Biso   1.000  H
  H4       1.0000 0.11440  0.49270  0.15550  Biso   1.000  H
  H5       1.0000 0.99270  0.61440  0.65550  Biso   1.000  H
  H6       1.0000 0.99270  0.88560  0.84450  Biso   1.000  H
  H7       1.0000 0.50730  0.61440  0.84450  Biso   1.000  H
  H8       1.0000 0.61440  0.99270  0.84450  Biso   1.000  H
  H9       1.0000 0.50730  0.88560  0.65550  Biso   1.000  H
  H10      1.0000 0.61440  0.50730  0.65550  Biso   1.000  H
  H11      1.0000 0.88560  0.99270  0.65550  Biso   1.000  H
  H12      1.0000 0.88560  0.50730  0.84450  Biso   1.000  H
  H13      1.0000 0.00730  0.38560  0.34450  Biso   1.000  H
  H14      1.0000 0.00730  0.11440  0.15550  Biso   1.000  H
  H15      1.0000 0.49270  0.38560  0.15550  Biso   1.000  H
  H16      1.0000 0.38560  0.00730  0.15550  Biso   1.000  H
  C17      1.0000 0.55520  0.09280  0.43170  Biso   1.000  C
  C18      1.0000 0.40720  0.55520  0.43170  Biso   1.000  C
  C19      1.0000 0.09280  0.94480  0.43170  Biso   1.000  C
  C20      1.0000 0.09280  0.55520  0.06830  Biso   1.000  C
  C21      1.0000 0.05520  0.59280  0.56830  Biso   1.000  C
  C22      1.0000 0.05520  0.90720  0.93170  Biso   1.000  C
  C23      1.0000 0.44480  0.59280  0.93170  Biso   1.000  C
  C24      1.0000 0.59280  0.05520  0.93170  Biso   1.000  C
  C25      1.0000 0.44480  0.90720  0.56830  Biso   1.000  C
  C26      1.0000 0.59280  0.44480  0.56830  Biso   1.000  C
  C27      1.0000 0.90720  0.05520  0.56830  Biso   1.000  C
  C28      1.0000 0.90720  0.44480  0.93170  Biso   1.000  C
  C29      1.0000 0.94480  0.40720  0.43170  Biso   1.000  C
  C30      1.0000 0.94480  0.09280  0.06830  Biso   1.000  C
  C31      1.0000 0.55520  0.40720  0.06830  Biso   1.000  C
  C32      1.0000 0.40720  0.94480  0.06830  Biso   1.000  C
  H17      1.0000 0.53410  0.15150  0.45010  Biso   1.000  H
  H18      1.0000 0.34850  0.53410  0.45010  Biso   1.000  H
  H19      1.0000 0.15150  0.96590  0.45010  Biso   1.000  H
  H20      1.0000 0.15150  0.53410  0.04990  Biso   1.000  H
  H21      1.0000 0.03410  0.65150  0.54990  Biso   1.000  H
  H22      1.0000 0.03410  0.84850  0.95010  Biso   1.000  H
  H23      1.0000 0.46590  0.65150  0.95010  Biso   1.000  H
  H24      1.0000 0.65150  0.03410  0.95010  Biso   1.000  H
  H25      1.0000 0.46590  0.84850  0.54990  Biso   1.000  H
  H26      1.0000 0.65150  0.46590  0.54990  Biso   1.000  H
  H27      1.0000 0.84850  0.03410  0.54990  Biso   1.000  H
  H28      1.0000 0.84850  0.46590  0.95010  Biso   1.000  H
  H29      1.0000 0.96590  0.34850  0.45010  Biso   1.000  H
  H30      1.0000 0.96590  0.15150  0.04990  Biso   1.000  H
  H31      1.0000 0.53410  0.34850  0.04990  Biso   1.000  H
  H32      1.0000 0.34850  0.96590  0.04990  Biso   1.000  H
  C33      1.0000 0.61030  0.02780  0.46780  Biso   1.000  C
  C34      1.0000 0.47220  0.61030  0.46780  Biso   1.000  C
  C35      1.0000 0.02780  0.88970  0.46780  Biso   1.000  C
  C36      1.0000 0.02780  0.61030  0.03220  Biso   1.000  C
  C37      1.0000 0.11030  0.52780  0.53220  Biso   1.000  C
  C38      1.0000 0.11030  0.97220  0.96780  Biso   1.000  C
  C39      1.0000 0.38970  0.52780  0.96780  Biso   1.000  C
  C40      1.0000 0.52780  0.11030  0.96780  Biso   1.000  C
  C41      1.0000 0.38970  0.97220  0.53220  Biso   1.000  C
  C42      1.0000 0.52780  0.38970  0.53220  Biso   1.000  C
  C43      1.0000 0.97220  0.11030  0.53220  Biso   1.000  C
  C44      1.0000 0.97220  0.38970  0.96780  Biso   1.000  C
  C45      1.0000 0.88970  0.47220  0.46780  Biso   1.000  C
  C46      1.0000 0.88970  0.02780  0.03220  Biso   1.000  C
  C47      1.0000 0.61030  0.47220  0.03220  Biso   1.000  C
  C48      1.0000 0.47220  0.88970  0.03220  Biso   1.000  C
  C49      1.0000 0.63810  0.94300  0.43820  Biso   1.000  C
  C50      1.0000 0.55700  0.63810  0.43820  Biso   1.000  C
  C51      1.0000 0.94300  0.86190  0.43820  Biso   1.000  C
  C52      1.0000 0.94300  0.63810  0.06180  Biso   1.000  C
  C53      1.0000 0.13810  0.44300  0.56180  Biso   1.000  C
  C54      1.0000 0.13810  0.05700  0.93820  Biso   1.000  C
  C55      1.0000 0.36190  0.44300  0.93820  Biso   1.000  C
  C56      1.0000 0.44300  0.13810  0.93820  Biso   1.000  C
  C57      1.0000 0.36190  0.05700  0.56180  Biso   1.000  C
  C58      1.0000 0.44300  0.36190  0.56180  Biso   1.000  C
  C59      1.0000 0.05700  0.13810  0.56180  Biso   1.000  C
  C60      1.0000 0.05700  0.36190  0.93820  Biso   1.000  C
  C61      1.0000 0.86190  0.55700  0.43820  Biso   1.000  C
  C62      1.0000 0.86190  0.94300  0.06180  Biso   1.000  C
  C63      1.0000 0.63810  0.55700  0.06180  Biso   1.000  C
  C64      1.0000 0.55700  0.86190  0.06180  Biso   1.000  C
  H33      1.0000 0.67420  0.89640  0.46110  Biso   1.000  H
  H34      1.0000 0.60360  0.67420  0.46110  Biso   1.000  H
  H35      1.0000 0.89640  0.82580  0.46110  Biso   1.000  H
  H36      1.0000 0.89640  0.67420  0.03890  Biso   1.000  H
  H37      1.0000 0.17420  0.39640  0.53890  Biso   1.000  H
  H38      1.0000 0.17420  0.10360  0.96110  Biso   1.000  H
  H39      1.0000 0.32580  0.39640  0.96110  Biso   1.000  H
  H40      1.0000 0.39640  0.17420  0.96110  Biso   1.000  H
  H41      1.0000 0.32580  0.10360  0.53890  Biso   1.000  H
  H42      1.0000 0.39640  0.32580  0.53890  Biso   1.000  H
  H43      1.0000 0.10360  0.17420  0.53890  Biso   1.000  H
  H44      1.0000 0.10360  0.32580  0.96110  Biso   1.000  H
  H45      1.0000 0.82580  0.60360  0.46110  Biso   1.000  H
  H46      1.0000 0.82580  0.89640  0.03890  Biso   1.000  H
  H47      1.0000 0.67420  0.60360  0.03890  Biso   1.000  H
  H48      1.0000 0.60360  0.82580  0.03890  Biso   1.000  H
  C65      1.0000 0.61270  0.92540  0.37350  Biso   1.000  C
  C66      1.0000 0.57460  0.61270  0.37350  Biso   1.000  C
  C67      1.0000 0.92540  0.88730  0.37350  Biso   1.000  C
  C68      1.0000 0.92540  0.61270  0.12650  Biso   1.000  C
  C69      1.0000 0.11270  0.42540  0.62650  Biso   1.000  C
  C70      1.0000 0.11270  0.07460  0.87350  Biso   1.000  C
  C71      1.0000 0.38730  0.42540  0.87350  Biso   1.000  C
  C72      1.0000 0.42540  0.11270  0.87350  Biso   1.000  C
  C73      1.0000 0.38730  0.07460  0.62650  Biso   1.000  C
  C74      1.0000 0.42540  0.38730  0.62650  Biso   1.000  C
  C75      1.0000 0.07460  0.11270  0.62650  Biso   1.000  C
  C76      1.0000 0.07460  0.38730  0.87350  Biso   1.000  C
  C77      1.0000 0.88730  0.57460  0.37350  Biso   1.000  C
  C78      1.0000 0.88730  0.92540  0.12650  Biso   1.000  C
  C79      1.0000 0.61270  0.57460  0.12650  Biso   1.000  C
  C80      1.0000 0.57460  0.88730  0.12650  Biso   1.000  C
  H49      1.0000 0.63260  0.86700  0.35410  Biso   1.000  H
  H50      1.0000 0.63300  0.63260  0.35410  Biso   1.000  H
  H51      1.0000 0.86700  0.86740  0.35410  Biso   1.000  H
  H52      1.0000 0.86700  0.63260  0.14590  Biso   1.000  H
  H53      1.0000 0.13260  0.36700  0.64590  Biso   1.000  H
  H54      1.0000 0.13260  0.13300  0.85410  Biso   1.000  H
  H55      1.0000 0.36740  0.36700  0.85410  Biso   1.000  H
  H56      1.0000 0.36700  0.13260  0.85410  Biso   1.000  H
  H57      1.0000 0.36740  0.13300  0.64590  Biso   1.000  H
  H58      1.0000 0.36700  0.36740  0.64590  Biso   1.000  H
  H59      1.0000 0.13300  0.13260  0.64590  Biso   1.000  H
  H60      1.0000 0.13300  0.36740  0.85410  Biso   1.000  H
  H61      1.0000 0.86740  0.63300  0.35410  Biso   1.000  H
  H62      1.0000 0.86740  0.86700  0.14590  Biso   1.000  H
  H63      1.0000 0.63260  0.63300  0.14590  Biso   1.000  H
  H64      1.0000 0.63300  0.86740  0.14590  Biso   1.000  H
  C81      1.0000 0.63780  0.04750  0.53580  Biso   1.000  C
  C82      1.0000 0.45250  0.63780  0.53580  Biso   1.000  C
  C83      1.0000 0.04750  0.86220  0.53580  Biso   1.000  C
  C84      1.0000 0.04750  0.63780  0.96420  Biso   1.000  C
  C85      1.0000 0.13780  0.54750  0.46420  Biso   1.000  C
  C86      1.0000 0.13780  0.95250  0.03580  Biso   1.000  C
  C87      1.0000 0.36220  0.54750  0.03580  Biso   1.000  C
  C88      1.0000 0.54750  0.13780  0.03580  Biso   1.000  C
  C89      1.0000 0.36220  0.95250  0.46420  Biso   1.000  C
  C90      1.0000 0.54750  0.36220  0.46420  Biso   1.000  C
  C91      1.0000 0.95250  0.13780  0.46420  Biso   1.000  C
  C92      1.0000 0.95250  0.36220  0.03580  Biso   1.000  C
  C93      1.0000 0.86220  0.45250  0.53580  Biso   1.000  C
  C94      1.0000 0.86220  0.04750  0.96420  Biso   1.000  C
  C95      1.0000 0.63780  0.45250  0.96420  Biso   1.000  C
  C96      1.0000 0.45250  0.86220  0.96420  Biso   1.000  C
  H65      1.0000 0.66630  0.99590  0.55860  Biso   1.000  H
  H66      1.0000 0.50410  0.66630  0.55860  Biso   1.000  H
  H67      1.0000 0.99590  0.83370  0.55860  Biso   1.000  H
  H68      1.0000 0.99590  0.66630  0.94140  Biso   1.000  H
  H69      1.0000 0.16630  0.49590  0.44140  Biso   1.000  H
  H70      1.0000 0.16630  0.00410  0.05860  Biso   1.000  H
  H71      1.0000 0.33370  0.49590  0.05860  Biso   1.000  H
  H72      1.0000 0.49590  0.16630  0.05860  Biso   1.000  H
  H73      1.0000 0.33370  0.00410  0.44140  Biso   1.000  H
  H74      1.0000 0.49590  0.33370  0.44140  Biso   1.000  H
  H75      1.0000 0.00410  0.16630  0.44140  Biso   1.000  H
  H76      1.0000 0.00410  0.33370  0.05860  Biso   1.000  H
  H77      1.0000 0.83370  0.50410  0.55860  Biso   1.000  H
  H78      1.0000 0.83370  0.99590  0.94140  Biso   1.000  H
  H79      1.0000 0.66630  0.50410  0.94140  Biso   1.000  H
  H80      1.0000 0.50410  0.83370  0.94140  Biso   1.000  H
  C97      1.0000 0.62640  0.13030  0.56740  Biso   1.000  C
  C98      1.0000 0.36970  0.62640  0.56740  Biso   1.000  C
  C99      1.0000 0.13030  0.87360  0.56740  Biso   1.000  C
  C100     1.0000 0.13030  0.62640  0.93260  Biso   1.000  C
  C101     1.0000 0.12640  0.63030  0.43260  Biso   1.000  C
  C102     1.0000 0.12640  0.86970  0.06740  Biso   1.000  C
  C103     1.0000 0.37360  0.63030  0.06740  Biso   1.000  C
  C104     1.0000 0.63030  0.12640  0.06740  Biso   1.000  C
  C105     1.0000 0.37360  0.86970  0.43260  Biso   1.000  C
  C106     1.0000 0.63030  0.37360  0.43260  Biso   1.000  C
  C107     1.0000 0.86970  0.12640  0.43260  Biso   1.000  C
  C108     1.0000 0.86970  0.37360  0.06740  Biso   1.000  C
  C109     1.0000 0.87360  0.36970  0.56740  Biso   1.000  C
  C110     1.0000 0.87360  0.13030  0.93260  Biso   1.000  C
  C111     1.0000 0.62640  0.36970  0.93260  Biso   1.000  C
  C112     1.0000 0.36970  0.87360  0.93260  Biso   1.000  C
  H81      1.0000 0.60000  0.18360  0.54520  Biso   1.000  H
  H82      1.0000 0.31640  0.60000  0.54520  Biso   1.000  H
  H83      1.0000 0.18360  0.90000  0.54520  Biso   1.000  H
  H84      1.0000 0.18360  0.60000  0.95480  Biso   1.000  H
  H85      1.0000 0.10000  0.68360  0.45480  Biso   1.000  H
  H86      1.0000 0.10000  0.81640  0.04520  Biso   1.000  H
  H87      1.0000 0.40000  0.68360  0.04520  Biso   1.000  H
  H88      1.0000 0.68360  0.10000  0.04520  Biso   1.000  H
  H89      1.0000 0.40000  0.81640  0.45480  Biso   1.000  H
  H90      1.0000 0.68360  0.40000  0.45480  Biso   1.000  H
  H91      1.0000 0.81640  0.10000  0.45480  Biso   1.000  H
  H92      1.0000 0.81640  0.40000  0.04520  Biso   1.000  H
  H93      1.0000 0.90000  0.31640  0.54520  Biso   1.000  H
  H94      1.0000 0.90000  0.18360  0.95480  Biso   1.000  H
  H95      1.0000 0.60000  0.31640  0.95480  Biso   1.000  H
  H96      1.0000 0.31640  0.90000  0.95480  Biso   1.000  H
  C113     1.0000 0.65310  0.14380  0.63690  Biso   1.000  C
  C114     1.0000 0.35620  0.65310  0.63690  Biso   1.000  C
  C115     1.0000 0.14380  0.84690  0.63690  Biso   1.000  C
  C116     1.0000 0.14380  0.65310  0.86310  Biso   1.000  C
  C117     1.0000 0.15310  0.64380  0.36310  Biso   1.000  C
  C118     1.0000 0.15310  0.85620  0.13690  Biso   1.000  C
  C119     1.0000 0.34690  0.64380  0.13690  Biso   1.000  C
  C120     1.0000 0.64380  0.15310  0.13690  Biso   1.000  C
  C121     1.0000 0.34690  0.85620  0.36310  Biso   1.000  C
  C122     1.0000 0.64380  0.34690  0.36310  Biso   1.000  C
  C123     1.0000 0.85620  0.15310  0.36310  Biso   1.000  C
  C124     1.0000 0.85620  0.34690  0.13690  Biso   1.000  C
  C125     1.0000 0.84690  0.35620  0.63690  Biso   1.000  C
  C126     1.0000 0.84690  0.14380  0.86310  Biso   1.000  C
  C127     1.0000 0.65310  0.35620  0.86310  Biso   1.000  C
  C128     1.0000 0.35620  0.84690  0.86310  Biso   1.000  C
  O33      1.0000 0.75000  0.90390  0.75000  Biso   1.000  O
  O34      1.0000 0.59610  0.75000  0.75000  Biso   1.000  O
  O35      1.0000 0.90390  0.75000  0.75000  Biso   1.000  O
  O36      1.0000 0.25000  0.40390  0.25000  Biso   1.000  O
  O37      1.0000 0.25000  0.09610  0.25000  Biso   1.000  O
  O38      1.0000 0.40390  0.25000  0.25000  Biso   1.000  O
  O39      1.0000 0.09610  0.25000  0.25000  Biso   1.000  O
  O40      1.0000 0.75000  0.59610  0.75000  Biso   1.000  O
  H97      1.0000 0.71890  0.88790  0.78330  Biso   1.000  H
  H98      1.0000 0.61210  0.71890  0.78330  Biso   1.000  H
  H99      1.0000 0.88790  0.78110  0.78330  Biso   1.000  H
  H100     1.0000 0.88790  0.71890  0.71670  Biso   1.000  H
  H101     1.0000 0.21890  0.38790  0.21670  Biso   1.000  H
  H102     1.0000 0.21890  0.11210  0.28330  Biso   1.000  H
  H103     1.0000 0.28110  0.38790  0.28330  Biso   1.000  H
  H104     1.0000 0.38790  0.21890  0.28330  Biso   1.000  H
  H105     1.0000 0.28110  0.11210  0.21670  Biso   1.000  H
  H106     1.0000 0.38790  0.28110  0.21670  Biso   1.000  H
  H107     1.0000 0.11210  0.21890  0.21670  Biso   1.000  H
  H108     1.0000 0.11210  0.28110  0.28330  Biso   1.000  H
  H109     1.0000 0.78110  0.61210  0.78330  Biso   1.000  H
  H110     1.0000 0.78110  0.88790  0.71670  Biso   1.000  H
  H111     1.0000 0.71890  0.61210  0.71670  Biso   1.000  H
  H112     1.0000 0.61210  0.78110  0.71670  Biso   1.000  H
  B1       1.0000 0.25000  0.25000  0.75000  Biso   1.000  B
  B2       1.0000 0.75000  0.75000  0.25000  Biso   1.000  B
  F1       1.0000 0.25000  0.25000  0.67660  Biso   1.000  F
  F2       1.0000 0.25000  0.25000  0.82340  Biso   1.000  F
  F3       1.0000 0.75000  0.75000  0.32340  Biso   1.000  F
  F4       1.0000 0.75000  0.75000  0.17660  Biso   1.000  F
  F5       1.0000 0.25000  0.12930  0.75000  Biso   1.000  F
  F6       1.0000 0.37070  0.25000  0.75000  Biso   1.000  F
  F7       1.0000 0.12930  0.25000  0.75000  Biso   1.000  F
  F8       1.0000 0.75000  0.62930  0.25000  Biso   1.000  F
  F9       1.0000 0.75000  0.87070  0.25000  Biso   1.000  F
  F10      1.0000 0.62930  0.75000  0.25000  Biso   1.000  F
  F11      1.0000 0.87070  0.75000  0.25000  Biso   1.000  F
  F12      1.0000 0.25000  0.37070  0.75000  Biso   1.000  F
  B3       1.0000 0.75000  0.75000  0.59460  Biso   1.000  B
  B4       1.0000 0.75000  0.75000  0.90540  Biso   1.000  B
  B5       1.0000 0.25000  0.25000  0.40540  Biso   1.000  B
  B6       1.0000 0.25000  0.25000  0.09460  Biso   1.000  B
  F13      1.0000 0.84740  0.72000  0.58680  Biso   1.000  F
  F14      1.0000 0.78000  0.84740  0.58680  Biso   1.000  F
  F15      1.0000 0.72000  0.65260  0.58680  Biso   1.000  F
  F16      1.0000 0.72000  0.84740  0.91320  Biso   1.000  F
  F17      1.0000 0.34740  0.22000  0.41320  Biso   1.000  F
  F18      1.0000 0.34740  0.28000  0.08680  Biso   1.000  F
  F19      1.0000 0.15260  0.22000  0.08680  Biso   1.000  F
  F20      1.0000 0.22000  0.34740  0.08680  Biso   1.000  F
  F21      1.0000 0.15260  0.28000  0.41320  Biso   1.000  F
  F22      1.0000 0.22000  0.15260  0.41320  Biso   1.000  F
  F23      1.0000 0.28000  0.34740  0.41320  Biso   1.000  F
  F24      1.0000 0.28000  0.15260  0.08680  Biso   1.000  F
  F25      1.0000 0.65260  0.78000  0.58680  Biso   1.000  F
  F26      1.0000 0.65260  0.72000  0.91320  Biso   1.000  F
  F27      1.0000 0.84740  0.78000  0.91320  Biso   1.000  F
  F28      1.0000 0.78000  0.65260  0.91320  Biso   1.000  F
  F29      1.0000 0.75000  0.75000  0.52910  Biso   1.000  F
  F30      1.0000 0.75000  0.75000  0.97090  Biso   1.000  F
  F31      1.0000 0.25000  0.25000  0.47090  Biso   1.000  F
  F32      1.0000 0.25000  0.25000  0.02910  Biso   1.000  F
  F33      1.0000 0.79500  0.68100  0.62300  Biso   1.000  F
  F34      1.0000 0.81900  0.79500  0.62300  Biso   1.000  F
  F35      1.0000 0.68100  0.70500  0.62300  Biso   1.000  F
  F36      1.0000 0.68100  0.79500  0.87700  Biso   1.000  F
  F37      1.0000 0.29500  0.18100  0.37700  Biso   1.000  F
  F38      1.0000 0.29500  0.31900  0.12300  Biso   1.000  F
  F39      1.0000 0.20500  0.18100  0.12300  Biso   1.000  F
  F40      1.0000 0.18100  0.29500  0.12300  Biso   1.000  F
  F41      1.0000 0.20500  0.31900  0.37700  Biso   1.000  F
  F42      1.0000 0.18100  0.20500  0.37700  Biso   1.000  F
  F43      1.0000 0.31900  0.29500  0.37700  Biso   1.000  F
  F44      1.0000 0.31900  0.20500  0.12300  Biso   1.000  F
  F45      1.0000 0.70500  0.81900  0.62300  Biso   1.000  F
  F46      1.0000 0.70500  0.68100  0.87700  Biso   1.000  F
  F47      1.0000 0.79500  0.81900  0.87700  Biso   1.000  F
  F48      1.0000 0.81900  0.70500  0.87700  Biso   1.000  F
