data_image0
_cell_length_a       8.6907
_cell_length_b       8.8881
_cell_length_c       14.374
_cell_angle_alpha    90.43
_cell_angle_beta     91.41
_cell_angle_gamma    109.99

_symmetry_space_group_name_H-M    "P 1"
_symmetry_int_tables_number       1

loop_
  _symmetry_equiv_pos_as_xyz
  'x, y, z'

loop_
  _atom_site_label
  _atom_site_occupancy
  _atom_site_fract_x
  _atom_site_fract_y
  _atom_site_fract_z
  _atom_site_thermal_displace_type
  _atom_site_B_iso_or_equiv
  _atom_site_type_symbol
  Cu1      1.0000 0.42613  0.40228  0.15891  Biso   1.000  Cu
  Cu2      1.0000 0.57387  0.59772  0.84109  Biso   1.000  Cu
  Cu3      1.0000 0.95637  0.08431  0.34093  Biso   1.000  Cu
  Cu4      1.0000 0.04363  0.91569  0.65907  Biso   1.000  Cu
  N1       1.0000 0.75740  0.49150  0.26530  Biso   1.000  N
  N2       1.0000 0.24260  0.50850  0.73470  Biso   1.000  N
  N3       1.0000 0.59930  0.49210  0.26300  Biso   1.000  N
  N4       1.0000 0.40070  0.50790  0.73700  Biso   1.000  N
  N5       1.0000 0.64990  0.94210  0.22310  Biso   1.000  N
  N6       1.0000 0.35010  0.05790  0.77690  Biso   1.000  N
  N7       1.0000 0.71760  0.02900  0.30050  Biso   1.000  N
  N8       1.0000 0.28240  0.97100  0.69950  Biso   1.000  N
  N9       1.0000 0.11970  0.19900  0.25680  Biso   1.000  N
  N10      1.0000 0.88030  0.80100  0.74320  Biso   1.000  N
  N11      1.0000 0.98670  0.02120  0.46390  Biso   1.000  N
  N12      1.0000 0.01330  0.97880  0.53610  Biso   1.000  N
  C1       1.0000 0.84230  0.57260  0.33900  Biso   1.000  C
  C2       1.0000 0.15770  0.42740  0.66100  Biso   1.000  C
  C3       1.0000 0.74020  0.62950  0.38880  Biso   1.000  C
  C4       1.0000 0.25980  0.37050  0.61120  Biso   1.000  C
  H1       1.0000 0.76540  0.69120  0.44410  Biso   1.000  H
  H2       1.0000 0.23460  0.30880  0.55590  Biso   1.000  H
  C5       1.0000 0.59150  0.57600  0.33940  Biso   1.000  C
  C6       1.0000 0.40850  0.42400  0.66060  Biso   1.000  C
  C7       1.0000 0.02040  0.58970  0.35810  Biso   1.000  C
  C8       1.0000 0.97960  0.41030  0.64190  Biso   1.000  C
  H3       1.0000 0.03100  0.48450  0.35810  Biso   1.000  H
  H4       1.0000 0.96900  0.51550  0.64190  Biso   1.000  H
  H5       1.0000 0.05620  0.64170  0.41820  Biso   1.000  H
  H6       1.0000 0.94380  0.35830  0.58180  Biso   1.000  H
  H7       1.0000 0.08760  0.65370  0.31000  Biso   1.000  H
  H8       1.0000 0.91240  0.34630  0.69000  Biso   1.000  H
  C9       1.0000 0.43640  0.60080  0.36350  Biso   1.000  C
  C10      1.0000 0.56360  0.39920  0.63650  Biso   1.000  C
  H9       1.0000 0.35110  0.54550  0.31800  Biso   1.000  H
  H10      1.0000 0.64890  0.45450  0.68200  Biso   1.000  H
  H11      1.0000 0.45280  0.71430  0.36340  Biso   1.000  H
  H12      1.0000 0.54720  0.28570  0.63660  Biso   1.000  H
  H13      1.0000 0.40410  0.55870  0.42480  Biso   1.000  H
  H14      1.0000 0.59590  0.44130  0.57520  Biso   1.000  H
  C11      1.0000 0.81120  0.41180  0.19030  Biso   1.000  C
  C12      1.0000 0.18880  0.58820  0.80970  Biso   1.000  C
  H15      1.0000 0.71590  0.32750  0.16260  Biso   1.000  H
  H16      1.0000 0.28410  0.67250  0.83740  Biso   1.000  H
  H17      1.0000 0.88600  0.36070  0.21620  Biso   1.000  H
  H18      1.0000 0.11400  0.63930  0.78380  Biso   1.000  H
  C13      1.0000 0.89700  0.52580  0.11480  Biso   1.000  C
  C14      1.0000 0.10300  0.47420  0.88520  Biso   1.000  C
  H19      1.0000 0.98870  0.61330  0.14300  Biso   1.000  H
  H20      1.0000 0.01130  0.38670  0.85700  Biso   1.000  H
  H21      1.0000 0.82020  0.57250  0.08650  Biso   1.000  H
  H22      1.0000 0.17980  0.42750  0.91350  Biso   1.000  H
  C15      1.0000 0.96090  0.44440  0.03940  Biso   1.000  C
  C16      1.0000 0.03910  0.55560  0.96060  Biso   1.000  C
  H23      1.0000 0.87010  0.35310  0.01370  Biso   1.000  H
  H24      1.0000 0.12990  0.64690  0.98630  Biso   1.000  H
  H25      1.0000 0.04200  0.40280  0.06720  Biso   1.000  H
  H26      1.0000 0.95800  0.59720  0.93280  Biso   1.000  H
  C17      1.0000 0.49150  0.93370  0.20930  Biso   1.000  C
  C18      1.0000 0.50850  0.06630  0.79070  Biso   1.000  C
  C19      1.0000 0.45940  0.01840  0.28290  Biso   1.000  C
  C20      1.0000 0.54060  0.98160  0.71710  Biso   1.000  C
  H27      1.0000 0.35950  0.03370  0.29390  Biso   1.000  H
  H28      1.0000 0.64050  0.96630  0.70610  Biso   1.000  H
  C21      1.0000 0.60020  0.07580  0.33690  Biso   1.000  C
  C22      1.0000 0.39980  0.92420  0.66310  Biso   1.000  C
  C23      1.0000 0.38790  0.84230  0.13050  Biso   1.000  C
  C24      1.0000 0.61210  0.15770  0.86950  Biso   1.000  C
  H29      1.0000 0.37340  0.72970  0.13650  Biso   1.000  H
  H30      1.0000 0.62660  0.27030  0.86350  Biso   1.000  H
  H31      1.0000 0.44060  0.88120  0.07250  Biso   1.000  H
  H32      1.0000 0.55940  0.11880  0.92750  Biso   1.000  H
  H33      1.0000 0.28200  0.85610  0.13100  Biso   1.000  H
  H34      1.0000 0.71800  0.14390  0.86900  Biso   1.000  H
  C25      1.0000 0.63350  0.17250  0.42540  Biso   1.000  C
  C26      1.0000 0.36650  0.82750  0.57460  Biso   1.000  C
  H35      1.0000 0.70190  0.13530  0.46700  Biso   1.000  H
  H36      1.0000 0.29810  0.86470  0.53300  Biso   1.000  H
  H37      1.0000 0.53080  0.16060  0.45470  Biso   1.000  H
  H38      1.0000 0.46920  0.83940  0.54530  Biso   1.000  H
  H39      1.0000 0.68950  0.28440  0.41170  Biso   1.000  H
  H40      1.0000 0.31050  0.71560  0.58830  Biso   1.000  H
  C27      1.0000 0.74670  0.87900  0.16290  Biso   1.000  C
  C28      1.0000 0.25330  0.12100  0.83710  Biso   1.000  C
  H41      1.0000 0.67490  0.77930  0.13310  Biso   1.000  H
  H42      1.0000 0.32510  0.22070  0.86690  Biso   1.000  H
  H43      1.0000 0.82940  0.85360  0.20090  Biso   1.000  H
  H44      1.0000 0.17060  0.14640  0.79910  Biso   1.000  H
  C29      1.0000 0.83150  0.99540  0.08810  Biso   1.000  C
  C30      1.0000 0.16850  0.00460  0.91190  Biso   1.000  C
  H45      1.0000 0.89010  0.10030  0.11700  Biso   1.000  H
  H46      1.0000 0.10990  0.89970  0.88300  Biso   1.000  H
  H47      1.0000 0.74890  0.00800  0.04420  Biso   1.000  H
  H48      1.0000 0.25110  0.99200  0.95580  Biso   1.000  H
  C31      1.0000 0.95240  0.93900  0.03500  Biso   1.000  C
  C32      1.0000 0.04760  0.06100  0.96500  Biso   1.000  C
  H49      1.0000 0.02960  0.91820  0.07960  Biso   1.000  H
  H50      1.0000 0.97040  0.08180  0.92040  Biso   1.000  H
  H51      1.0000 0.89230  0.83810  0.00220  Biso   1.000  H
  H52      1.0000 0.10770  0.16190  0.99780  Biso   1.000  H
  C33      1.0000 0.22920  0.27310  0.21400  Biso   1.000  C
  C34      1.0000 0.77080  0.72690  0.78600  Biso   1.000  C
  C35      1.0000 0.48500  0.47500  0.03690  Biso   1.000  C
  C36      1.0000 0.51500  0.52500  0.96310  Biso   1.000  C
