data_image0
_cell_length_a       7.451
_cell_length_b       14.154
_cell_length_c       16.171
_cell_angle_alpha    68.799
_cell_angle_beta     80.946
_cell_angle_gamma    81.619

_symmetry_space_group_name_H-M    "P 1"
_symmetry_int_tables_number       1

loop_
  _symmetry_equiv_pos_as_xyz
  'x, y, z'

loop_
  _atom_site_label
  _atom_site_occupancy
  _atom_site_fract_x
  _atom_site_fract_y
  _atom_site_fract_z
  _atom_site_thermal_displace_type
  _atom_site_B_iso_or_equiv
  _atom_site_type_symbol
  C1       1.0000 0.50450  0.99120  0.24980  Biso   1.000  C
  C2       1.0000 0.49550  0.00880  0.75020  Biso   1.000  C
  C3       1.0000 0.72710  0.26960  0.02070  Biso   1.000  C
  C4       1.0000 0.27290  0.73040  0.97930  Biso   1.000  C
  C5       1.0000 0.93430  0.50540  0.74350  Biso   1.000  C
  C6       1.0000 0.06570  0.49460  0.25650  Biso   1.000  C
  C7       1.0000 0.11800  0.78410  0.49030  Biso   1.000  C
  C8       1.0000 0.88200  0.21590  0.50970  Biso   1.000  C
  C9       1.0000 0.22820  0.93920  0.09790  Biso   1.000  C
  C10      1.0000 0.77180  0.06080  0.90210  Biso   1.000  C
  H1       1.0000 0.32090  0.96360  0.05230  Biso   1.000  H
  H2       1.0000 0.67910  0.03640  0.94770  Biso   1.000  H
  C11      1.0000 0.06360  0.99850  0.10170  Biso   1.000  C
  C12      1.0000 0.93640  0.00150  0.89830  Biso   1.000  C
  H3       1.0000 0.04910  0.06150  0.05660  Biso   1.000  H
  H4       1.0000 0.95090  0.93850  0.94340  Biso   1.000  H
  C13      1.0000 0.95240  0.87980  0.22680  Biso   1.000  C
  C14      1.0000 0.04760  0.12020  0.77320  Biso   1.000  C
  H5       1.0000 0.85670  0.85720  0.27110  Biso   1.000  H
  H6       1.0000 0.14330  0.14280  0.72890  Biso   1.000  H
  C15      1.0000 0.11290  0.81510  0.22990  Biso   1.000  C
  C16      1.0000 0.88710  0.18490  0.77010  Biso   1.000  C
  H7       1.0000 0.12460  0.75350  0.27690  Biso   1.000  H
  H8       1.0000 0.87540  0.24650  0.72310  Biso   1.000  H
  C17      1.0000 0.25420  0.84300  0.16270  Biso   1.000  C
  C18      1.0000 0.74580  0.15700  0.83730  Biso   1.000  C
  C19      1.0000 0.42920  0.77320  0.16270  Biso   1.000  C
  C20      1.0000 0.57080  0.22680  0.83730  Biso   1.000  C
  H9       1.0000 0.40360  0.71620  0.14810  Biso   1.000  H
  H10      1.0000 0.59640  0.28380  0.85190  Biso   1.000  H
  H11      1.0000 0.46400  0.74620  0.22280  Biso   1.000  H
  H12      1.0000 0.53600  0.25380  0.77720  Biso   1.000  H
  C21      1.0000 0.59360  0.82060  0.09870  Biso   1.000  C
  C22      1.0000 0.40640  0.17940  0.90130  Biso   1.000  C
  H13      1.0000 0.56240  0.84650  0.03800  Biso   1.000  H
  H14      1.0000 0.43760  0.15350  0.96200  Biso   1.000  H
  H15      1.0000 0.62190  0.87760  0.11270  Biso   1.000  H
  H16      1.0000 0.37810  0.12240  0.88730  Biso   1.000  H
  C23      1.0000 0.76240  0.74290  0.10560  Biso   1.000  C
  C24      1.0000 0.23760  0.25710  0.89440  Biso   1.000  C
  H17      1.0000 0.86890  0.77910  0.07640  Biso   1.000  H
  H18      1.0000 0.13110  0.22090  0.92360  Biso   1.000  H
  H19      1.0000 0.77940  0.70860  0.16810  Biso   1.000  H
  H20      1.0000 0.22060  0.29140  0.83190  Biso   1.000  H
  C25      1.0000 0.75190  0.66380  0.06480  Biso   1.000  C
  C26      1.0000 0.24810  0.33620  0.93520  Biso   1.000  C
  C27      1.0000 0.79650  0.68430  0.97450  Biso   1.000  C
  C28      1.0000 0.20350  0.31570  0.02550  Biso   1.000  C
  H21      1.0000 0.83030  0.74810  0.93750  Biso   1.000  H
  H22      1.0000 0.16970  0.25190  0.06250  Biso   1.000  H
  C29      1.0000 0.79080  0.60960  0.93920  Biso   1.000  C
  C30      1.0000 0.20920  0.39040  0.06080  Biso   1.000  C
  H23      1.0000 0.82460  0.62510  0.87820  Biso   1.000  H
  H24      1.0000 0.17540  0.37490  0.12180  Biso   1.000  H
  C31      1.0000 0.69300  0.49900  0.07360  Biso   1.000  C
  C32      1.0000 0.30700  0.50100  0.92640  Biso   1.000  C
  H25      1.0000 0.65740  0.43510  0.10910  Biso   1.000  H
  H26      1.0000 0.34260  0.56490  0.89090  Biso   1.000  H
  C33      1.0000 0.69340  0.56860  0.11430  Biso   1.000  C
  C34      1.0000 0.30660  0.43140  0.88570  Biso   1.000  C
  H27      1.0000 0.65450  0.55220  0.17490  Biso   1.000  H
  H28      1.0000 0.34550  0.44780  0.82510  Biso   1.000  H
  C35      1.0000 0.33930  0.46240  0.42870  Biso   1.000  C
  C36      1.0000 0.66070  0.53760  0.57130  Biso   1.000  C
  H29      1.0000 0.37910  0.49070  0.36820  Biso   1.000  H
  H30      1.0000 0.62090  0.50930  0.63180  Biso   1.000  H
  C37      1.0000 0.25280  0.52470  0.47670  Biso   1.000  C
  C38      1.0000 0.74720  0.47530  0.52330  Biso   1.000  C
  H31      1.0000 0.23200  0.59430  0.44630  Biso   1.000  H
  H32      1.0000 0.76800  0.40570  0.55370  Biso   1.000  H
  C39      1.0000 0.23380  0.38710  0.60460  Biso   1.000  C
  C40      1.0000 0.76620  0.61290  0.39540  Biso   1.000  C
  H33      1.0000 0.19930  0.35910  0.66560  Biso   1.000  H
  H34      1.0000 0.80070  0.64090  0.33440  Biso   1.000  H
  C41      1.0000 0.31690  0.32270  0.56140  Biso   1.000  C
  C42      1.0000 0.68310  0.67730  0.43860  Biso   1.000  C
  H35      1.0000 0.34070  0.25380  0.59340  Biso   1.000  H
  H36      1.0000 0.65930  0.74620  0.40660  Biso   1.000  H
  C43      1.0000 0.36460  0.35870  0.47240  Biso   1.000  C
  C44      1.0000 0.63540  0.64130  0.52760  Biso   1.000  C
  C45      1.0000 0.43250  0.28200  0.42480  Biso   1.000  C
  C46      1.0000 0.56750  0.71800  0.57520  Biso   1.000  C
  H37      1.0000 0.53140  0.23680  0.45510  Biso   1.000  H
  H38      1.0000 0.46860  0.76320  0.54490  Biso   1.000  H
  H39      1.0000 0.33400  0.24080  0.43190  Biso   1.000  H
  H40      1.0000 0.66600  0.75920  0.56810  Biso   1.000  H
  C47      1.0000 0.49670  0.32390  0.32960  Biso   1.000  C
  C48      1.0000 0.50330  0.67610  0.67040  Biso   1.000  C
  H41      1.0000 0.60800  0.35570  0.32210  Biso   1.000  H
  H42      1.0000 0.39200  0.64430  0.67790  Biso   1.000  H
  H43      1.0000 0.40560  0.37610  0.29950  Biso   1.000  H
  H44      1.0000 0.59440  0.62390  0.70050  Biso   1.000  H
  C49      1.0000 0.53460  0.24040  0.28540  Biso   1.000  C
  C50      1.0000 0.46540  0.75960  0.71460  Biso   1.000  C
  H45      1.0000 0.42720  0.20380  0.29880  Biso   1.000  H
  H46      1.0000 0.57280  0.79620  0.70120  Biso   1.000  H
  H47      1.0000 0.55510  0.27320  0.22110  Biso   1.000  H
  H48      1.0000 0.44490  0.72680  0.77890  Biso   1.000  H
  C51      1.0000 0.69710  0.16490  0.31630  Biso   1.000  C
  C52      1.0000 0.30290  0.83510  0.68370  Biso   1.000  C
  C53      1.0000 0.87000  0.17890  0.27470  Biso   1.000  C
  C54      1.0000 0.13000  0.82110  0.72530  Biso   1.000  C
  H49      1.0000 0.89010  0.23720  0.22510  Biso   1.000  H
  H50      1.0000 0.10990  0.76280  0.77490  Biso   1.000  H
  C55      1.0000 0.01410  0.10970  0.30380  Biso   1.000  C
  C56      1.0000 0.98590  0.89030  0.69620  Biso   1.000  C
  H51      1.0000 0.13050  0.12320  0.27490  Biso   1.000  H
  H52      1.0000 0.86950  0.87680  0.72510  Biso   1.000  H
  C57      1.0000 0.82420  0.00790  0.41570  Biso   1.000  C
  C58      1.0000 0.17580  0.99210  0.58430  Biso   1.000  C
  H53      1.0000 0.80760  0.94880  0.46480  Biso   1.000  H
  H54      1.0000 0.19240  0.05120  0.53520  Biso   1.000  H
  C59      1.0000 0.67330  0.07590  0.39060  Biso   1.000  C
  C60      1.0000 0.32670  0.92410  0.60940  Biso   1.000  C
  H55      1.0000 0.55860  0.06310  0.42220  Biso   1.000  H
  H56      1.0000 0.44140  0.93690  0.57780  Biso   1.000  H
  Cu1      1.0000 0.67795  0.06059  0.16426  Biso   1.000  Cu
  Cu2      1.0000 0.32205  0.93941  0.83574  Biso   1.000  Cu
  Cu3      1.0000 0.77123  0.39812  0.93641  Biso   1.000  Cu
  Cu4      1.0000 0.22877  0.60188  0.06359  Biso   1.000  Cu
  Cu5      1.0000 0.04278  0.57853  0.63185  Biso   1.000  Cu
  Cu6      1.0000 0.95722  0.42147  0.36815  Biso   1.000  Cu
  Cu7      1.0000 0.19833  0.89951  0.39803  Biso   1.000  Cu
  Cu8      1.0000 0.80167  0.10049  0.60197  Biso   1.000  Cu
  N1       1.0000 0.07480  0.71140  0.54870  Biso   1.000  N
  N2       1.0000 0.92520  0.28860  0.45130  Biso   1.000  N
  N3       1.0000 0.86310  0.46000  0.81430  Biso   1.000  N
  N4       1.0000 0.13690  0.54000  0.18570  Biso   1.000  N
  N5       1.0000 0.70730  0.19060  0.07310  Biso   1.000  N
  N6       1.0000 0.29270  0.80940  0.92690  Biso   1.000  N
  N7       1.0000 0.40000  0.94970  0.31070  Biso   1.000  N
  N8       1.0000 0.60000  0.05030  0.68930  Biso   1.000  N
  N9       1.0000 0.92570  0.97120  0.16530  Biso   1.000  N
  N10      1.0000 0.07430  0.02880  0.83470  Biso   1.000  N
  N11      1.0000 0.73990  0.51610  0.98650  Biso   1.000  N
  N12      1.0000 0.26010  0.48390  0.01350  Biso   1.000  N
  N13      1.0000 0.19850  0.48800  0.56500  Biso   1.000  N
  N14      1.0000 0.80150  0.51200  0.43500  Biso   1.000  N
  N15      1.0000 0.99320  0.02190  0.37360  Biso   1.000  N
  N16      1.0000 0.00680  0.97810  0.62640  Biso   1.000  N
