data_image0
_cell_length_a       7.429
_cell_length_b       14.1167
_cell_length_c       16.1356
_cell_angle_alpha    68.734
_cell_angle_beta     80.866
_cell_angle_gamma    81.606

_symmetry_space_group_name_H-M    "P 1"
_symmetry_int_tables_number       1

loop_
  _symmetry_equiv_pos_as_xyz
  'x, y, z'

loop_
  _atom_site_label
  _atom_site_occupancy
  _atom_site_fract_x
  _atom_site_fract_y
  _atom_site_fract_z
  _atom_site_thermal_displace_type
  _atom_site_B_iso_or_equiv
  _atom_site_type_symbol
  Cu1      1.0000 0.17737  0.06101  0.66400  Biso   1.000  Cu
  Cu2      1.0000 0.82263  0.93899  0.33600  Biso   1.000  Cu
  Cu3      1.0000 0.27167  0.39805  0.43640  Biso   1.000  Cu
  Cu4      1.0000 0.72833  0.60195  0.56360  Biso   1.000  Cu
  Cu5      1.0000 0.54303  0.57845  0.13158  Biso   1.000  Cu
  Cu6      1.0000 0.45697  0.42155  0.86842  Biso   1.000  Cu
  Cu7      1.0000 0.69757  0.89988  0.89781  Biso   1.000  Cu
  Cu8      1.0000 0.30243  0.10012  0.10219  Biso   1.000  Cu
  N1       1.0000 0.20570  0.19060  0.57209  Biso   1.000  N
  N2       1.0000 0.79430  0.80940  0.42791  Biso   1.000  N
  N3       1.0000 0.36160  0.46100  0.31362  Biso   1.000  N
  N4       1.0000 0.63840  0.53900  0.68638  Biso   1.000  N
  N5       1.0000 0.57350  0.71190  0.04713  Biso   1.000  N
  N6       1.0000 0.42650  0.28810  0.95287  Biso   1.000  N
  N7       1.0000 0.89710  0.94930  0.81010  Biso   1.000  N
  N8       1.0000 0.10290  0.05070  0.18990  Biso   1.000  N
  N9       1.0000 0.42530  0.97072  0.66494  Biso   1.000  N
  N10      1.0000 0.57470  0.02928  0.33506  Biso   1.000  N
  N11      1.0000 0.24140  0.51597  0.48745  Biso   1.000  N
  N12      1.0000 0.75860  0.48403  0.51255  Biso   1.000  N
  N13      1.0000 0.70050  0.48717  0.06464  Biso   1.000  N
  N14      1.0000 0.29950  0.51283  0.93536  Biso   1.000  N
  N15      1.0000 0.49420  0.02180  0.87335  Biso   1.000  N
  N16      1.0000 0.50580  0.97820  0.12665  Biso   1.000  N
  C1       1.0000 0.22800  0.26990  0.52020  Biso   1.000  C
  C2       1.0000 0.77200  0.73010  0.47980  Biso   1.000  C
  C3       1.0000 0.43220  0.50560  0.24448  Biso   1.000  C
  C4       1.0000 0.56780  0.49440  0.75552  Biso   1.000  C
  C5       1.0000 0.61740  0.78440  0.99110  Biso   1.000  C
  C6       1.0000 0.38260  0.21560  0.00890  Biso   1.000  C
  C7       1.0000 0.00270  0.98960  0.75230  Biso   1.000  C
  C8       1.0000 0.99730  0.01040  0.24770  Biso   1.000  C
  C9       1.0000 0.45360  0.87950  0.72810  Biso   1.000  C
  C10      1.0000 0.54640  0.12050  0.27190  Biso   1.000  C
  H1       1.0000 0.36030  0.85790  0.77440  Biso   1.000  H
  H2       1.0000 0.63970  0.14210  0.22560  Biso   1.000  H
  C11      1.0000 0.61110  0.81560  0.72890  Biso   1.000  C
  C12      1.0000 0.38890  0.18440  0.27110  Biso   1.000  C
  H3       1.0000 0.62120  0.75260  0.77470  Biso   1.000  H
  H4       1.0000 0.37880  0.24740  0.22530  Biso   1.000  H
  C13      1.0000 0.75540  0.84390  0.66241  Biso   1.000  C
  C14      1.0000 0.24460  0.15610  0.33759  Biso   1.000  C
  C15      1.0000 0.72680  0.93830  0.59760  Biso   1.000  C
  C16      1.0000 0.27320  0.06170  0.40240  Biso   1.000  C
  H5       1.0000 0.81820  0.96190  0.55070  Biso   1.000  H
  H6       1.0000 0.18180  0.03810  0.44930  Biso   1.000  H
  C17      1.0000 0.56470  0.99790  0.60150  Biso   1.000  C
  C18      1.0000 0.43530  0.00210  0.39850  Biso   1.000  C
  H7       1.0000 0.55150  0.06150  0.55670  Biso   1.000  H
  H8       1.0000 0.44850  0.93850  0.44330  Biso   1.000  H
  C19      1.0000 0.92800  0.77420  0.66350  Biso   1.000  C
  C20      1.0000 0.07200  0.22580  0.33650  Biso   1.000  C
  H9       1.0000 0.90150  0.71600  0.65050  Biso   1.000  H
  H10      1.0000 0.09850  0.28400  0.34950  Biso   1.000  H
  H11      1.0000 0.96340  0.74860  0.72360  Biso   1.000  H
  H12      1.0000 0.03660  0.25140  0.27640  Biso   1.000  H
  C21      1.0000 0.09080  0.81980  0.59890  Biso   1.000  C
  C22      1.0000 0.90920  0.18020  0.40110  Biso   1.000  C
  H13      1.0000 0.11890  0.87810  0.61120  Biso   1.000  H
  H14      1.0000 0.88110  0.12190  0.38880  Biso   1.000  H
  H15      1.0000 0.05810  0.84420  0.53830  Biso   1.000  H
  H16      1.0000 0.94190  0.15580  0.46170  Biso   1.000  H
  C23      1.0000 0.19190  0.49860  0.57510  Biso   1.000  C
  C24      1.0000 0.80810  0.50140  0.42490  Biso   1.000  C
  H17      1.0000 0.15280  0.43530  0.61080  Biso   1.000  H
  H18      1.0000 0.84720  0.56470  0.38920  Biso   1.000  H
  C25      1.0000 0.19580  0.56920  0.61440  Biso   1.000  C
  C26      1.0000 0.80420  0.43080  0.38560  Biso   1.000  C
  H19      1.0000 0.16010  0.55280  0.67550  Biso   1.000  H
  H20      1.0000 0.83990  0.44720  0.32450  Biso   1.000  H
  C27      1.0000 0.25220  0.66450  0.56450  Biso   1.000  C
  C28      1.0000 0.74780  0.33550  0.43550  Biso   1.000  C
  C29      1.0000 0.29720  0.68370  0.47440  Biso   1.000  C
  C30      1.0000 0.70280  0.31630  0.52560  Biso   1.000  C
  H21      1.0000 0.33230  0.74740  0.43710  Biso   1.000  H
  H22      1.0000 0.66770  0.25260  0.56290  Biso   1.000  H
  C31      1.0000 0.29100  0.60940  0.43900  Biso   1.000  C
  C32      1.0000 0.70900  0.39060  0.56100  Biso   1.000  C
  H23      1.0000 0.32300  0.62500  0.37770  Biso   1.000  H
  H24      1.0000 0.67700  0.37500  0.62230  Biso   1.000  H
  C33      1.0000 0.26190  0.74370  0.60510  Biso   1.000  C
  C34      1.0000 0.73810  0.25630  0.39490  Biso   1.000  C
  H25      1.0000 0.36730  0.78110  0.57520  Biso   1.000  H
  H26      1.0000 0.63270  0.21890  0.42480  Biso   1.000  H
  H27      1.0000 0.28040  0.70960  0.66760  Biso   1.000  H
  H28      1.0000 0.71960  0.29040  0.33240  Biso   1.000  H
  C35      1.0000 0.73350  0.38630  0.10470  Biso   1.000  C
  C36      1.0000 0.26650  0.61370  0.89530  Biso   1.000  C
  H29      1.0000 0.69750  0.35850  0.16580  Biso   1.000  H
  H30      1.0000 0.30250  0.64150  0.83420  Biso   1.000  H
  C37      1.0000 0.81590  0.32190  0.06200  Biso   1.000  C
  C38      1.0000 0.18410  0.67810  0.93800  Biso   1.000  C
  H31      1.0000 0.83920  0.25270  0.09430  Biso   1.000  H
  H32      1.0000 0.16080  0.74730  0.90570  Biso   1.000  H
  C39      1.0000 0.86440  0.35820  0.97230  Biso   1.000  C
  C40      1.0000 0.13560  0.64180  0.02770  Biso   1.000  C
  C41      1.0000 0.83670  0.46240  0.92910  Biso   1.000  C
  C42      1.0000 0.16330  0.53760  0.07090  Biso   1.000  C
  H33      1.0000 0.87270  0.49120  0.86810  Biso   1.000  H
  H34      1.0000 0.12730  0.50880  0.13190  Biso   1.000  H
  C43      1.0000 0.75510  0.52370  0.97740  Biso   1.000  C
  C44      1.0000 0.24490  0.47630  0.02260  Biso   1.000  C
  H35      1.0000 0.73750  0.59370  0.94740  Biso   1.000  H
  H36      1.0000 0.26250  0.40630  0.05260  Biso   1.000  H
  C45      1.0000 0.93270  0.28170  0.92430  Biso   1.000  C
  C46      1.0000 0.06730  0.71830  0.07570  Biso   1.000  C
  H37      1.0000 0.03180  0.23640  0.95460  Biso   1.000  H
  H38      1.0000 0.96820  0.76360  0.04540  Biso   1.000  H
  H39      1.0000 0.83390  0.24050  0.93130  Biso   1.000  H
  H40      1.0000 0.16610  0.75950  0.06870  Biso   1.000  H
  C47      1.0000 0.99680  0.32380  0.82950  Biso   1.000  C
  C48      1.0000 0.00320  0.67620  0.17050  Biso   1.000  C
  H41      1.0000 0.10910  0.35490  0.82210  Biso   1.000  H
  H42      1.0000 0.89090  0.64510  0.17790  Biso   1.000  H
  H43      1.0000 0.90600  0.37670  0.79960  Biso   1.000  H
  H44      1.0000 0.09400  0.62330  0.20040  Biso   1.000  H
  C49      1.0000 0.32580  0.00800  0.91520  Biso   1.000  C
  C50      1.0000 0.67420  0.99200  0.08480  Biso   1.000  C
  H45      1.0000 0.30870  0.94900  0.96470  Biso   1.000  H
  H46      1.0000 0.69130  0.05100  0.03530  Biso   1.000  H
  C51      1.0000 0.17580  0.07610  0.88930  Biso   1.000  C
  C52      1.0000 0.82420  0.92390  0.11070  Biso   1.000  C
  H47      1.0000 0.06090  0.06220  0.92080  Biso   1.000  H
  H48      1.0000 0.93910  0.93780  0.07920  Biso   1.000  H
  C53      1.0000 0.19480  0.16520  0.81660  Biso   1.000  C
  C54      1.0000 0.80520  0.83480  0.18340  Biso   1.000  C
  C55      1.0000 0.36870  0.18070  0.77490  Biso   1.000  C
  C56      1.0000 0.63130  0.81930  0.22510  Biso   1.000  C
  H49      1.0000 0.39000  0.24030  0.72660  Biso   1.000  H
  H50      1.0000 0.61000  0.75970  0.27340  Biso   1.000  H
  C57      1.0000 0.51210  0.10890  0.80390  Biso   1.000  C
  C58      1.0000 0.48790  0.89110  0.19610  Biso   1.000  C
  H51      1.0000 0.62830  0.12150  0.77350  Biso   1.000  H
  H52      1.0000 0.37170  0.87850  0.22650  Biso   1.000  H
  C59      1.0000 0.03310  0.23990  0.78460  Biso   1.000  C
  C60      1.0000 0.96690  0.76010  0.21540  Biso   1.000  C
  H53      1.0000 0.92510  0.20340  0.79800  Biso   1.000  H
  H54      1.0000 0.07490  0.79660  0.20200  Biso   1.000  H
  H55      1.0000 0.05450  0.27280  0.72010  Biso   1.000  H
  H56      1.0000 0.94550  0.72720  0.27990  Biso   1.000  H
