data_image0
_cell_length_a       5.8666
_cell_length_b       17.5548
_cell_length_c       11.7576
_cell_angle_alpha    90
_cell_angle_beta     97.852
_cell_angle_gamma    90

_symmetry_space_group_name_H-M    "P 1"
_symmetry_int_tables_number       1

loop_
  _symmetry_equiv_pos_as_xyz
  'x, y, z'

loop_
  _atom_site_label
  _atom_site_occupancy
  _atom_site_fract_x
  _atom_site_fract_y
  _atom_site_fract_z
  _atom_site_thermal_displace_type
  _atom_site_B_iso_or_equiv
  _atom_site_type_symbol
  Cu1      1.0000 0.37865  0.57862  0.70120  Biso   1.000  Cu
  Cu2      1.0000 0.12135  0.07862  0.79880  Biso   1.000  Cu
  Cu3      1.0000 0.62135  0.42138  0.29880  Biso   1.000  Cu
  Cu4      1.0000 0.87865  0.92138  0.20120  Biso   1.000  Cu
  C1       1.0000 0.84930  0.62439  0.62860  Biso   1.000  C
  C2       1.0000 0.65070  0.12439  0.87140  Biso   1.000  C
  C3       1.0000 0.15070  0.37561  0.37140  Biso   1.000  C
  C4       1.0000 0.34930  0.87561  0.12860  Biso   1.000  C
  N1       1.0000 0.66960  0.60006  0.63880  Biso   1.000  N
  N2       1.0000 0.83040  0.10006  0.86120  Biso   1.000  N
  N3       1.0000 0.33040  0.39994  0.36120  Biso   1.000  N
  N4       1.0000 0.16960  0.89994  0.13880  Biso   1.000  N
  Cu5      1.0000 0.29108  0.18971  0.67115  Biso   1.000  Cu
  Cu6      1.0000 0.20892  0.68971  0.82885  Biso   1.000  Cu
  Cu7      1.0000 0.70892  0.81029  0.32885  Biso   1.000  Cu
  Cu8      1.0000 0.79108  0.31029  0.17115  Biso   1.000  Cu
  C5       1.0000 0.76460  0.14352  0.60380  Biso   1.000  C
  C6       1.0000 0.73540  0.64352  0.89620  Biso   1.000  C
  C7       1.0000 0.23540  0.85648  0.39620  Biso   1.000  C
  C8       1.0000 0.26460  0.35648  0.10380  Biso   1.000  C
  N5       1.0000 0.58450  0.16742  0.61320  Biso   1.000  N
  N6       1.0000 0.91550  0.66742  0.88680  Biso   1.000  N
  N7       1.0000 0.41550  0.83258  0.38680  Biso   1.000  N
  N8       1.0000 0.08450  0.33258  0.11320  Biso   1.000  N
  S1       1.0000 0.10382  0.66258  0.61380  Biso   1.000  S
  S2       1.0000 0.39618  0.16258  0.88620  Biso   1.000  S
  S3       1.0000 0.89618  0.33742  0.38620  Biso   1.000  S
  S4       1.0000 0.60382  0.83742  0.11380  Biso   1.000  S
  S5       1.0000 0.02028  0.10502  0.59223  Biso   1.000  S
  S6       1.0000 0.47972  0.60502  0.90777  Biso   1.000  S
  S7       1.0000 0.97972  0.89498  0.40777  Biso   1.000  S
  S8       1.0000 0.52028  0.39498  0.09223  Biso   1.000  S
  N9       1.0000 0.31690  0.46474  0.69050  Biso   1.000  N
  N10      1.0000 0.18310  0.96474  0.80950  Biso   1.000  N
  N11      1.0000 0.68310  0.53526  0.30950  Biso   1.000  N
  N12      1.0000 0.81690  0.03526  0.19050  Biso   1.000  N
  C9       1.0000 0.44700  0.42294  0.63120  Biso   1.000  C
  C10      1.0000 0.05300  0.92294  0.86880  Biso   1.000  C
  C11      1.0000 0.55300  0.57706  0.36880  Biso   1.000  C
  C12      1.0000 0.94700  0.07706  0.13120  Biso   1.000  C
  H1       1.0000 0.55900  0.44770  0.59310  Biso   1.000  H
  H2       1.0000 0.94100  0.94770  0.90690  Biso   1.000  H
  H3       1.0000 0.44100  0.55230  0.40690  Biso   1.000  H
  H4       1.0000 0.05900  0.05230  0.09310  Biso   1.000  H
  N13      1.0000 0.27410  0.30456  0.67250  Biso   1.000  N
  N14      1.0000 0.22590  0.80456  0.82750  Biso   1.000  N
  N15      1.0000 0.72590  0.69544  0.32750  Biso   1.000  N
  N16      1.0000 0.77410  0.19544  0.17250  Biso   1.000  N
  C13      1.0000 0.42600  0.34322  0.62240  Biso   1.000  C
  C14      1.0000 0.07400  0.84322  0.87760  Biso   1.000  C
  C15      1.0000 0.57400  0.65678  0.37760  Biso   1.000  C
  C16      1.0000 0.92600  0.15678  0.12240  Biso   1.000  C
  H5       1.0000 0.52470  0.31620  0.57880  Biso   1.000  H
  H6       1.0000 0.97530  0.81620  0.92120  Biso   1.000  H
  H7       1.0000 0.47530  0.68380  0.42120  Biso   1.000  H
  H8       1.0000 0.02470  0.18380  0.07880  Biso   1.000  H
  C17      1.0000 0.13330  0.34610  0.73430  Biso   1.000  C
  C18      1.0000 0.36670  0.84610  0.76570  Biso   1.000  C
  C19      1.0000 0.86670  0.65390  0.26570  Biso   1.000  C
  C20      1.0000 0.63330  0.15390  0.23430  Biso   1.000  C
  C21      1.0000 0.96550  0.30819  0.78800  Biso   1.000  C
  C22      1.0000 0.53450  0.80819  0.71200  Biso   1.000  C
  C23      1.0000 0.03450  0.69181  0.21200  Biso   1.000  C
  C24      1.0000 0.46550  0.19181  0.28800  Biso   1.000  C
  H9       1.0000 0.94780  0.25460  0.78050  Biso   1.000  H
  H10      1.0000 0.55220  0.75460  0.71950  Biso   1.000  H
  H11      1.0000 0.05220  0.74540  0.21950  Biso   1.000  H
  H12      1.0000 0.44780  0.24540  0.28050  Biso   1.000  H
  C25      1.0000 0.82770  0.34880  0.85130  Biso   1.000  C
  C26      1.0000 0.67230  0.84880  0.64870  Biso   1.000  C
  C27      1.0000 0.17230  0.65120  0.14870  Biso   1.000  C
  C28      1.0000 0.32770  0.15120  0.35130  Biso   1.000  C
  H13      1.0000 0.71480  0.32310  0.88770  Biso   1.000  H
  H14      1.0000 0.78520  0.82310  0.61230  Biso   1.000  H
  H15      1.0000 0.28520  0.67690  0.11230  Biso   1.000  H
  H16      1.0000 0.21480  0.17690  0.38770  Biso   1.000  H
  C29      1.0000 0.01330  0.46649  0.80980  Biso   1.000  C
  C30      1.0000 0.48670  0.96649  0.69020  Biso   1.000  C
  C31      1.0000 0.98670  0.53351  0.19020  Biso   1.000  C
  C32      1.0000 0.51330  0.03351  0.30980  Biso   1.000  C
  H17      1.0000 0.02780  0.52020  0.81760  Biso   1.000  H
  H18      1.0000 0.47220  0.02020  0.68240  Biso   1.000  H
  H19      1.0000 0.97220  0.47980  0.18240  Biso   1.000  H
  H20      1.0000 0.52780  0.97980  0.31760  Biso   1.000  H
  C33      1.0000 0.15740  0.42638  0.74410  Biso   1.000  C
  C34      1.0000 0.34260  0.92638  0.75590  Biso   1.000  C
  C35      1.0000 0.84260  0.57362  0.25590  Biso   1.000  C
  C36      1.0000 0.65740  0.07362  0.24410  Biso   1.000  C
  C37      1.0000 0.85240  0.42866  0.86270  Biso   1.000  C
  C38      1.0000 0.64760  0.92866  0.63730  Biso   1.000  C
  C39      1.0000 0.14760  0.57134  0.13730  Biso   1.000  C
  C40      1.0000 0.35240  0.07134  0.36270  Biso   1.000  C
  H21      1.0000 0.75700  0.45620  0.90730  Biso   1.000  H
  H22      1.0000 0.74300  0.95620  0.59270  Biso   1.000  H
  H23      1.0000 0.24300  0.54380  0.09270  Biso   1.000  H
  H24      1.0000 0.25700  0.04380  0.40730  Biso   1.000  H
