data_image0
_cell_length_a       13.3325
_cell_length_b       10.8446
_cell_length_c       16.6635
_cell_angle_alpha    90
_cell_angle_beta     90
_cell_angle_gamma    90

_symmetry_space_group_name_H-M    "P 1"
_symmetry_int_tables_number       1

loop_
  _symmetry_equiv_pos_as_xyz
  'x, y, z'

loop_
  _atom_site_label
  _atom_site_occupancy
  _atom_site_fract_x
  _atom_site_fract_y
  _atom_site_fract_z
  _atom_site_thermal_displace_type
  _atom_site_B_iso_or_equiv
  _atom_site_type_symbol
  Cu1      1.0000 0.53580  0.36398  0.29820  Biso   1.000  Cu
  Cu2      1.0000 0.96420  0.63602  0.79820  Biso   1.000  Cu
  Cu3      1.0000 0.46420  0.86398  0.20180  Biso   1.000  Cu
  Cu4      1.0000 0.03580  0.13602  0.70180  Biso   1.000  Cu
  Cu5      1.0000 0.46420  0.63602  0.70180  Biso   1.000  Cu
  Cu6      1.0000 0.03580  0.36398  0.20180  Biso   1.000  Cu
  Cu7      1.0000 0.53580  0.13602  0.79820  Biso   1.000  Cu
  Cu8      1.0000 0.96420  0.86398  0.29820  Biso   1.000  Cu
  C1       1.0000 0.52469  0.08140  0.31891  Biso   1.000  C
  C2       1.0000 0.97531  0.91860  0.81891  Biso   1.000  C
  C3       1.0000 0.47531  0.58140  0.18109  Biso   1.000  C
  C4       1.0000 0.02469  0.41860  0.68109  Biso   1.000  C
  C5       1.0000 0.47531  0.91860  0.68109  Biso   1.000  C
  C6       1.0000 0.02469  0.08140  0.18109  Biso   1.000  C
  C7       1.0000 0.52469  0.41860  0.81891  Biso   1.000  C
  C8       1.0000 0.97531  0.58140  0.31891  Biso   1.000  C
  N1       1.0000 0.53151  0.18738  0.31062  Biso   1.000  N
  N2       1.0000 0.96849  0.81262  0.81062  Biso   1.000  N
  N3       1.0000 0.46849  0.68738  0.18938  Biso   1.000  N
  N4       1.0000 0.03151  0.31262  0.68938  Biso   1.000  N
  N5       1.0000 0.46849  0.81262  0.68938  Biso   1.000  N
  N6       1.0000 0.03151  0.18738  0.18938  Biso   1.000  N
  N7       1.0000 0.53151  0.31262  0.81062  Biso   1.000  N
  N8       1.0000 0.96849  0.68738  0.31062  Biso   1.000  N
  Cu9      1.0000 0.32576  0.35887  0.22703  Biso   1.000  Cu
  Cu10     1.0000 0.17424  0.64113  0.72703  Biso   1.000  Cu
  Cu11     1.0000 0.67424  0.85887  0.27297  Biso   1.000  Cu
  Cu12     1.0000 0.82576  0.14113  0.77297  Biso   1.000  Cu
  Cu13     1.0000 0.67424  0.64113  0.77297  Biso   1.000  Cu
  Cu14     1.0000 0.82576  0.35887  0.27297  Biso   1.000  Cu
  Cu15     1.0000 0.32576  0.14113  0.72703  Biso   1.000  Cu
  Cu16     1.0000 0.17424  0.85887  0.22703  Biso   1.000  Cu
  C9       1.0000 0.31560  0.08589  0.18260  Biso   1.000  C
  C10      1.0000 0.18440  0.91411  0.68260  Biso   1.000  C
  C11      1.0000 0.68440  0.58589  0.31740  Biso   1.000  C
  C12      1.0000 0.81560  0.41411  0.81740  Biso   1.000  C
  C13      1.0000 0.68440  0.91411  0.81740  Biso   1.000  C
  C14      1.0000 0.81560  0.08589  0.31740  Biso   1.000  C
  C15      1.0000 0.31560  0.41411  0.68260  Biso   1.000  C
  C16      1.0000 0.18440  0.58589  0.18260  Biso   1.000  C
  N9       1.0000 0.31917  0.18713  0.20407  Biso   1.000  N
  N10      1.0000 0.18083  0.81287  0.70407  Biso   1.000  N
  N11      1.0000 0.68083  0.68713  0.29593  Biso   1.000  N
  N12      1.0000 0.81917  0.31287  0.79593  Biso   1.000  N
  N13      1.0000 0.68083  0.81287  0.79593  Biso   1.000  N
  N14      1.0000 0.81917  0.18713  0.29593  Biso   1.000  N
  N15      1.0000 0.31917  0.31287  0.70407  Biso   1.000  N
  N16      1.0000 0.18083  0.68713  0.20407  Biso   1.000  N
  S1       1.0000 0.51419  0.92990  0.33330  Biso   1.000  S
  S2       1.0000 0.98581  0.07010  0.83330  Biso   1.000  S
  S3       1.0000 0.48581  0.42990  0.16670  Biso   1.000  S
  S4       1.0000 0.01419  0.57010  0.66670  Biso   1.000  S
  S5       1.0000 0.48581  0.07010  0.66670  Biso   1.000  S
  S6       1.0000 0.01419  0.92990  0.16670  Biso   1.000  S
  S7       1.0000 0.51419  0.57010  0.83330  Biso   1.000  S
  S8       1.0000 0.98581  0.42990  0.33330  Biso   1.000  S
  S9       1.0000 0.31079  0.94044  0.15095  Biso   1.000  S
  S10      1.0000 0.18921  0.05956  0.65095  Biso   1.000  S
  S11      1.0000 0.68921  0.44044  0.34905  Biso   1.000  S
  S12      1.0000 0.81079  0.55956  0.84905  Biso   1.000  S
  S13      1.0000 0.68921  0.05956  0.84905  Biso   1.000  S
  S14      1.0000 0.81079  0.94044  0.34905  Biso   1.000  S
  S15      1.0000 0.31079  0.55956  0.65095  Biso   1.000  S
  S16      1.0000 0.18921  0.44044  0.15095  Biso   1.000  S
  N17      1.0000 0.43104  0.47562  0.35596  Biso   1.000  N
  N18      1.0000 0.06896  0.52438  0.85596  Biso   1.000  N
  N19      1.0000 0.56896  0.97562  0.14404  Biso   1.000  N
  N20      1.0000 0.93104  0.02438  0.64404  Biso   1.000  N
  N21      1.0000 0.56896  0.52438  0.64404  Biso   1.000  N
  N22      1.0000 0.93104  0.47562  0.14404  Biso   1.000  N
  N23      1.0000 0.43104  0.02438  0.85596  Biso   1.000  N
  N24      1.0000 0.06896  0.97562  0.35596  Biso   1.000  N
  C17      1.0000 0.44925  0.56456  0.40719  Biso   1.000  C
  C18      1.0000 0.05075  0.43544  0.90719  Biso   1.000  C
  C19      1.0000 0.55075  0.06456  0.09281  Biso   1.000  C
  C20      1.0000 0.94925  0.93544  0.59281  Biso   1.000  C
  C21      1.0000 0.55075  0.43544  0.59281  Biso   1.000  C
  C22      1.0000 0.94925  0.56456  0.09281  Biso   1.000  C
  C23      1.0000 0.44925  0.93544  0.90719  Biso   1.000  C
  C24      1.0000 0.05075  0.06456  0.40719  Biso   1.000  C
  H1       1.0000 0.51640  0.57510  0.42500  Biso   1.000  H
  H2       1.0000 0.98360  0.42490  0.92500  Biso   1.000  H
  H3       1.0000 0.48360  0.07510  0.07500  Biso   1.000  H
  H4       1.0000 0.01640  0.92490  0.57500  Biso   1.000  H
  H5       1.0000 0.48360  0.42490  0.57500  Biso   1.000  H
  H6       1.0000 0.01640  0.57510  0.07500  Biso   1.000  H
  H7       1.0000 0.51640  0.92490  0.92500  Biso   1.000  H
  H8       1.0000 0.98360  0.07510  0.42500  Biso   1.000  H
  N25      1.0000 0.33405  0.45898  0.32788  Biso   1.000  N
  N26      1.0000 0.16595  0.54102  0.82788  Biso   1.000  N
  N27      1.0000 0.66595  0.95898  0.17212  Biso   1.000  N
  N28      1.0000 0.83405  0.04102  0.67212  Biso   1.000  N
  N29      1.0000 0.66595  0.54102  0.67212  Biso   1.000  N
  N30      1.0000 0.83405  0.45898  0.17212  Biso   1.000  N
  N31      1.0000 0.33405  0.04102  0.82788  Biso   1.000  N
  N32      1.0000 0.16595  0.95898  0.32788  Biso   1.000  N
  C25      1.0000 0.37547  0.64617  0.43787  Biso   1.000  C
  C26      1.0000 0.12453  0.35383  0.93787  Biso   1.000  C
  C27      1.0000 0.62453  0.14617  0.06213  Biso   1.000  C
  C28      1.0000 0.87547  0.85383  0.56213  Biso   1.000  C
  C29      1.0000 0.62453  0.35383  0.56213  Biso   1.000  C
  C30      1.0000 0.87547  0.64617  0.06213  Biso   1.000  C
  C31      1.0000 0.37547  0.85383  0.93787  Biso   1.000  C
  C32      1.0000 0.12453  0.14617  0.43787  Biso   1.000  C
  C33      1.0000 0.39651  0.74460  0.49025  Biso   1.000  C
  C34      1.0000 0.10349  0.25540  0.99025  Biso   1.000  C
  C35      1.0000 0.60349  0.24460  0.00975  Biso   1.000  C
  C36      1.0000 0.89651  0.75540  0.50975  Biso   1.000  C
  C37      1.0000 0.60349  0.25540  0.50975  Biso   1.000  C
  C38      1.0000 0.89651  0.74460  0.00975  Biso   1.000  C
  C39      1.0000 0.39651  0.75540  0.99025  Biso   1.000  C
  C40      1.0000 0.10349  0.24460  0.49025  Biso   1.000  C
  H9       1.0000 0.46350  0.76030  0.50690  Biso   1.000  H
  H10      1.0000 0.03650  0.23970  0.00690  Biso   1.000  H
  H11      1.0000 0.53650  0.26030  0.99310  Biso   1.000  H
  H12      1.0000 0.96350  0.73970  0.49310  Biso   1.000  H
  H13      1.0000 0.53650  0.23970  0.49310  Biso   1.000  H
  H14      1.0000 0.96350  0.76030  0.99310  Biso   1.000  H
  H15      1.0000 0.46350  0.73970  0.00690  Biso   1.000  H
  H16      1.0000 0.03650  0.26030  0.50690  Biso   1.000  H
  C41      1.0000 0.31954  0.81756  0.51706  Biso   1.000  C
  C42      1.0000 0.18046  0.18244  0.01706  Biso   1.000  C
  C43      1.0000 0.68046  0.31756  0.98294  Biso   1.000  C
  C44      1.0000 0.81954  0.68244  0.48294  Biso   1.000  C
  C45      1.0000 0.68046  0.18244  0.48294  Biso   1.000  C
  C46      1.0000 0.81954  0.81756  0.98294  Biso   1.000  C
  C47      1.0000 0.31954  0.68244  0.01706  Biso   1.000  C
  C48      1.0000 0.18046  0.31756  0.51706  Biso   1.000  C
  H17      1.0000 0.33340  0.88430  0.55230  Biso   1.000  H
  H18      1.0000 0.16660  0.11570  0.05230  Biso   1.000  H
  H19      1.0000 0.66660  0.38430  0.94770  Biso   1.000  H
  H20      1.0000 0.83340  0.61570  0.44770  Biso   1.000  H
  H21      1.0000 0.66660  0.11570  0.44770  Biso   1.000  H
  H22      1.0000 0.83340  0.88430  0.94770  Biso   1.000  H
  H23      1.0000 0.33340  0.61570  0.05230  Biso   1.000  H
  H24      1.0000 0.16660  0.38430  0.55230  Biso   1.000  H
  C49      1.0000 0.22043  0.79473  0.49293  Biso   1.000  C
  C50      1.0000 0.27957  0.20527  0.99293  Biso   1.000  C
  C51      1.0000 0.77957  0.29473  0.00707  Biso   1.000  C
  C52      1.0000 0.72043  0.70527  0.50707  Biso   1.000  C
  C53      1.0000 0.77957  0.20527  0.50707  Biso   1.000  C
  C54      1.0000 0.72043  0.79473  0.00707  Biso   1.000  C
  C55      1.0000 0.22043  0.70527  0.99293  Biso   1.000  C
  C56      1.0000 0.27957  0.29473  0.49293  Biso   1.000  C
  H25      1.0000 0.16810  0.84610  0.51240  Biso   1.000  H
  H26      1.0000 0.33190  0.15390  0.01240  Biso   1.000  H
  H27      1.0000 0.83190  0.34610  0.98760  Biso   1.000  H
  H28      1.0000 0.66810  0.65390  0.48760  Biso   1.000  H
  H29      1.0000 0.83190  0.15390  0.48760  Biso   1.000  H
  H30      1.0000 0.66810  0.84610  0.98760  Biso   1.000  H
  H31      1.0000 0.16810  0.65390  0.01240  Biso   1.000  H
  H32      1.0000 0.33190  0.34610  0.51240  Biso   1.000  H
  C57      1.0000 0.27604  0.62360  0.41326  Biso   1.000  C
  C58      1.0000 0.22396  0.37640  0.91326  Biso   1.000  C
  C59      1.0000 0.72396  0.12360  0.08674  Biso   1.000  C
  C60      1.0000 0.77604  0.87640  0.58674  Biso   1.000  C
  C61      1.0000 0.72396  0.37640  0.58674  Biso   1.000  C
  C62      1.0000 0.77604  0.62360  0.08674  Biso   1.000  C
  C63      1.0000 0.27604  0.87640  0.91326  Biso   1.000  C
  C64      1.0000 0.22396  0.12360  0.41326  Biso   1.000  C
  C65      1.0000 0.26172  0.52730  0.35720  Biso   1.000  C
  C66      1.0000 0.23828  0.47270  0.85720  Biso   1.000  C
  C67      1.0000 0.73828  0.02730  0.14280  Biso   1.000  C
  C68      1.0000 0.76172  0.97270  0.64280  Biso   1.000  C
  C69      1.0000 0.73828  0.47270  0.64280  Biso   1.000  C
  C70      1.0000 0.76172  0.52730  0.14280  Biso   1.000  C
  C71      1.0000 0.26172  0.97270  0.85720  Biso   1.000  C
  C72      1.0000 0.23828  0.02730  0.35720  Biso   1.000  C
  H33      1.0000 0.19520  0.51110  0.33960  Biso   1.000  H
  H34      1.0000 0.30480  0.48890  0.83960  Biso   1.000  H
  H35      1.0000 0.80480  0.01110  0.16040  Biso   1.000  H
  H36      1.0000 0.69520  0.98890  0.66040  Biso   1.000  H
  H37      1.0000 0.80480  0.48890  0.66040  Biso   1.000  H
  H38      1.0000 0.69520  0.51110  0.16040  Biso   1.000  H
  H39      1.0000 0.19520  0.98890  0.83960  Biso   1.000  H
  H40      1.0000 0.30480  0.01110  0.33960  Biso   1.000  H
  C73      1.0000 0.19768  0.69934  0.44158  Biso   1.000  C
  C74      1.0000 0.30232  0.30066  0.94158  Biso   1.000  C
  C75      1.0000 0.80232  0.19934  0.05842  Biso   1.000  C
  C76      1.0000 0.69768  0.80066  0.55842  Biso   1.000  C
  C77      1.0000 0.80232  0.30066  0.55842  Biso   1.000  C
  C78      1.0000 0.69768  0.69934  0.05842  Biso   1.000  C
  C79      1.0000 0.19768  0.80066  0.94158  Biso   1.000  C
  C80      1.0000 0.30232  0.19934  0.44158  Biso   1.000  C
  H41      1.0000 0.13040  0.68480  0.42550  Biso   1.000  H
  H42      1.0000 0.36960  0.31520  0.92550  Biso   1.000  H
  H43      1.0000 0.86960  0.18480  0.07450  Biso   1.000  H
  H44      1.0000 0.63040  0.81520  0.57450  Biso   1.000  H
  H45      1.0000 0.86960  0.31520  0.57450  Biso   1.000  H
  H46      1.0000 0.63040  0.68480  0.07450  Biso   1.000  H
  H47      1.0000 0.13040  0.81520  0.92550  Biso   1.000  H
  H48      1.0000 0.36960  0.18480  0.42550  Biso   1.000  H
