data_image0
_cell_length_a       10.4822
_cell_length_b       20.7412
_cell_length_c       3.8176
_cell_angle_alpha    90
_cell_angle_beta     90
_cell_angle_gamma    90

_symmetry_space_group_name_H-M    "P 1"
_symmetry_int_tables_number       1

loop_
  _symmetry_equiv_pos_as_xyz
  'x, y, z'

loop_
  _atom_site_label
  _atom_site_occupancy
  _atom_site_fract_x
  _atom_site_fract_y
  _atom_site_fract_z
  _atom_site_thermal_displace_type
  _atom_site_B_iso_or_equiv
  _atom_site_type_symbol
  Cu1      1.0000 0.59385  0.27788  0.00000  Biso   1.000  Cu
  Cu2      1.0000 0.40615  0.72212  0.00000  Biso   1.000  Cu
  Cu3      1.0000 0.90615  0.77788  0.50000  Biso   1.000  Cu
  Cu4      1.0000 0.09385  0.22212  0.50000  Biso   1.000  Cu
  C1       1.0000 0.30020  0.28556  0.00000  Biso   1.000  C
  C2       1.0000 0.69980  0.71444  0.00000  Biso   1.000  C
  C3       1.0000 0.19980  0.78556  0.50000  Biso   1.000  C
  C4       1.0000 0.80020  0.21444  0.50000  Biso   1.000  C
  N1       1.0000 0.40960  0.28878  0.00000  Biso   1.000  N
  N2       1.0000 0.59040  0.71122  0.00000  Biso   1.000  N
  N3       1.0000 0.09040  0.78878  0.50000  Biso   1.000  N
  N4       1.0000 0.90960  0.21122  0.50000  Biso   1.000  N
  S1       1.0000 0.14068  0.28394  0.00000  Biso   1.000  S
  S2       1.0000 0.85932  0.71606  0.00000  Biso   1.000  S
  S3       1.0000 0.35932  0.78394  0.50000  Biso   1.000  S
  S4       1.0000 0.64068  0.21606  0.50000  Biso   1.000  S
  N5       1.0000 0.83970  0.47331  0.16830  Biso   1.000  N
  N6       1.0000 0.16030  0.52669  0.16830  Biso   1.000  N
  N7       1.0000 0.66030  0.97331  0.33170  Biso   1.000  N
  N8       1.0000 0.33970  0.02669  0.33170  Biso   1.000  N
  N9       1.0000 0.16030  0.52669  0.83170  Biso   1.000  N
  N10      1.0000 0.83970  0.47331  0.83170  Biso   1.000  N
  N11      1.0000 0.33970  0.02669  0.66830  Biso   1.000  N
  N12      1.0000 0.66030  0.97331  0.66830  Biso   1.000  N
  C5       1.0000 0.64590  0.41280  0.19520  Biso   1.000  C
  C6       1.0000 0.35410  0.58720  0.19520  Biso   1.000  C
  C7       1.0000 0.85410  0.91280  0.30480  Biso   1.000  C
  C8       1.0000 0.14590  0.08720  0.30480  Biso   1.000  C
  C9       1.0000 0.35410  0.58720  0.80480  Biso   1.000  C
  C10      1.0000 0.64590  0.41280  0.80480  Biso   1.000  C
  C11      1.0000 0.14590  0.08720  0.69520  Biso   1.000  C
  C12      1.0000 0.85410  0.91280  0.69520  Biso   1.000  C
  C13      1.0000 0.71900  0.46819  0.25650  Biso   1.000  C
  C14      1.0000 0.28100  0.53181  0.25650  Biso   1.000  C
  C15      1.0000 0.78100  0.96819  0.24350  Biso   1.000  C
  C16      1.0000 0.21900  0.03181  0.24350  Biso   1.000  C
  C17      1.0000 0.28100  0.53181  0.74350  Biso   1.000  C
  C18      1.0000 0.71900  0.46819  0.74350  Biso   1.000  C
  C19      1.0000 0.21900  0.03181  0.75650  Biso   1.000  C
  C20      1.0000 0.78100  0.96819  0.75650  Biso   1.000  C
  C21      1.0000 0.82280  0.36468  0.95800  Biso   1.000  C
  C22      1.0000 0.17720  0.63532  0.95800  Biso   1.000  C
  C23      1.0000 0.67720  0.86468  0.54200  Biso   1.000  C
  C24      1.0000 0.32280  0.13532  0.54200  Biso   1.000  C
  C25      1.0000 0.17720  0.63532  0.04200  Biso   1.000  C
  C26      1.0000 0.82280  0.36468  0.04200  Biso   1.000  C
  C27      1.0000 0.32280  0.13532  0.45800  Biso   1.000  C
  C28      1.0000 0.67720  0.86468  0.45800  Biso   1.000  C
  C29      1.0000 0.89120  0.42028  0.00000  Biso   1.000  C
  C30      1.0000 0.10880  0.57972  0.00000  Biso   1.000  C
  C31      1.0000 0.60880  0.92028  0.50000  Biso   1.000  C
  C32      1.0000 0.39120  0.07972  0.50000  Biso   1.000  C
  N13      1.0000 0.69870  0.36080  0.00000  Biso   1.000  N
  N14      1.0000 0.30130  0.63920  0.00000  Biso   1.000  N
  N15      1.0000 0.80130  0.86080  0.50000  Biso   1.000  N
  N16      1.0000 0.19870  0.13920  0.50000  Biso   1.000  N
  H1       1.0000 0.56140  0.40990  0.28380  Biso   1.000  H
  H2       1.0000 0.43860  0.59010  0.28380  Biso   1.000  H
  H3       1.0000 0.93860  0.90990  0.21620  Biso   1.000  H
  H4       1.0000 0.06140  0.09010  0.21620  Biso   1.000  H
  H5       1.0000 0.43860  0.59010  0.71620  Biso   1.000  H
  H6       1.0000 0.56140  0.40990  0.71620  Biso   1.000  H
  H7       1.0000 0.06140  0.09010  0.78380  Biso   1.000  H
  H8       1.0000 0.93860  0.90990  0.78380  Biso   1.000  H
  H9       1.0000 0.86780  0.32660  0.89500  Biso   1.000  H
  H10      1.0000 0.13220  0.67340  0.89500  Biso   1.000  H
  H11      1.0000 0.63220  0.82660  0.60500  Biso   1.000  H
  H12      1.0000 0.36780  0.17340  0.60500  Biso   1.000  H
  H13      1.0000 0.13220  0.67340  0.10500  Biso   1.000  H
  H14      1.0000 0.86780  0.32660  0.10500  Biso   1.000  H
  H15      1.0000 0.36780  0.17340  0.39500  Biso   1.000  H
  H16      1.0000 0.63220  0.82660  0.39500  Biso   1.000  H
  H17      1.0000 0.97580  0.42260  0.91170  Biso   1.000  H
  H18      1.0000 0.02420  0.57740  0.91170  Biso   1.000  H
  H19      1.0000 0.52420  0.92260  0.58830  Biso   1.000  H
  H20      1.0000 0.47580  0.07740  0.58830  Biso   1.000  H
  H21      1.0000 0.02420  0.57740  0.08830  Biso   1.000  H
  H22      1.0000 0.97580  0.42260  0.08830  Biso   1.000  H
  H23      1.0000 0.47580  0.07740  0.41170  Biso   1.000  H
  H24      1.0000 0.52420  0.92260  0.41170  Biso   1.000  H
  H25      1.0000 0.81390  0.56990  0.34070  Biso   1.000  H
  H26      1.0000 0.18610  0.43010  0.34070  Biso   1.000  H
  H27      1.0000 0.68610  0.06990  0.15930  Biso   1.000  H
  H28      1.0000 0.31390  0.93010  0.15930  Biso   1.000  H
  H29      1.0000 0.18610  0.43010  0.65930  Biso   1.000  H
  H30      1.0000 0.81390  0.56990  0.65930  Biso   1.000  H
  H31      1.0000 0.31390  0.93010  0.84070  Biso   1.000  H
  H32      1.0000 0.68610  0.06990  0.84070  Biso   1.000  H
  H33      1.0000 0.68680  0.61170  0.39110  Biso   1.000  H
  H34      1.0000 0.31320  0.38830  0.39110  Biso   1.000  H
  H35      1.0000 0.81320  0.11170  0.10890  Biso   1.000  H
  H36      1.0000 0.18680  0.88830  0.10890  Biso   1.000  H
  H37      1.0000 0.31320  0.38830  0.60890  Biso   1.000  H
  H38      1.0000 0.68680  0.61170  0.60890  Biso   1.000  H
  H39      1.0000 0.18680  0.88830  0.89110  Biso   1.000  H
  H40      1.0000 0.81320  0.11170  0.89110  Biso   1.000  H
  H41      1.0000 0.75260  0.57800  0.72210  Biso   1.000  H
  H42      1.0000 0.24740  0.42200  0.72210  Biso   1.000  H
  H43      1.0000 0.74740  0.07800  0.77790  Biso   1.000  H
  H44      1.0000 0.25260  0.92200  0.77790  Biso   1.000  H
  H45      1.0000 0.24740  0.42200  0.27790  Biso   1.000  H
  H46      1.0000 0.75260  0.57800  0.27790  Biso   1.000  H
  H47      1.0000 0.25260  0.92200  0.22210  Biso   1.000  H
  H48      1.0000 0.74740  0.07800  0.22210  Biso   1.000  H
  C33      1.0000 0.73390  0.57362  0.47200  Biso   1.000  C
  C34      1.0000 0.26610  0.42638  0.47200  Biso   1.000  C
  C35      1.0000 0.76610  0.07362  0.02800  Biso   1.000  C
  C36      1.0000 0.23390  0.92638  0.02800  Biso   1.000  C
  C37      1.0000 0.26610  0.42638  0.52800  Biso   1.000  C
  C38      1.0000 0.73390  0.57362  0.52800  Biso   1.000  C
  C39      1.0000 0.23390  0.92638  0.97200  Biso   1.000  C
  C40      1.0000 0.76610  0.07362  0.97200  Biso   1.000  C
  O1       1.0000 0.65850  0.51724  0.41520  Biso   1.000  O
  O2       1.0000 0.34150  0.48276  0.41520  Biso   1.000  O
  O3       1.0000 0.84150  0.01724  0.08480  Biso   1.000  O
  O4       1.0000 0.15850  0.98276  0.08480  Biso   1.000  O
  O5       1.0000 0.34150  0.48276  0.58480  Biso   1.000  O
  O6       1.0000 0.65850  0.51724  0.58480  Biso   1.000  O
  O7       1.0000 0.15850  0.98276  0.91520  Biso   1.000  O
  O8       1.0000 0.84150  0.01724  0.91520  Biso   1.000  O
