data_image0
_cell_length_a       5.8965
_cell_length_b       9.3775
_cell_length_c       11.7823
_cell_angle_alpha    90
_cell_angle_beta     98.004
_cell_angle_gamma    90

_symmetry_space_group_name_H-M    "P 1"
_symmetry_int_tables_number       1

loop_
  _symmetry_equiv_pos_as_xyz
  'x, y, z'

loop_
  _atom_site_label
  _atom_site_occupancy
  _atom_site_fract_x
  _atom_site_fract_y
  _atom_site_fract_z
  _atom_site_thermal_displace_type
  _atom_site_B_iso_or_equiv
  _atom_site_type_symbol
  Cu1      1.0000 0.43797  0.53928  0.71824  Biso   1.000  Cu
  Cu2      1.0000 0.56203  0.03928  0.28176  Biso   1.000  Cu
  S1       1.0000 0.19450  0.72462  0.75833  Biso   1.000  S
  S2       1.0000 0.80550  0.22462  0.24167  Biso   1.000  S
  N1       1.0000 0.75290  0.61070  0.72350  Biso   1.000  N
  N2       1.0000 0.24710  0.11070  0.27650  Biso   1.000  N
  C1       1.0000 0.93500  0.65550  0.73740  Biso   1.000  C
  C2       1.0000 0.06500  0.15550  0.26260  Biso   1.000  C
  S3       1.0000 0.46900  0.36550  0.86920  Biso   1.000  S
  S4       1.0000 0.53100  0.86550  0.13080  Biso   1.000  S
  C3       1.0000 0.20600  0.26400  0.84600  Biso   1.000  C
  C4       1.0000 0.79400  0.76400  0.15400  Biso   1.000  C
  H1       1.0000 0.10140  0.30430  0.78350  Biso   1.000  H
  H2       1.0000 0.89860  0.80430  0.21650  Biso   1.000  H
  H3       1.0000 0.23700  0.16560  0.82780  Biso   1.000  H
  H4       1.0000 0.76300  0.66560  0.17220  Biso   1.000  H
  C5       1.0000 0.10900  0.27300  0.95480  Biso   1.000  C
  C6       1.0000 0.89100  0.77300  0.04520  Biso   1.000  C
  H5       1.0000 0.94490  0.25950  0.94000  Biso   1.000  H
  H6       1.0000 0.05510  0.75950  0.06000  Biso   1.000  H
  H7       1.0000 0.17380  0.19820  0.00610  Biso   1.000  H
  H8       1.0000 0.82620  0.69820  0.99390  Biso   1.000  H
  C7       1.0000 0.16000  0.41100  0.00870  Biso   1.000  C
  C8       1.0000 0.84000  0.91100  0.99130  Biso   1.000  C
  H9       1.0000 0.13900  0.40590  0.08890  Biso   1.000  H
  H10      1.0000 0.86100  0.90590  0.91110  Biso   1.000  H
  H11      1.0000 0.05470  0.48200  0.97180  Biso   1.000  H
  H12      1.0000 0.94530  0.98200  0.02820  Biso   1.000  H
  C9       1.0000 0.39700  0.45300  0.99930  Biso   1.000  C
  C10      1.0000 0.60300  0.95300  0.00070  Biso   1.000  C
  H13      1.0000 0.49930  0.42170  0.06620  Biso   1.000  H
  H14      1.0000 0.50070  0.92170  0.93380  Biso   1.000  H
  H15      1.0000 0.40830  0.55580  0.99290  Biso   1.000  H
  H16      1.0000 0.59170  0.05580  0.00710  Biso   1.000  H
  S5       1.0000 0.26460  0.43140  0.54620  Biso   1.000  S
  S6       1.0000 0.73540  0.93140  0.45380  Biso   1.000  S
  C11      1.0000 0.49100  0.40310  0.46030  Biso   1.000  C
  C12      1.0000 0.50900  0.90310  0.53970  Biso   1.000  C
  H17      1.0000 0.63820  0.39660  0.50820  Biso   1.000  H
  H18      1.0000 0.36180  0.89660  0.49180  Biso   1.000  H
  H19      1.0000 0.46500  0.31620  0.41570  Biso   1.000  H
  H20      1.0000 0.53500  0.81620  0.58430  Biso   1.000  H
  C13      1.0000 0.48200  0.52990  0.38390  Biso   1.000  C
  C14      1.0000 0.51800  0.02990  0.61610  Biso   1.000  C
  H21      1.0000 0.57410  0.60590  0.42260  Biso   1.000  H
  H22      1.0000 0.42590  0.10590  0.57740  Biso   1.000  H
  H23      1.0000 0.54670  0.50550  0.31500  Biso   1.000  H
  H24      1.0000 0.45330  0.00550  0.68500  Biso   1.000  H
  C15      1.0000 0.25200  0.57870  0.35310  Biso   1.000  C
  C16      1.0000 0.74800  0.07870  0.64690  Biso   1.000  C
  H25      1.0000 0.17550  0.52020  0.29140  Biso   1.000  H
  H26      1.0000 0.82450  0.02020  0.70860  Biso   1.000  H
  H27      1.0000 0.25310  0.67630  0.32590  Biso   1.000  H
  H28      1.0000 0.74690  0.17630  0.67410  Biso   1.000  H
  C17      1.0000 0.12310  0.57150  0.45320  Biso   1.000  C
  C18      1.0000 0.87690  0.07150  0.54680  Biso   1.000  C
  H29      1.0000 0.96390  0.54740  0.42860  Biso   1.000  H
  H30      1.0000 0.03610  0.04740  0.57140  Biso   1.000  H
  H31      1.0000 0.13000  0.66210  0.49320  Biso   1.000  H
  H32      1.0000 0.87000  0.16210  0.50680  Biso   1.000  H
  S7       1.0000 0.43600  0.34900  0.84750  Biso   1.000  S
  S8       1.0000 0.56400  0.84900  0.15250  Biso   1.000  S
  C19      1.0000 0.14300  0.29800  0.86400  Biso   1.000  C
  C20      1.0000 0.85700  0.79800  0.13600  Biso   1.000  C
  H33      1.0000 0.03740  0.32940  0.79800  Biso   1.000  H
  H34      1.0000 0.96260  0.82940  0.20200  Biso   1.000  H
  H35      1.0000 0.13090  0.19560  0.87040  Biso   1.000  H
  H36      1.0000 0.86910  0.69560  0.12960  Biso   1.000  H
  C21      1.0000 0.08600  0.36500  0.96600  Biso   1.000  C
  C22      1.0000 0.91400  0.86500  0.03400  Biso   1.000  C
  H37      1.0000 0.98860  0.30230  0.00320  Biso   1.000  H
  H38      1.0000 0.01140  0.80230  0.99680  Biso   1.000  H
  H39      1.0000 0.00140  0.45250  0.94550  Biso   1.000  H
  H40      1.0000 0.99860  0.95250  0.05450  Biso   1.000  H
  C23      1.0000 0.29000  0.39900  0.04540  Biso   1.000  C
  C24      1.0000 0.71000  0.89900  0.95460  Biso   1.000  C
  H41      1.0000 0.33030  0.31710  0.09480  Biso   1.000  H
  H42      1.0000 0.66970  0.81710  0.90520  Biso   1.000  H
  H43      1.0000 0.25760  0.47800  0.09350  Biso   1.000  H
  H44      1.0000 0.74240  0.97800  0.90650  Biso   1.000  H
  C25      1.0000 0.48800  0.43600  0.98670  Biso   1.000  C
  C26      1.0000 0.51200  0.93600  0.01330  Biso   1.000  C
  H45      1.0000 0.62940  0.40190  0.03010  Biso   1.000  H
  H46      1.0000 0.37060  0.90190  0.96990  Biso   1.000  H
  H47      1.0000 0.49830  0.53850  0.97780  Biso   1.000  H
  H48      1.0000 0.50170  0.03850  0.02220  Biso   1.000  H
  S9       1.0000 0.34200  0.41800  0.56050  Biso   1.000  S
  S10      1.0000 0.65800  0.91800  0.43950  Biso   1.000  S
  C27      1.0000 0.52800  0.45800  0.45600  Biso   1.000  C
  C28      1.0000 0.47200  0.95800  0.54400  Biso   1.000  C
  H49      1.0000 0.62910  0.53680  0.48200  Biso   1.000  H
  H50      1.0000 0.37090  0.03680  0.51800  Biso   1.000  H
  H51      1.0000 0.61950  0.37610  0.44230  Biso   1.000  H
  H52      1.0000 0.38050  0.87610  0.55770  Biso   1.000  H
  C29      1.0000 0.37100  0.49900  0.35000  Biso   1.000  C
  C30      1.0000 0.62900  0.99900  0.65000  Biso   1.000  C
  H53      1.0000 0.45000  0.56070  0.30230  Biso   1.000  H
  H54      1.0000 0.55000  0.06070  0.69770  Biso   1.000  H
  H55      1.0000 0.32250  0.41380  0.30560  Biso   1.000  H
  H56      1.0000 0.67750  0.91380  0.69440  Biso   1.000  H
  C31      1.0000 0.17200  0.57200  0.38200  Biso   1.000  C
  C32      1.0000 0.82800  0.07200  0.61800  Biso   1.000  C
  H57      1.0000 0.05130  0.57450  0.31670  Biso   1.000  H
  H58      1.0000 0.94870  0.07450  0.68330  Biso   1.000  H
  H59      1.0000 0.21230  0.66890  0.40390  Biso   1.000  H
  H60      1.0000 0.78770  0.16890  0.59610  Biso   1.000  H
  C33      1.0000 0.08800  0.49600  0.47900  Biso   1.000  C
  C34      1.0000 0.91200  0.99600  0.52100  Biso   1.000  C
  H61      1.0000 0.97850  0.42250  0.45110  Biso   1.000  H
  H62      1.0000 0.02150  0.92250  0.54890  Biso   1.000  H
  H63      1.0000 0.01560  0.56220  0.52600  Biso   1.000  H
  H64      1.0000 0.98440  0.06220  0.47400  Biso   1.000  H
