data_image0
_cell_length_a       5.7536
_cell_length_b       6.6611
_cell_length_c       7.1672
_cell_angle_alpha    103.556
_cell_angle_beta     97.69
_cell_angle_gamma    110.956

_symmetry_space_group_name_H-M    "P 1"
_symmetry_int_tables_number       1

loop_
  _symmetry_equiv_pos_as_xyz
  'x, y, z'

loop_
  _atom_site_label
  _atom_site_occupancy
  _atom_site_fract_x
  _atom_site_fract_y
  _atom_site_fract_z
  _atom_site_thermal_displace_type
  _atom_site_B_iso_or_equiv
  _atom_site_type_symbol
  Cu1      1.0000 0.51520  0.23398  0.58608  Biso   1.000  Cu
  Cu2      1.0000 0.48480  0.76602  0.41392  Biso   1.000  Cu
  S1       1.0000 0.68432  0.14296  0.31171  Biso   1.000  S
  S2       1.0000 0.31568  0.85704  0.68829  Biso   1.000  S
  N1       1.0000 0.19870  0.25440  0.49030  Biso   1.000  N
  N2       1.0000 0.80130  0.74560  0.50970  Biso   1.000  N
  C1       1.0000 0.98840  0.21220  0.41870  Biso   1.000  C
  C2       1.0000 0.01160  0.78780  0.58130  Biso   1.000  C
  N3       1.0000 0.79570  0.39350  0.83270  Biso   1.000  N
  N4       1.0000 0.20430  0.60650  0.16730  Biso   1.000  N
  C3       1.0000 0.83970  0.59680  0.95720  Biso   1.000  C
  C4       1.0000 0.16030  0.40320  0.04280  Biso   1.000  C
  C5       1.0000 0.95650  0.29950  0.87850  Biso   1.000  C
  C6       1.0000 0.04350  0.70050  0.12150  Biso   1.000  C
  H1       1.0000 0.92960  0.15560  0.79470  Biso   1.000  H
  H2       1.0000 0.07040  0.84440  0.20530  Biso   1.000  H
  N5       1.0000 0.69150  0.68960  0.92740  Biso   1.000  N
  N6       1.0000 0.30850  0.31040  0.07260  Biso   1.000  N
  H3       1.0000 0.55820  0.62270  0.82530  Biso   1.000  H
  H4       1.0000 0.44180  0.37730  0.17470  Biso   1.000  H
  H5       1.0000 0.71980  0.82210  0.00830  Biso   1.000  H
  H6       1.0000 0.28020  0.17790  0.99170  Biso   1.000  H
  H7       1.0000 0.72920  0.66940  0.93150  Biso   1.000  H
  H8       1.0000 0.27080  0.33060  0.06850  Biso   1.000  H
