data_image0
_cell_length_a       21.6629
_cell_length_b       3.7638
_cell_length_c       11.2315
_cell_angle_alpha    90
_cell_angle_beta     101.443
_cell_angle_gamma    90

_symmetry_space_group_name_H-M    "P 1"
_symmetry_int_tables_number       1

loop_
  _symmetry_equiv_pos_as_xyz
  'x, y, z'

loop_
  _atom_site_label
  _atom_site_occupancy
  _atom_site_fract_x
  _atom_site_fract_y
  _atom_site_fract_z
  _atom_site_thermal_displace_type
  _atom_site_B_iso_or_equiv
  _atom_site_type_symbol
  Cu1      1.0000 0.64047  0.27970  0.64250  Biso   1.000  Cu
  Cu2      1.0000 0.64047  0.72030  0.14250  Biso   1.000  Cu
  Cu3      1.0000 0.14047  0.77970  0.64250  Biso   1.000  Cu
  Cu4      1.0000 0.14047  0.22030  0.14250  Biso   1.000  Cu
  S1       1.0000 0.68867  0.21960  0.24637  Biso   1.000  S
  S2       1.0000 0.68867  0.78040  0.74637  Biso   1.000  S
  S3       1.0000 0.18867  0.71960  0.24637  Biso   1.000  S
  S4       1.0000 0.18867  0.28040  0.74637  Biso   1.000  S
  N1       1.0000 0.65680  0.25100  0.47780  Biso   1.000  N
  N2       1.0000 0.65680  0.74900  0.97780  Biso   1.000  N
  N3       1.0000 0.15680  0.75100  0.47780  Biso   1.000  N
  N4       1.0000 0.15680  0.24900  0.97780  Biso   1.000  N
  N5       1.0000 0.54580  0.28670  0.64480  Biso   1.000  N
  N6       1.0000 0.54580  0.71330  0.14480  Biso   1.000  N
  N7       1.0000 0.04580  0.78670  0.64480  Biso   1.000  N
  N8       1.0000 0.04580  0.21330  0.14480  Biso   1.000  N
  N9       1.0000 0.46490  0.44110  0.75430  Biso   1.000  N
  N10      1.0000 0.46490  0.55890  0.25430  Biso   1.000  N
  N11      1.0000 0.96490  0.94110  0.75430  Biso   1.000  N
  N12      1.0000 0.96490  0.05890  0.25430  Biso   1.000  N
  C1       1.0000 0.66870  0.23580  0.38270  Biso   1.000  C
  C2       1.0000 0.66870  0.76420  0.88270  Biso   1.000  C
  C3       1.0000 0.16870  0.73580  0.38270  Biso   1.000  C
  C4       1.0000 0.16870  0.26420  0.88270  Biso   1.000  C
  C5       1.0000 0.52370  0.41000  0.74350  Biso   1.000  C
  C6       1.0000 0.52370  0.59000  0.24350  Biso   1.000  C
  C7       1.0000 0.02370  0.91000  0.74350  Biso   1.000  C
  C8       1.0000 0.02370  0.09000  0.24350  Biso   1.000  C
  H1       1.0000 0.55460  0.48000  0.81170  Biso   1.000  H
  H2       1.0000 0.55460  0.52000  0.31170  Biso   1.000  H
  H3       1.0000 0.05460  0.98000  0.81170  Biso   1.000  H
  H4       1.0000 0.05460  0.02000  0.31170  Biso   1.000  H
  C9       1.0000 0.41950  0.34200  0.65590  Biso   1.000  C
  C10      1.0000 0.41950  0.65800  0.15590  Biso   1.000  C
  C11      1.0000 0.91950  0.84200  0.65590  Biso   1.000  C
  C12      1.0000 0.91950  0.15800  0.15590  Biso   1.000  C
  C13      1.0000 0.35570  0.37100  0.65980  Biso   1.000  C
  C14      1.0000 0.35570  0.62900  0.15980  Biso   1.000  C
  C15      1.0000 0.85570  0.87100  0.65980  Biso   1.000  C
  C16      1.0000 0.85570  0.12900  0.15980  Biso   1.000  C
  H5       1.0000 0.34310  0.46190  0.73030  Biso   1.000  H
  H6       1.0000 0.34310  0.53810  0.23030  Biso   1.000  H
  H7       1.0000 0.84310  0.96190  0.73030  Biso   1.000  H
  H8       1.0000 0.84310  0.03810  0.23030  Biso   1.000  H
  C17      1.0000 0.31110  0.26890  0.56130  Biso   1.000  C
  C18      1.0000 0.31110  0.73110  0.06130  Biso   1.000  C
  C19      1.0000 0.81110  0.76890  0.56130  Biso   1.000  C
  C20      1.0000 0.81110  0.23110  0.06130  Biso   1.000  C
  H9       1.0000 0.26770  0.29270  0.56380  Biso   1.000  H
  H10      1.0000 0.26770  0.70730  0.06380  Biso   1.000  H
  H11      1.0000 0.76770  0.79270  0.56380  Biso   1.000  H
  H12      1.0000 0.76770  0.20730  0.06380  Biso   1.000  H
  C21      1.0000 0.32890  0.12700  0.45560  Biso   1.000  C
  C22      1.0000 0.32890  0.87300  0.95560  Biso   1.000  C
  C23      1.0000 0.82890  0.62700  0.45560  Biso   1.000  C
  C24      1.0000 0.82890  0.37300  0.95560  Biso   1.000  C
  H13      1.0000 0.29740  0.05480  0.38860  Biso   1.000  H
  H14      1.0000 0.29740  0.94520  0.88860  Biso   1.000  H
  H15      1.0000 0.79740  0.55480  0.38860  Biso   1.000  H
  H16      1.0000 0.79740  0.44520  0.88860  Biso   1.000  H
  C25      1.0000 0.39070  0.09570  0.45000  Biso   1.000  C
  C26      1.0000 0.39070  0.90430  0.95000  Biso   1.000  C
  C27      1.0000 0.89070  0.59570  0.45000  Biso   1.000  C
  C28      1.0000 0.89070  0.40430  0.95000  Biso   1.000  C
  H17      1.0000 0.40220  0.00150  0.37900  Biso   1.000  H
  H18      1.0000 0.40220  0.99850  0.87900  Biso   1.000  H
  H19      1.0000 0.90220  0.50150  0.37900  Biso   1.000  H
  H20      1.0000 0.90220  0.49850  0.87900  Biso   1.000  H
  C29      1.0000 0.43790  0.20220  0.54920  Biso   1.000  C
  C30      1.0000 0.43790  0.79780  0.04920  Biso   1.000  C
  C31      1.0000 0.93790  0.70220  0.54920  Biso   1.000  C
  C32      1.0000 0.93790  0.29780  0.04920  Biso   1.000  C
  C33      1.0000 0.50280  0.18600  0.55010  Biso   1.000  C
  C34      1.0000 0.50280  0.81400  0.05010  Biso   1.000  C
  C35      1.0000 0.00280  0.68600  0.55010  Biso   1.000  C
  C36      1.0000 0.00280  0.31400  0.05010  Biso   1.000  C
  H21      1.0000 0.51630  0.09990  0.48010  Biso   1.000  H
  H22      1.0000 0.51630  0.90010  0.98010  Biso   1.000  H
  H23      1.0000 0.01630  0.59990  0.48010  Biso   1.000  H
  H24      1.0000 0.01630  0.40010  0.98010  Biso   1.000  H
