data_image0
_cell_length_a       7.571
_cell_length_b       19.468
_cell_length_c       12.93
_cell_angle_alpha    90
_cell_angle_beta     100.719
_cell_angle_gamma    90

_symmetry_space_group_name_H-M    "P 1"
_symmetry_int_tables_number       1

loop_
  _symmetry_equiv_pos_as_xyz
  'x, y, z'

loop_
  _atom_site_label
  _atom_site_occupancy
  _atom_site_fract_x
  _atom_site_fract_y
  _atom_site_fract_z
  _atom_site_thermal_displace_type
  _atom_site_B_iso_or_equiv
  _atom_site_type_symbol
  Cl1      1.0000 0.64810  0.75000  0.11220  Biso   1.000  Cl
  Cl2      1.0000 0.35190  0.25000  0.88780  Biso   1.000  Cl
  Cu1      1.0000 0.26242  0.32969  0.70709  Biso   1.000  Cu
  Cu2      1.0000 0.73758  0.82969  0.29291  Biso   1.000  Cu
  Cu3      1.0000 0.73758  0.67031  0.29291  Biso   1.000  Cu
  Cu4      1.0000 0.26242  0.17031  0.70709  Biso   1.000  Cu
  Cu5      1.0000 0.97863  0.25000  0.81409  Biso   1.000  Cu
  Cu6      1.0000 0.02137  0.75000  0.18591  Biso   1.000  Cu
  Cu7      1.0000 0.69431  0.75000  0.94004  Biso   1.000  Cu
  Cu8      1.0000 0.30569  0.25000  0.05996  Biso   1.000  Cu
  N1       1.0000 0.08660  0.37990  0.75750  Biso   1.000  N
  N2       1.0000 0.91340  0.87990  0.24250  Biso   1.000  N
  N3       1.0000 0.91340  0.62010  0.24250  Biso   1.000  N
  N4       1.0000 0.08660  0.12010  0.75750  Biso   1.000  N
  N5       1.0000 0.96590  0.34620  0.80690  Biso   1.000  N
  N6       1.0000 0.03410  0.84620  0.19310  Biso   1.000  N
  N7       1.0000 0.03410  0.65380  0.19310  Biso   1.000  N
  N8       1.0000 0.96590  0.15380  0.80690  Biso   1.000  N
  N9       1.0000 0.72170  0.65600  0.89270  Biso   1.000  N
  N10      1.0000 0.27830  0.15600  0.10730  Biso   1.000  N
  N11      1.0000 0.27830  0.34400  0.10730  Biso   1.000  N
  N12      1.0000 0.72170  0.84400  0.89270  Biso   1.000  N
  N13      1.0000 0.42100  0.28430  0.63610  Biso   1.000  N
  N14      1.0000 0.57900  0.78430  0.36390  Biso   1.000  N
  N15      1.0000 0.57900  0.71570  0.36390  Biso   1.000  N
  N16      1.0000 0.42100  0.21570  0.63610  Biso   1.000  N
  N17      1.0000 0.00690  0.25000  0.33770  Biso   1.000  N
  N18      1.0000 0.99310  0.75000  0.66230  Biso   1.000  N
  C1       1.0000 0.31800  0.52090  0.77470  Biso   1.000  C
  C2       1.0000 0.68200  0.02090  0.22530  Biso   1.000  C
  C3       1.0000 0.68200  0.47910  0.22530  Biso   1.000  C
  C4       1.0000 0.31800  0.97910  0.77470  Biso   1.000  C
  H1       1.0000 0.37830  0.55150  0.73460  Biso   1.000  H
  H2       1.0000 0.62170  0.05150  0.26540  Biso   1.000  H
  H3       1.0000 0.62170  0.44850  0.26540  Biso   1.000  H
  H4       1.0000 0.37830  0.94850  0.73460  Biso   1.000  H
  H5       1.0000 0.28690  0.54510  0.83340  Biso   1.000  H
  H6       1.0000 0.71310  0.04510  0.16660  Biso   1.000  H
  H7       1.0000 0.71310  0.45490  0.16660  Biso   1.000  H
  H8       1.0000 0.28690  0.95490  0.83340  Biso   1.000  H
  H9       1.0000 0.39600  0.48320  0.79980  Biso   1.000  H
  H10      1.0000 0.60400  0.98320  0.20020  Biso   1.000  H
  H11      1.0000 0.60400  0.51680  0.20020  Biso   1.000  H
  H12      1.0000 0.39600  0.01680  0.79980  Biso   1.000  H
  C5       1.0000 0.16860  0.49690  0.71370  Biso   1.000  C
  C6       1.0000 0.83140  0.99690  0.28630  Biso   1.000  C
  C7       1.0000 0.83140  0.50310  0.28630  Biso   1.000  C
  C8       1.0000 0.16860  0.00310  0.71370  Biso   1.000  C
  C9       1.0000 0.05410  0.44790  0.76070  Biso   1.000  C
  C10      1.0000 0.94590  0.94790  0.23930  Biso   1.000  C
  C11      1.0000 0.94590  0.55210  0.23930  Biso   1.000  C
  C12      1.0000 0.05410  0.05210  0.76070  Biso   1.000  C
  C13      1.0000 0.91200  0.45920  0.81380  Biso   1.000  C
  C14      1.0000 0.08800  0.95920  0.18620  Biso   1.000  C
  C15      1.0000 0.08800  0.54080  0.18620  Biso   1.000  C
  C16      1.0000 0.91200  0.04080  0.81380  Biso   1.000  C
  C17      1.0000 0.86100  0.39280  0.84240  Biso   1.000  C
  C18      1.0000 0.13900  0.89280  0.15760  Biso   1.000  C
  C19      1.0000 0.13900  0.60720  0.15760  Biso   1.000  C
  C20      1.0000 0.86100  0.10720  0.84240  Biso   1.000  C
  C21      1.0000 0.71490  0.37050  0.89720  Biso   1.000  C
  C22      1.0000 0.28510  0.87050  0.10280  Biso   1.000  C
  C23      1.0000 0.28510  0.62950  0.10280  Biso   1.000  C
  C24      1.0000 0.71490  0.12950  0.89720  Biso   1.000  C
  H13      1.0000 0.63030  0.40810  0.89600  Biso   1.000  H
  H14      1.0000 0.36970  0.90810  0.10400  Biso   1.000  H
  H15      1.0000 0.36970  0.59190  0.10400  Biso   1.000  H
  H16      1.0000 0.63030  0.09190  0.89600  Biso   1.000  H
  H17      1.0000 0.65120  0.33250  0.85850  Biso   1.000  H
  H18      1.0000 0.34880  0.83250  0.14150  Biso   1.000  H
  H19      1.0000 0.34880  0.66750  0.14150  Biso   1.000  H
  H20      1.0000 0.65120  0.16750  0.85850  Biso   1.000  H
  C25      1.0000 0.77870  0.34860  0.01000  Biso   1.000  C
  C26      1.0000 0.22130  0.84860  0.99000  Biso   1.000  C
  C27      1.0000 0.22130  0.65140  0.99000  Biso   1.000  C
  C28      1.0000 0.77870  0.15140  0.01000  Biso   1.000  C
  H21      1.0000 0.67740  0.33500  0.04010  Biso   1.000  H
  H22      1.0000 0.32260  0.83500  0.95990  Biso   1.000  H
  H23      1.0000 0.32260  0.66500  0.95990  Biso   1.000  H
  H24      1.0000 0.67740  0.16500  0.04010  Biso   1.000  H
  H25      1.0000 0.86010  0.31060  0.01200  Biso   1.000  H
  H26      1.0000 0.13990  0.81060  0.98800  Biso   1.000  H
  H27      1.0000 0.13990  0.68940  0.98800  Biso   1.000  H
  H28      1.0000 0.86010  0.18940  0.01200  Biso   1.000  H
  H29      1.0000 0.83930  0.38620  0.04950  Biso   1.000  H
  H30      1.0000 0.16070  0.88620  0.95050  Biso   1.000  H
  H31      1.0000 0.16070  0.61380  0.95050  Biso   1.000  H
  H32      1.0000 0.83930  0.11380  0.04950  Biso   1.000  H
  C29      1.0000 0.83910  0.52520  0.83900  Biso   1.000  C
  C30      1.0000 0.16090  0.02520  0.16100  Biso   1.000  C
  C31      1.0000 0.16090  0.47480  0.16100  Biso   1.000  C
  C32      1.0000 0.83910  0.97480  0.83900  Biso   1.000  C
  C33      1.0000 0.82090  0.58040  0.76950  Biso   1.000  C
  C34      1.0000 0.17910  0.08040  0.23050  Biso   1.000  C
  C35      1.0000 0.17910  0.41960  0.23050  Biso   1.000  C
  C36      1.0000 0.82090  0.91960  0.76950  Biso   1.000  C
  H33      1.0000 0.84590  0.57460  0.70230  Biso   1.000  H
  H34      1.0000 0.15410  0.07460  0.29770  Biso   1.000  H
  H35      1.0000 0.15410  0.42540  0.29770  Biso   1.000  H
  H36      1.0000 0.84590  0.92540  0.70230  Biso   1.000  H
  C37      1.0000 0.76610  0.64360  0.79980  Biso   1.000  C
  C38      1.0000 0.23390  0.14360  0.20020  Biso   1.000  C
  C39      1.0000 0.23390  0.35640  0.20020  Biso   1.000  C
  C40      1.0000 0.76610  0.85640  0.79980  Biso   1.000  C
  H37      1.0000 0.75990  0.67980  0.75230  Biso   1.000  H
  H38      1.0000 0.24010  0.17980  0.24770  Biso   1.000  H
  H39      1.0000 0.24010  0.32020  0.24770  Biso   1.000  H
  H40      1.0000 0.75990  0.82020  0.75230  Biso   1.000  H
  C41      1.0000 0.73150  0.60240  0.95940  Biso   1.000  C
  C42      1.0000 0.26850  0.10240  0.04060  Biso   1.000  C
  C43      1.0000 0.26850  0.39760  0.04060  Biso   1.000  C
  C44      1.0000 0.73150  0.89760  0.95940  Biso   1.000  C
  H41      1.0000 0.69830  0.60890  0.02440  Biso   1.000  H
  H42      1.0000 0.30170  0.10890  0.97560  Biso   1.000  H
  H43      1.0000 0.30170  0.39110  0.97560  Biso   1.000  H
  H44      1.0000 0.69830  0.89110  0.02440  Biso   1.000  H
  C45      1.0000 0.78900  0.53810  0.93480  Biso   1.000  C
  C46      1.0000 0.21100  0.03810  0.06520  Biso   1.000  C
  C47      1.0000 0.21100  0.46190  0.06520  Biso   1.000  C
  C48      1.0000 0.78900  0.96190  0.93480  Biso   1.000  C
  H45      1.0000 0.79410  0.50280  0.98370  Biso   1.000  H
  H46      1.0000 0.20590  0.00280  0.01630  Biso   1.000  H
  H47      1.0000 0.20590  0.49720  0.01630  Biso   1.000  H
  H48      1.0000 0.79410  0.99720  0.98370  Biso   1.000  H
  C49      1.0000 0.50100  0.40300  0.47820  Biso   1.000  C
  C50      1.0000 0.49900  0.90300  0.52180  Biso   1.000  C
  C51      1.0000 0.49900  0.59700  0.52180  Biso   1.000  C
  C52      1.0000 0.50100  0.09700  0.47820  Biso   1.000  C
  H49      1.0000 0.52890  0.45010  0.46640  Biso   1.000  H
  H50      1.0000 0.47110  0.95010  0.53360  Biso   1.000  H
  H51      1.0000 0.47110  0.54990  0.53360  Biso   1.000  H
  H52      1.0000 0.52890  0.04990  0.46640  Biso   1.000  H
  H53      1.0000 0.53450  0.37480  0.42410  Biso   1.000  H
  H54      1.0000 0.46550  0.87480  0.57590  Biso   1.000  H
  H55      1.0000 0.46550  0.62520  0.57590  Biso   1.000  H
  H56      1.0000 0.53450  0.12520  0.42410  Biso   1.000  H
  H57      1.0000 0.37410  0.39850  0.47670  Biso   1.000  H
  H58      1.0000 0.62590  0.89850  0.52330  Biso   1.000  H
  H59      1.0000 0.62590  0.60150  0.52330  Biso   1.000  H
  H60      1.0000 0.37410  0.10150  0.47670  Biso   1.000  H
  C53      1.0000 0.59980  0.38100  0.58080  Biso   1.000  C
  C54      1.0000 0.40020  0.88100  0.41920  Biso   1.000  C
  C55      1.0000 0.40020  0.61900  0.41920  Biso   1.000  C
  C56      1.0000 0.59980  0.11900  0.58080  Biso   1.000  C
  H61      1.0000 0.72890  0.38430  0.58580  Biso   1.000  H
  H62      1.0000 0.27110  0.88430  0.41420  Biso   1.000  H
  H63      1.0000 0.27110  0.61570  0.41420  Biso   1.000  H
  H64      1.0000 0.72890  0.11570  0.58580  Biso   1.000  H
  H65      1.0000 0.56360  0.40580  0.63850  Biso   1.000  H
  H66      1.0000 0.43640  0.90580  0.36150  Biso   1.000  H
  H67      1.0000 0.43640  0.59420  0.36150  Biso   1.000  H
  H68      1.0000 0.56360  0.09420  0.63850  Biso   1.000  H
  C57      1.0000 0.53420  0.30720  0.57400  Biso   1.000  C
  C58      1.0000 0.46580  0.80720  0.42600  Biso   1.000  C
  C59      1.0000 0.46580  0.69280  0.42600  Biso   1.000  C
  C60      1.0000 0.53420  0.19280  0.57400  Biso   1.000  C
  C61      1.0000 0.60440  0.25000  0.53070  Biso   1.000  C
  C62      1.0000 0.39560  0.75000  0.46930  Biso   1.000  C
  C63      1.0000 0.74110  0.25000  0.46250  Biso   1.000  C
  C64      1.0000 0.25890  0.75000  0.53750  Biso   1.000  C
  C65      1.0000 0.91630  0.22720  0.50090  Biso   1.000  C
  C66      1.0000 0.08370  0.72720  0.49910  Biso   1.000  C
  C67      1.0000 0.08370  0.77280  0.49910  Biso   1.000  C
  C68      1.0000 0.91630  0.27280  0.50090  Biso   1.000  C
  H69      1.0000 0.95030  0.21040  0.57160  Biso   1.000  H
  H70      1.0000 0.04970  0.71040  0.42840  Biso   1.000  H
  H71      1.0000 0.04970  0.78960  0.42840  Biso   1.000  H
  H72      1.0000 0.95030  0.28960  0.57160  Biso   1.000  H
  C69      1.0000 0.04000  0.22910  0.43480  Biso   1.000  C
  C70      1.0000 0.96000  0.72910  0.56520  Biso   1.000  C
  C71      1.0000 0.96000  0.77090  0.56520  Biso   1.000  C
  C72      1.0000 0.04000  0.27090  0.43480  Biso   1.000  C
  H73      1.0000 0.16060  0.21420  0.46210  Biso   1.000  H
  H74      1.0000 0.83940  0.71420  0.53790  Biso   1.000  H
  H75      1.0000 0.83940  0.78580  0.53790  Biso   1.000  H
  H76      1.0000 0.16060  0.28580  0.46210  Biso   1.000  H
  C73      1.0000 0.84400  0.27270  0.30310  Biso   1.000  C
  C74      1.0000 0.15600  0.77270  0.69690  Biso   1.000  C
  C75      1.0000 0.15600  0.72730  0.69690  Biso   1.000  C
  C76      1.0000 0.84400  0.22730  0.30310  Biso   1.000  C
  H77      1.0000 0.82080  0.29440  0.23530  Biso   1.000  H
  H78      1.0000 0.17920  0.79440  0.76470  Biso   1.000  H
  H79      1.0000 0.17920  0.70560  0.76470  Biso   1.000  H
  H80      1.0000 0.82080  0.20560  0.23530  Biso   1.000  H
  C77      1.0000 0.70400  0.27100  0.35910  Biso   1.000  C
  C78      1.0000 0.29600  0.77100  0.64090  Biso   1.000  C
  C79      1.0000 0.29600  0.72900  0.64090  Biso   1.000  C
  C80      1.0000 0.70400  0.22900  0.35910  Biso   1.000  C
  H81      1.0000 0.58370  0.28280  0.32570  Biso   1.000  H
  H82      1.0000 0.41630  0.78280  0.67430  Biso   1.000  H
  H83      1.0000 0.41630  0.71720  0.67430  Biso   1.000  H
  H84      1.0000 0.58370  0.21720  0.32570  Biso   1.000  H
  C81      1.0000 0.87000  0.49460  0.37800  Biso   1.000  C
  C82      1.0000 0.13000  0.99460  0.62200  Biso   1.000  C
  C83      1.0000 0.13000  0.50540  0.62200  Biso   1.000  C
  C84      1.0000 0.87000  0.00540  0.37800  Biso   1.000  C
  H85      1.0000 0.78760  0.46270  0.40020  Biso   1.000  H
  H86      1.0000 0.21240  0.96270  0.59980  Biso   1.000  H
  H87      1.0000 0.21240  0.53730  0.59980  Biso   1.000  H
  H88      1.0000 0.78760  0.03730  0.40020  Biso   1.000  H
  H89      1.0000 0.86390  0.53770  0.41380  Biso   1.000  H
  H90      1.0000 0.13610  0.03770  0.58620  Biso   1.000  H
  H91      1.0000 0.13610  0.46230  0.58620  Biso   1.000  H
  H92      1.0000 0.86390  0.96230  0.41380  Biso   1.000  H
  H93      1.0000 0.99000  0.47670  0.39580  Biso   1.000  H
  H94      1.0000 0.01000  0.97670  0.60420  Biso   1.000  H
  H95      1.0000 0.01000  0.52330  0.60420  Biso   1.000  H
  H96      1.0000 0.99000  0.02330  0.39580  Biso   1.000  H
