data_image0
_cell_length_a       12.0541
_cell_length_b       12.689
_cell_length_c       13.7213
_cell_angle_alpha    107.004
_cell_angle_beta     103.246
_cell_angle_gamma    101.501

_symmetry_space_group_name_H-M    "P 1"
_symmetry_int_tables_number       1

loop_
  _symmetry_equiv_pos_as_xyz
  'x, y, z'

loop_
  _atom_site_label
  _atom_site_occupancy
  _atom_site_fract_x
  _atom_site_fract_y
  _atom_site_fract_z
  _atom_site_thermal_displace_type
  _atom_site_B_iso_or_equiv
  _atom_site_type_symbol
  I1       1.0000 0.02127  0.51307  0.17780  Biso   1.000  I
  I2       1.0000 0.97873  0.48693  0.82220  Biso   1.000  I
  Cu1      1.0000 0.91985  0.59525  0.38495  Biso   1.000  Cu
  Cu2      1.0000 0.08015  0.40475  0.61505  Biso   1.000  Cu
  Cu3      1.0000 0.07076  0.42091  0.37695  Biso   1.000  Cu
  Cu4      1.0000 0.92924  0.57909  0.62305  Biso   1.000  Cu
  Cu5      1.0000 0.80035  0.33122  0.23569  Biso   1.000  Cu
  Cu6      1.0000 0.19965  0.66878  0.76431  Biso   1.000  Cu
  Cu7      1.0000 0.08031  0.60451  0.02436  Biso   1.000  Cu
  Cu8      1.0000 0.91969  0.39549  0.97564  Biso   1.000  Cu
  N1       1.0000 0.07630  0.64910  0.47650  Biso   1.000  N
  N2       1.0000 0.92370  0.35090  0.52350  Biso   1.000  N
  N3       1.0000 0.14390  0.57330  0.46830  Biso   1.000  N
  N4       1.0000 0.85610  0.42670  0.53170  Biso   1.000  N
  N5       1.0000 0.57790  0.04230  0.69210  Biso   1.000  N
  N6       1.0000 0.42210  0.95770  0.30790  Biso   1.000  N
  N7       1.0000 0.00730  0.26710  0.28600  Biso   1.000  N
  N8       1.0000 0.99270  0.73290  0.71400  Biso   1.000  N
  N9       1.0000 0.89010  0.22610  0.22370  Biso   1.000  N
  N10      1.0000 0.10990  0.77390  0.77630  Biso   1.000  N
  N11      1.0000 0.03460  0.75170  0.07180  Biso   1.000  N
  N12      1.0000 0.96540  0.24830  0.92820  Biso   1.000  N
  N13      1.0000 0.70720  0.43340  0.24420  Biso   1.000  N
  N14      1.0000 0.29280  0.56660  0.75580  Biso   1.000  N
  N15      1.0000 0.76210  0.54870  0.29660  Biso   1.000  N
  N16      1.0000 0.23790  0.45130  0.70340  Biso   1.000  N
  N17      1.0000 0.25180  0.59990  0.06730  Biso   1.000  N
  N18      1.0000 0.74820  0.40010  0.93270  Biso   1.000  N
  C1       1.0000 0.12940  0.92810  0.48060  Biso   1.000  C
  C2       1.0000 0.87060  0.07190  0.51940  Biso   1.000  C
  H1       1.0000 0.09530  0.99110  0.49470  Biso   1.000  H
  H2       1.0000 0.90470  0.00890  0.50530  Biso   1.000  H
  H3       1.0000 0.09820  0.88200  0.40580  Biso   1.000  H
  H4       1.0000 0.90180  0.11800  0.59420  Biso   1.000  H
  H5       1.0000 0.21430  0.95760  0.50000  Biso   1.000  H
  H6       1.0000 0.78570  0.04240  0.50000  Biso   1.000  H
  C3       1.0000 0.09910  0.85650  0.54480  Biso   1.000  C
  C4       1.0000 0.90090  0.14350  0.45520  Biso   1.000  C
  H7       1.0000 0.12890  0.90450  0.62000  Biso   1.000  H
  H8       1.0000 0.87110  0.09550  0.38000  Biso   1.000  H
  H9       1.0000 0.01320  0.82860  0.52580  Biso   1.000  H
  H10      1.0000 0.98680  0.17140  0.47420  Biso   1.000  H
  C5       1.0000 0.14840  0.75650  0.52920  Biso   1.000  C
  C6       1.0000 0.85160  0.24350  0.47080  Biso   1.000  C
  C7       1.0000 0.26670  0.75180  0.55240  Biso   1.000  C
  C8       1.0000 0.73330  0.24820  0.44760  Biso   1.000  C
  C9       1.0000 0.25890  0.63500  0.51350  Biso   1.000  C
  C10      1.0000 0.74110  0.36500  0.48650  Biso   1.000  C
  C11      1.0000 0.35310  0.57430  0.51420  Biso   1.000  C
  C12      1.0000 0.64690  0.42570  0.48580  Biso   1.000  C
  H11      1.0000 0.32930  0.50780  0.53390  Biso   1.000  H
  H12      1.0000 0.67070  0.49220  0.46610  Biso   1.000  H
  H13      1.0000 0.42630  0.62540  0.56850  Biso   1.000  H
  H14      1.0000 0.57370  0.37460  0.43150  Biso   1.000  H
  C13      1.0000 0.37710  0.53520  0.40740  Biso   1.000  C
  C14      1.0000 0.62290  0.46480  0.59260  Biso   1.000  C
  H15      1.0000 0.43830  0.49700  0.41310  Biso   1.000  H
  H16      1.0000 0.56170  0.50300  0.58690  Biso   1.000  H
  H17      1.0000 0.40270  0.60070  0.38810  Biso   1.000  H
  H18      1.0000 0.59730  0.39930  0.61190  Biso   1.000  H
  H19      1.0000 0.30570  0.48300  0.35350  Biso   1.000  H
  H20      1.0000 0.69430  0.51700  0.64650  Biso   1.000  H
  C15      1.0000 0.37480  0.85050  0.60220  Biso   1.000  C
  C16      1.0000 0.62520  0.14950  0.39780  Biso   1.000  C
  C17      1.0000 0.38710  0.94280  0.69180  Biso   1.000  C
  C18      1.0000 0.61290  0.05720  0.30820  Biso   1.000  C
  H21      1.0000 0.32800  0.94310  0.72510  Biso   1.000  H
  H22      1.0000 0.67200  0.05690  0.27490  Biso   1.000  H
  C19      1.0000 0.49000  0.03570  0.73180  Biso   1.000  C
  C20      1.0000 0.51000  0.96430  0.26820  Biso   1.000  C
  H23      1.0000 0.49580  0.09750  0.79130  Biso   1.000  H
  H24      1.0000 0.50420  0.90250  0.20870  Biso   1.000  H
  C21      1.0000 0.56690  0.95390  0.60660  Biso   1.000  C
  C22      1.0000 0.43310  0.04610  0.39340  Biso   1.000  C
  H25      1.0000 0.62810  0.95680  0.57580  Biso   1.000  H
  H26      1.0000 0.37190  0.04320  0.42420  Biso   1.000  H
  C23      1.0000 0.46880  0.85670  0.56030  Biso   1.000  C
  C24      1.0000 0.53120  0.14330  0.43970  Biso   1.000  C
  H27      1.0000 0.46650  0.79610  0.50140  Biso   1.000  H
  H28      1.0000 0.53350  0.20390  0.49860  Biso   1.000  H
  C25      1.0000 0.26420  0.20660  0.26380  Biso   1.000  C
  C26      1.0000 0.73580  0.79340  0.73620  Biso   1.000  C
  H29      1.0000 0.34300  0.22520  0.31140  Biso   1.000  H
  H30      1.0000 0.65700  0.77480  0.68860  Biso   1.000  H
  H31      1.0000 0.26040  0.26260  0.22990  Biso   1.000  H
  H32      1.0000 0.73960  0.73740  0.77010  Biso   1.000  H
  H33      1.0000 0.24490  0.13170  0.21020  Biso   1.000  H
  H34      1.0000 0.75510  0.86830  0.78980  Biso   1.000  H
  C27      1.0000 0.18960  0.20680  0.31700  Biso   1.000  C
  C28      1.0000 0.81040  0.79320  0.68300  Biso   1.000  C
  C29      1.0000 0.05820  0.18060  0.26470  Biso   1.000  C
  C30      1.0000 0.94180  0.81940  0.73530  Biso   1.000  C
  C31      1.0000 0.97220  0.08180  0.18750  Biso   1.000  C
  C32      1.0000 0.02780  0.91820  0.81250  Biso   1.000  C
  C33      1.0000 0.86810  0.11530  0.16290  Biso   1.000  C
  C34      1.0000 0.13190  0.88470  0.83710  Biso   1.000  C
  C35      1.0000 0.74800  0.05060  0.08470  Biso   1.000  C
  C36      1.0000 0.25200  0.94940  0.91530  Biso   1.000  C
  H35      1.0000 0.68840  0.07550  0.11510  Biso   1.000  H
  H36      1.0000 0.31160  0.92450  0.88490  Biso   1.000  H
  H37      1.0000 0.73500  0.96940  0.07320  Biso   1.000  H
  H38      1.0000 0.26500  0.03060  0.92680  Biso   1.000  H
  C37      1.0000 0.73170  0.06690  0.97780  Biso   1.000  C
  C38      1.0000 0.26830  0.93310  0.02220  Biso   1.000  C
  H39      1.0000 0.65310  0.02310  0.93100  Biso   1.000  H
  H40      1.0000 0.34690  0.97690  0.06900  Biso   1.000  H
  H41      1.0000 0.78930  0.04090  0.94640  Biso   1.000  H
  H42      1.0000 0.21070  0.95910  0.05360  Biso   1.000  H
  H43      1.0000 0.74240  0.14690  0.98830  Biso   1.000  H
  H44      1.0000 0.25760  0.85310  0.01170  Biso   1.000  H
  C39      1.0000 0.98990  0.96760  0.14600  Biso   1.000  C
  C40      1.0000 0.01010  0.03240  0.85400  Biso   1.000  C
  C41      1.0000 0.06420  0.92920  0.21250  Biso   1.000  C
  C42      1.0000 0.93580  0.07080  0.78750  Biso   1.000  C
  H45      1.0000 0.10160  0.97550  0.28400  Biso   1.000  H
  H46      1.0000 0.89840  0.02450  0.71600  Biso   1.000  H
  C43      1.0000 0.08310  0.82320  0.17360  Biso   1.000  C
  C44      1.0000 0.91690  0.17680  0.82640  Biso   1.000  C
  H47      1.0000 0.13250  0.80010  0.22090  Biso   1.000  H
  H48      1.0000 0.86750  0.19990  0.77910  Biso   1.000  H
  C45      1.0000 0.96260  0.78750  0.00770  Biso   1.000  C
  C46      1.0000 0.03740  0.21250  0.99230  Biso   1.000  C
  H49      1.0000 0.92700  0.73940  0.93660  Biso   1.000  H
  H50      1.0000 0.07300  0.26060  0.06340  Biso   1.000  H
  C47      1.0000 0.93760  0.89160  0.04030  Biso   1.000  C
  C48      1.0000 0.06240  0.10840  0.95970  Biso   1.000  C
  H51      1.0000 0.88580  0.91110  0.99160  Biso   1.000  H
  H52      1.0000 0.11420  0.08890  0.00840  Biso   1.000  H
  C49      1.0000 0.52320  0.23980  0.03250  Biso   1.000  C
  C50      1.0000 0.47680  0.76020  0.96750  Biso   1.000  C
  H53      1.0000 0.46650  0.16500  0.00320  Biso   1.000  H
  H54      1.0000 0.53350  0.83500  0.99680  Biso   1.000  H
  H55      1.0000 0.60210  0.23180  0.04230  Biso   1.000  H
  H56      1.0000 0.39790  0.76820  0.95770  Biso   1.000  H
  H57      1.0000 0.50800  0.28050  0.98410  Biso   1.000  H
  H58      1.0000 0.49200  0.71950  0.01590  Biso   1.000  H
  C51      1.0000 0.51310  0.29980  0.12880  Biso   1.000  C
  C52      1.0000 0.48690  0.70020  0.87120  Biso   1.000  C
  C53      1.0000 0.59510  0.42050  0.18840  Biso   1.000  C
  C54      1.0000 0.40490  0.57950  0.81160  Biso   1.000  C
  C55      1.0000 0.57620  0.52920  0.20450  Biso   1.000  C
  C56      1.0000 0.42380  0.47080  0.79550  Biso   1.000  C
  C57      1.0000 0.68510  0.60670  0.27330  Biso   1.000  C
  C58      1.0000 0.31490  0.39330  0.72670  Biso   1.000  C
  C59      1.0000 0.72870  0.73580  0.31210  Biso   1.000  C
  C60      1.0000 0.27130  0.26420  0.68790  Biso   1.000  C
  H59      1.0000 0.66930  0.76710  0.33770  Biso   1.000  H
  H60      1.0000 0.33070  0.23290  0.66230  Biso   1.000  H
  H61      1.0000 0.80070  0.76200  0.37220  Biso   1.000  H
  H62      1.0000 0.19930  0.23800  0.62780  Biso   1.000  H
  C61      1.0000 0.75390  0.78190  0.22930  Biso   1.000  C
  C62      1.0000 0.24610  0.21810  0.77070  Biso   1.000  C
  H63      1.0000 0.78110  0.86430  0.25940  Biso   1.000  H
  H64      1.0000 0.21890  0.13570  0.74060  Biso   1.000  H
  H65      1.0000 0.68260  0.75800  0.17020  Biso   1.000  H
  H66      1.0000 0.31740  0.24200  0.82980  Biso   1.000  H
  H67      1.0000 0.81420  0.75310  0.20490  Biso   1.000  H
  H68      1.0000 0.18580  0.24690  0.79510  Biso   1.000  H
  C63      1.0000 0.46610  0.55370  0.15670  Biso   1.000  C
  C64      1.0000 0.53390  0.44630  0.84330  Biso   1.000  C
  C65      1.0000 0.38630  0.48480  0.05660  Biso   1.000  C
  C66      1.0000 0.61370  0.51520  0.94340  Biso   1.000  C
  H69      1.0000 0.40310  0.42060  0.01630  Biso   1.000  H
  H70      1.0000 0.59690  0.57940  0.98370  Biso   1.000  H
  C67      1.0000 0.28310  0.50890  0.01560  Biso   1.000  C
  C68      1.0000 0.71690  0.49110  0.98440  Biso   1.000  C
  H71      1.0000 0.23250  0.45960  0.94860  Biso   1.000  H
  H72      1.0000 0.76750  0.54040  0.05140  Biso   1.000  H
  C69      1.0000 0.33070  0.67000  0.16210  Biso   1.000  C
  C70      1.0000 0.66930  0.33000  0.83790  Biso   1.000  C
  H73      1.0000 0.31380  0.73590  0.19890  Biso   1.000  H
  H74      1.0000 0.68620  0.26410  0.80110  Biso   1.000  H
  C71      1.0000 0.43430  0.65050  0.20780  Biso   1.000  C
  C72      1.0000 0.56570  0.34950  0.79220  Biso   1.000  C
  H75      1.0000 0.48440  0.70250  0.27400  Biso   1.000  H
  H76      1.0000 0.51560  0.29750  0.72600  Biso   1.000  H
  C73      1.0000 0.76700  0.77130  0.58400  Biso   1.000  C
  C74      1.0000 0.23300  0.22870  0.41600  Biso   1.000  C
  C75      1.0000 0.42170  0.27000  0.15060  Biso   1.000  C
  C76      1.0000 0.57830  0.73000  0.84940  Biso   1.000  C
  H77      1.0000 0.68220  0.75680  0.56610  Biso   1.000  H
  H78      1.0000 0.31780  0.24320  0.43390  Biso   1.000  H
  H79      1.0000 0.80020  0.83570  0.56610  Biso   1.000  H
  H80      1.0000 0.19980  0.16430  0.43390  Biso   1.000  H
  H81      1.0000 0.78540  0.70460  0.54440  Biso   1.000  H
  H82      1.0000 0.21460  0.29540  0.45560  Biso   1.000  H
  H83      1.0000 0.37940  0.19180  0.10540  Biso   1.000  H
  H84      1.0000 0.62060  0.80820  0.89460  Biso   1.000  H
  H85      1.0000 0.37260  0.31900  0.13930  Biso   1.000  H
  H86      1.0000 0.62740  0.68100  0.86070  Biso   1.000  H
  H87      1.0000 0.44130  0.27570  0.22420  Biso   1.000  H
  H88      1.0000 0.55870  0.72430  0.77580  Biso   1.000  H
