data_image0
_cell_length_a       13.0979
_cell_length_b       22.008
_cell_length_c       14.7518
_cell_angle_alpha    90
_cell_angle_beta     102.178
_cell_angle_gamma    90

_symmetry_space_group_name_H-M    "P 1"
_symmetry_int_tables_number       1

loop_
  _symmetry_equiv_pos_as_xyz
  'x, y, z'

loop_
  _atom_site_label
  _atom_site_occupancy
  _atom_site_fract_x
  _atom_site_fract_y
  _atom_site_fract_z
  _atom_site_thermal_displace_type
  _atom_site_B_iso_or_equiv
  _atom_site_type_symbol
  I1       1.0000 0.96397  0.87626  0.36511  Biso   1.000  I
  I2       1.0000 0.53603  0.37626  0.13489  Biso   1.000  I
  I3       1.0000 0.03603  0.12374  0.63489  Biso   1.000  I
  I4       1.0000 0.46397  0.62374  0.86511  Biso   1.000  I
  I5       1.0000 0.84858  0.88267  0.62037  Biso   1.000  I
  I6       1.0000 0.65142  0.38267  0.87963  Biso   1.000  I
  I7       1.0000 0.15142  0.11733  0.37963  Biso   1.000  I
  I8       1.0000 0.34858  0.61733  0.12037  Biso   1.000  I
  Cu1      1.0000 0.67422  0.38284  0.33879  Biso   1.000  Cu
  Cu2      1.0000 0.82578  0.88284  0.16121  Biso   1.000  Cu
  Cu3      1.0000 0.32578  0.61716  0.66121  Biso   1.000  Cu
  Cu4      1.0000 0.17422  0.11716  0.83879  Biso   1.000  Cu
  Cu5      1.0000 0.46157  0.31161  0.30481  Biso   1.000  Cu
  Cu6      1.0000 0.03843  0.81161  0.19519  Biso   1.000  Cu
  Cu7      1.0000 0.53843  0.68839  0.69519  Biso   1.000  Cu
  Cu8      1.0000 0.96157  0.18839  0.80481  Biso   1.000  Cu
  Cu9      1.0000 0.44970  0.45227  0.30798  Biso   1.000  Cu
  Cu10     1.0000 0.05030  0.95227  0.19202  Biso   1.000  Cu
  Cu11     1.0000 0.55030  0.54773  0.69202  Biso   1.000  Cu
  Cu12     1.0000 0.94970  0.04773  0.80798  Biso   1.000  Cu
  Cu13     1.0000 0.89230  0.94022  0.48181  Biso   1.000  Cu
  Cu14     1.0000 0.60770  0.44022  0.01819  Biso   1.000  Cu
  Cu15     1.0000 0.10770  0.05978  0.51819  Biso   1.000  Cu
  Cu16     1.0000 0.39230  0.55978  0.98181  Biso   1.000  Cu
  Cu17     1.0000 0.81972  0.83556  0.45158  Biso   1.000  Cu
  Cu18     1.0000 0.68028  0.33556  0.04842  Biso   1.000  Cu
  Cu19     1.0000 0.18028  0.16444  0.54842  Biso   1.000  Cu
  Cu20     1.0000 0.31972  0.66444  0.95158  Biso   1.000  Cu
  N1       1.0000 0.68120  0.29810  0.35680  Biso   1.000  N
  N2       1.0000 0.81880  0.79810  0.14320  Biso   1.000  N
  N3       1.0000 0.31880  0.70190  0.64320  Biso   1.000  N
  N4       1.0000 0.18120  0.20190  0.85680  Biso   1.000  N
  N5       1.0000 0.58510  0.27030  0.34900  Biso   1.000  N
  N6       1.0000 0.91490  0.77030  0.15100  Biso   1.000  N
  N7       1.0000 0.41490  0.72970  0.65100  Biso   1.000  N
  N8       1.0000 0.08510  0.22970  0.84900  Biso   1.000  N
  N9       1.0000 0.84430  0.02440  0.45830  Biso   1.000  N
  N10      1.0000 0.65570  0.52440  0.04170  Biso   1.000  N
  N11      1.0000 0.15570  0.97560  0.54170  Biso   1.000  N
  N12      1.0000 0.34430  0.47560  0.95830  Biso   1.000  N
  N13      1.0000 0.33060  0.34740  0.27220  Biso   1.000  N
  N14      1.0000 0.16940  0.84740  0.22780  Biso   1.000  N
  N15      1.0000 0.66940  0.65260  0.72780  Biso   1.000  N
  N16      1.0000 0.83060  0.15260  0.77220  Biso   1.000  N
  N17      1.0000 0.32430  0.40990  0.27820  Biso   1.000  N
  N18      1.0000 0.17570  0.90990  0.22180  Biso   1.000  N
  N19      1.0000 0.67570  0.59010  0.72180  Biso   1.000  N
  N20      1.0000 0.82430  0.09010  0.77820  Biso   1.000  N
  N21      1.0000 0.83560  0.35470  0.11080  Biso   1.000  N
  N22      1.0000 0.66440  0.85470  0.38920  Biso   1.000  N
  N23      1.0000 0.16440  0.64530  0.88920  Biso   1.000  N
  N24      1.0000 0.33560  0.14530  0.61080  Biso   1.000  N
  N25      1.0000 0.57370  0.49480  0.34650  Biso   1.000  N
  N26      1.0000 0.92630  0.99480  0.15350  Biso   1.000  N
  N27      1.0000 0.42630  0.50520  0.65350  Biso   1.000  N
  N28      1.0000 0.07370  0.00520  0.84650  Biso   1.000  N
  N29      1.0000 0.66890  0.46750  0.34960  Biso   1.000  N
  N30      1.0000 0.83110  0.96750  0.15040  Biso   1.000  N
  N31      1.0000 0.33110  0.53250  0.65040  Biso   1.000  N
  N32      1.0000 0.16890  0.03250  0.84960  Biso   1.000  N
  N33      1.0000 0.81950  0.74360  0.45210  Biso   1.000  N
  N34      1.0000 0.68050  0.24360  0.04790  Biso   1.000  N
  N35      1.0000 0.18050  0.25640  0.54790  Biso   1.000  N
  N36      1.0000 0.31950  0.75640  0.95210  Biso   1.000  N
  C1       1.0000 0.90110  0.31400  0.48520  Biso   1.000  C
  C2       1.0000 0.59890  0.81400  0.01480  Biso   1.000  C
  C3       1.0000 0.09890  0.68600  0.51480  Biso   1.000  C
  C4       1.0000 0.40110  0.18600  0.98520  Biso   1.000  C
  H1       1.0000 0.89110  0.29530  0.54140  Biso   1.000  H
  H2       1.0000 0.60890  0.79530  0.95860  Biso   1.000  H
  H3       1.0000 0.10890  0.70470  0.45860  Biso   1.000  H
  H4       1.0000 0.39110  0.20470  0.04140  Biso   1.000  H
  H5       1.0000 0.85980  0.35030  0.47380  Biso   1.000  H
  H6       1.0000 0.64020  0.85030  0.02620  Biso   1.000  H
  H7       1.0000 0.14020  0.64970  0.52620  Biso   1.000  H
  H8       1.0000 0.35980  0.14970  0.97380  Biso   1.000  H
  H9       1.0000 0.97350  0.32410  0.49110  Biso   1.000  H
  H10      1.0000 0.52650  0.82410  0.00890  Biso   1.000  H
  H11      1.0000 0.02650  0.67590  0.50890  Biso   1.000  H
  H12      1.0000 0.47350  0.17590  0.99110  Biso   1.000  H
  C5       1.0000 0.86870  0.27150  0.40720  Biso   1.000  C
  C6       1.0000 0.63130  0.77150  0.09280  Biso   1.000  C
  C7       1.0000 0.13130  0.72850  0.59280  Biso   1.000  C
  C8       1.0000 0.36870  0.22850  0.90720  Biso   1.000  C
  H13      1.0000 0.90850  0.23430  0.42130  Biso   1.000  H
  H14      1.0000 0.59150  0.73430  0.07870  Biso   1.000  H
  H15      1.0000 0.09150  0.76570  0.57870  Biso   1.000  H
  H16      1.0000 0.40850  0.26570  0.92130  Biso   1.000  H
  H17      1.0000 0.88710  0.28910  0.35240  Biso   1.000  H
  H18      1.0000 0.61290  0.78910  0.14760  Biso   1.000  H
  H19      1.0000 0.11290  0.71090  0.64760  Biso   1.000  H
  H20      1.0000 0.38710  0.21090  0.85240  Biso   1.000  H
  C9       1.0000 0.75620  0.25600  0.38480  Biso   1.000  C
  C10      1.0000 0.74380  0.75600  0.11520  Biso   1.000  C
  C11      1.0000 0.24380  0.74400  0.61520  Biso   1.000  C
  C12      1.0000 0.25620  0.24400  0.88480  Biso   1.000  C
  C13      1.0000 0.70950  0.20030  0.39290  Biso   1.000  C
  C14      1.0000 0.79050  0.70030  0.10710  Biso   1.000  C
  C15      1.0000 0.29050  0.79970  0.60710  Biso   1.000  C
  C16      1.0000 0.20950  0.29970  0.89290  Biso   1.000  C
  C17      1.0000 0.60220  0.21150  0.37210  Biso   1.000  C
  C18      1.0000 0.89780  0.71150  0.12790  Biso   1.000  C
  C19      1.0000 0.39780  0.78850  0.62790  Biso   1.000  C
  C20      1.0000 0.10220  0.28850  0.87210  Biso   1.000  C
  C21      1.0000 0.50710  0.17080  0.37490  Biso   1.000  C
  C22      1.0000 0.99290  0.67080  0.12510  Biso   1.000  C
  C23      1.0000 0.49290  0.82920  0.62510  Biso   1.000  C
  C24      1.0000 0.00710  0.32920  0.87490  Biso   1.000  C
  H21      1.0000 0.52570  0.14080  0.42370  Biso   1.000  H
  H22      1.0000 0.97430  0.64080  0.07630  Biso   1.000  H
  H23      1.0000 0.47430  0.85920  0.57630  Biso   1.000  H
  H24      1.0000 0.02570  0.35920  0.92370  Biso   1.000  H
  H25      1.0000 0.45040  0.19530  0.38800  Biso   1.000  H
  H26      1.0000 0.04960  0.69530  0.11200  Biso   1.000  H
  H27      1.0000 0.54960  0.80470  0.61200  Biso   1.000  H
  H28      1.0000 0.95040  0.30470  0.88800  Biso   1.000  H
  C25      1.0000 0.47360  0.14030  0.28490  Biso   1.000  C
  C26      1.0000 0.02640  0.64030  0.21510  Biso   1.000  C
  C27      1.0000 0.52640  0.85970  0.71510  Biso   1.000  C
  C28      1.0000 0.97360  0.35970  0.78490  Biso   1.000  C
  H29      1.0000 0.46510  0.16990  0.23610  Biso   1.000  H
  H30      1.0000 0.03490  0.66990  0.26390  Biso   1.000  H
  H31      1.0000 0.53490  0.83010  0.76390  Biso   1.000  H
  H32      1.0000 0.96510  0.33010  0.73610  Biso   1.000  H
  H33      1.0000 0.40830  0.12000  0.28310  Biso   1.000  H
  H34      1.0000 0.09170  0.62000  0.21690  Biso   1.000  H
  H35      1.0000 0.59170  0.88000  0.71690  Biso   1.000  H
  H36      1.0000 0.90830  0.38000  0.78310  Biso   1.000  H
  H37      1.0000 0.52540  0.11110  0.27690  Biso   1.000  H
  H38      1.0000 0.97460  0.61110  0.22310  Biso   1.000  H
  H39      1.0000 0.47460  0.88890  0.72310  Biso   1.000  H
  H40      1.0000 0.02540  0.38890  0.77690  Biso   1.000  H
  C29      1.0000 0.76020  0.14100  0.41830  Biso   1.000  C
  C30      1.0000 0.73980  0.64100  0.08170  Biso   1.000  C
  C31      1.0000 0.23980  0.85900  0.58170  Biso   1.000  C
  C32      1.0000 0.26020  0.35900  0.91830  Biso   1.000  C
  C33      1.0000 0.82930  0.11590  0.37060  Biso   1.000  C
  C34      1.0000 0.67070  0.61590  0.12940  Biso   1.000  C
  C35      1.0000 0.17070  0.88410  0.62940  Biso   1.000  C
  C36      1.0000 0.32930  0.38410  0.87060  Biso   1.000  C
  H41      1.0000 0.84950  0.13810  0.32370  Biso   1.000  H
  H42      1.0000 0.65050  0.63810  0.17630  Biso   1.000  H
  H43      1.0000 0.15050  0.86190  0.67630  Biso   1.000  H
  H44      1.0000 0.34950  0.36190  0.82370  Biso   1.000  H
  C37      1.0000 0.86970  0.05780  0.39110  Biso   1.000  C
  C38      1.0000 0.63030  0.55780  0.10890  Biso   1.000  C
  C39      1.0000 0.13030  0.94220  0.60890  Biso   1.000  C
  C40      1.0000 0.36970  0.44220  0.89110  Biso   1.000  C
  H45      1.0000 0.91570  0.04200  0.35700  Biso   1.000  H
  H46      1.0000 0.58430  0.54200  0.14300  Biso   1.000  H
  H47      1.0000 0.08430  0.95800  0.64300  Biso   1.000  H
  H48      1.0000 0.41570  0.45800  0.85700  Biso   1.000  H
  C41      1.0000 0.78210  0.05000  0.50870  Biso   1.000  C
  C42      1.0000 0.71790  0.55000  0.99130  Biso   1.000  C
  C43      1.0000 0.21790  0.95000  0.49130  Biso   1.000  C
  C44      1.0000 0.28210  0.45000  0.00870  Biso   1.000  C
  H49      1.0000 0.76810  0.02840  0.55890  Biso   1.000  H
  H50      1.0000 0.73190  0.52840  0.94110  Biso   1.000  H
  H51      1.0000 0.23190  0.97160  0.44110  Biso   1.000  H
  H52      1.0000 0.26810  0.47160  0.05890  Biso   1.000  H
  C45      1.0000 0.73820  0.10600  0.49060  Biso   1.000  C
  C46      1.0000 0.76180  0.60600  0.00940  Biso   1.000  C
  C47      1.0000 0.26180  0.89400  0.50940  Biso   1.000  C
  C48      1.0000 0.23820  0.39400  0.99060  Biso   1.000  C
  H53      1.0000 0.69350  0.12090  0.52660  Biso   1.000  H
  H54      1.0000 0.80650  0.62090  0.97340  Biso   1.000  H
  H55      1.0000 0.30650  0.87910  0.47340  Biso   1.000  H
  H56      1.0000 0.19350  0.37910  0.02660  Biso   1.000  H
  C49      1.0000 0.20100  0.24140  0.12650  Biso   1.000  C
  C50      1.0000 0.29900  0.74140  0.37350  Biso   1.000  C
  C51      1.0000 0.79900  0.75860  0.87350  Biso   1.000  C
  C52      1.0000 0.70100  0.25860  0.62650  Biso   1.000  C
  H57      1.0000 0.14260  0.26400  0.09260  Biso   1.000  H
  H58      1.0000 0.35740  0.76400  0.40740  Biso   1.000  H
  H59      1.0000 0.85740  0.73600  0.90740  Biso   1.000  H
  H60      1.0000 0.64260  0.23600  0.59260  Biso   1.000  H
  H61      1.0000 0.18580  0.19870  0.12080  Biso   1.000  H
  H62      1.0000 0.31420  0.69870  0.37920  Biso   1.000  H
  H63      1.0000 0.81420  0.80130  0.87920  Biso   1.000  H
  H64      1.0000 0.68580  0.30130  0.62080  Biso   1.000  H
  H65      1.0000 0.26170  0.25000  0.10180  Biso   1.000  H
  H66      1.0000 0.23830  0.75000  0.39820  Biso   1.000  H
  H67      1.0000 0.73830  0.75000  0.89820  Biso   1.000  H
  H68      1.0000 0.76170  0.25000  0.60180  Biso   1.000  H
  C53      1.0000 0.22090  0.25900  0.22480  Biso   1.000  C
  C54      1.0000 0.27910  0.75900  0.27520  Biso   1.000  C
  C55      1.0000 0.77910  0.74100  0.77520  Biso   1.000  C
  C56      1.0000 0.72090  0.24100  0.72480  Biso   1.000  C
  H69      1.0000 0.28350  0.23840  0.25740  Biso   1.000  H
  H70      1.0000 0.21650  0.73840  0.24260  Biso   1.000  H
  H71      1.0000 0.71650  0.76160  0.74260  Biso   1.000  H
  H72      1.0000 0.78350  0.26160  0.75740  Biso   1.000  H
  H73      1.0000 0.16320  0.24500  0.25110  Biso   1.000  H
  H74      1.0000 0.33680  0.74500  0.24890  Biso   1.000  H
  H75      1.0000 0.83680  0.75500  0.74890  Biso   1.000  H
  H76      1.0000 0.66320  0.25500  0.75110  Biso   1.000  H
  C57      1.0000 0.23440  0.32560  0.24150  Biso   1.000  C
  C58      1.0000 0.26560  0.82560  0.25850  Biso   1.000  C
  C59      1.0000 0.76560  0.67440  0.75850  Biso   1.000  C
  C60      1.0000 0.73440  0.17440  0.74150  Biso   1.000  C
  C61      1.0000 0.16410  0.37400  0.22670  Biso   1.000  C
  C62      1.0000 0.33590  0.87400  0.27330  Biso   1.000  C
  C63      1.0000 0.83590  0.62600  0.77330  Biso   1.000  C
  C64      1.0000 0.66410  0.12600  0.72670  Biso   1.000  C
  C65      1.0000 0.22360  0.42550  0.25140  Biso   1.000  C
  C66      1.0000 0.27640  0.92550  0.24860  Biso   1.000  C
  C67      1.0000 0.77640  0.57450  0.74860  Biso   1.000  C
  C68      1.0000 0.72360  0.07450  0.75140  Biso   1.000  C
  C69      1.0000 0.19190  0.49030  0.25960  Biso   1.000  C
  C70      1.0000 0.30810  0.99030  0.24040  Biso   1.000  C
  C71      1.0000 0.80810  0.50970  0.74040  Biso   1.000  C
  C72      1.0000 0.69190  0.00970  0.75960  Biso   1.000  C
  H77      1.0000 0.12250  0.49630  0.22190  Biso   1.000  H
  H78      1.0000 0.37750  0.99630  0.27810  Biso   1.000  H
  H79      1.0000 0.87750  0.50370  0.77810  Biso   1.000  H
  H80      1.0000 0.62250  0.00370  0.72190  Biso   1.000  H
  H81      1.0000 0.23940  0.51650  0.23520  Biso   1.000  H
  H82      1.0000 0.26060  0.01650  0.26480  Biso   1.000  H
  H83      1.0000 0.76060  0.48350  0.76480  Biso   1.000  H
  H84      1.0000 0.73940  0.98350  0.73520  Biso   1.000  H
  C73      1.0000 0.19190  0.50900  0.35750  Biso   1.000  C
  C74      1.0000 0.30810  0.00900  0.14250  Biso   1.000  C
  C75      1.0000 0.80810  0.49100  0.64250  Biso   1.000  C
  C76      1.0000 0.69190  0.99100  0.85750  Biso   1.000  C
  H85      1.0000 0.14200  0.48500  0.38090  Biso   1.000  H
  H86      1.0000 0.35800  0.98500  0.11910  Biso   1.000  H
  H87      1.0000 0.85800  0.51500  0.61910  Biso   1.000  H
  H88      1.0000 0.64200  0.01500  0.88090  Biso   1.000  H
  H89      1.0000 0.17350  0.55120  0.35870  Biso   1.000  H
  H90      1.0000 0.32650  0.05120  0.14130  Biso   1.000  H
  H91      1.0000 0.82650  0.44880  0.64130  Biso   1.000  H
  H92      1.0000 0.67350  0.94880  0.85870  Biso   1.000  H
  H93      1.0000 0.26030  0.50280  0.39550  Biso   1.000  H
  H94      1.0000 0.23970  0.00280  0.10450  Biso   1.000  H
  H95      1.0000 0.73970  0.49720  0.60450  Biso   1.000  H
  H96      1.0000 0.76030  0.99720  0.89550  Biso   1.000  H
  C77      1.0000 0.05150  0.36870  0.18810  Biso   1.000  C
  C78      1.0000 0.44850  0.86870  0.31190  Biso   1.000  C
  C79      1.0000 0.94850  0.63130  0.81190  Biso   1.000  C
  C80      1.0000 0.55150  0.13130  0.68810  Biso   1.000  C
  C81      1.0000 0.99090  0.32360  0.21780  Biso   1.000  C
  C82      1.0000 0.50910  0.82360  0.28220  Biso   1.000  C
  C83      1.0000 0.00910  0.67640  0.78220  Biso   1.000  C
  C84      1.0000 0.49090  0.17640  0.71780  Biso   1.000  C
  H97      1.0000 0.02110  0.29680  0.26460  Biso   1.000  H
  H98      1.0000 0.47890  0.79680  0.23540  Biso   1.000  H
  H99      1.0000 0.97890  0.70320  0.73540  Biso   1.000  H
  H100     1.0000 0.52110  0.20320  0.76460  Biso   1.000  H
  C85      1.0000 0.88650  0.31880  0.17750  Biso   1.000  C
  C86      1.0000 0.61350  0.81880  0.32250  Biso   1.000  C
  C87      1.0000 0.11350  0.68120  0.82250  Biso   1.000  C
  C88      1.0000 0.38650  0.18120  0.67750  Biso   1.000  C
  H101     1.0000 0.84860  0.28810  0.19860  Biso   1.000  H
  H102     1.0000 0.65140  0.78810  0.30140  Biso   1.000  H
  H103     1.0000 0.15140  0.71190  0.80140  Biso   1.000  H
  H104     1.0000 0.34860  0.21190  0.69860  Biso   1.000  H
  C89      1.0000 0.89170  0.39900  0.08460  Biso   1.000  C
  C90      1.0000 0.60830  0.89900  0.41540  Biso   1.000  C
  C91      1.0000 0.10830  0.60100  0.91540  Biso   1.000  C
  C92      1.0000 0.39170  0.10100  0.58460  Biso   1.000  C
  H105     1.0000 0.85830  0.42620  0.03980  Biso   1.000  H
  H106     1.0000 0.64170  0.92620  0.46020  Biso   1.000  H
  H107     1.0000 0.14170  0.57380  0.96020  Biso   1.000  H
  H108     1.0000 0.35830  0.07380  0.53980  Biso   1.000  H
  C93      1.0000 0.99880  0.40700  0.12080  Biso   1.000  C
  C94      1.0000 0.50120  0.90700  0.37920  Biso   1.000  C
  C95      1.0000 0.00120  0.59300  0.87920  Biso   1.000  C
  C96      1.0000 0.49880  0.09300  0.62080  Biso   1.000  C
  H109     1.0000 0.03440  0.43850  0.09900  Biso   1.000  H
  H110     1.0000 0.46560  0.93850  0.40100  Biso   1.000  H
  H111     1.0000 0.96560  0.56150  0.90100  Biso   1.000  H
  H112     1.0000 0.53440  0.06150  0.59900  Biso   1.000  H
  C97      1.0000 0.46040  0.58990  0.46480  Biso   1.000  C
  C98      1.0000 0.03960  0.08990  0.03520  Biso   1.000  C
  C99      1.0000 0.53960  0.41010  0.53520  Biso   1.000  C
  C100     1.0000 0.96040  0.91010  0.96480  Biso   1.000  C
  H113     1.0000 0.44120  0.54850  0.47320  Biso   1.000  H
  H114     1.0000 0.05880  0.04850  0.02680  Biso   1.000  H
  H115     1.0000 0.55880  0.45150  0.52680  Biso   1.000  H
  H116     1.0000 0.94120  0.95150  0.97320  Biso   1.000  H
  H117     1.0000 0.40050  0.61560  0.46110  Biso   1.000  H
  H118     1.0000 0.09950  0.11560  0.03890  Biso   1.000  H
  H119     1.0000 0.59950  0.38440  0.53890  Biso   1.000  H
  H120     1.0000 0.90050  0.88440  0.96110  Biso   1.000  H
  H121     1.0000 0.51420  0.60210  0.51640  Biso   1.000  H
  H122     1.0000 0.98580  0.10210  0.98360  Biso   1.000  H
  H123     1.0000 0.48580  0.39790  0.48360  Biso   1.000  H
  H124     1.0000 0.01420  0.89790  0.01640  Biso   1.000  H
  C101     1.0000 0.50070  0.59530  0.37580  Biso   1.000  C
  C102     1.0000 0.99930  0.09530  0.12420  Biso   1.000  C
  C103     1.0000 0.49930  0.40470  0.62420  Biso   1.000  C
  C104     1.0000 0.00070  0.90470  0.87580  Biso   1.000  C
  H125     1.0000 0.44400  0.58650  0.32350  Biso   1.000  H
  H126     1.0000 0.05600  0.08650  0.17650  Biso   1.000  H
  H127     1.0000 0.55600  0.41350  0.67650  Biso   1.000  H
  H128     1.0000 0.94400  0.91350  0.82350  Biso   1.000  H
  H129     1.0000 0.52290  0.63680  0.36930  Biso   1.000  H
  H130     1.0000 0.97710  0.13680  0.13070  Biso   1.000  H
  H131     1.0000 0.47710  0.36320  0.63070  Biso   1.000  H
  H132     1.0000 0.02290  0.86320  0.86930  Biso   1.000  H
  C105     1.0000 0.59030  0.55340  0.37230  Biso   1.000  C
  C106     1.0000 0.90970  0.05340  0.12770  Biso   1.000  C
  C107     1.0000 0.40970  0.44660  0.62770  Biso   1.000  C
  C108     1.0000 0.09030  0.94660  0.87230  Biso   1.000  C
  C109     1.0000 0.69670  0.56470  0.39040  Biso   1.000  C
  C110     1.0000 0.80330  0.06470  0.10960  Biso   1.000  C
  C111     1.0000 0.30330  0.43530  0.60960  Biso   1.000  C
  C112     1.0000 0.19670  0.93530  0.89040  Biso   1.000  C
  C113     1.0000 0.74400  0.51030  0.37330  Biso   1.000  C
  C114     1.0000 0.75600  0.01030  0.12670  Biso   1.000  C
  C115     1.0000 0.25600  0.48970  0.62670  Biso   1.000  C
  C116     1.0000 0.24400  0.98970  0.87330  Biso   1.000  C
  C117     1.0000 0.85580  0.49600  0.38230  Biso   1.000  C
  C118     1.0000 0.64420  0.99600  0.11770  Biso   1.000  C
  C119     1.0000 0.14420  0.50400  0.61770  Biso   1.000  C
  C120     1.0000 0.35580  0.00400  0.88230  Biso   1.000  C
  H133     1.0000 0.89760  0.53010  0.41080  Biso   1.000  H
  H134     1.0000 0.60240  0.03010  0.08920  Biso   1.000  H
  H135     1.0000 0.10240  0.46990  0.58920  Biso   1.000  H
  H136     1.0000 0.39760  0.96990  0.91080  Biso   1.000  H
  H137     1.0000 0.87370  0.46090  0.42220  Biso   1.000  H
  H138     1.0000 0.62630  0.96090  0.07780  Biso   1.000  H
  H139     1.0000 0.12630  0.53910  0.57780  Biso   1.000  H
  H140     1.0000 0.37370  0.03910  0.92220  Biso   1.000  H
  C121     1.0000 0.87950  0.48350  0.29190  Biso   1.000  C
  C122     1.0000 0.62050  0.98350  0.20810  Biso   1.000  C
  C123     1.0000 0.12050  0.51650  0.70810  Biso   1.000  C
  C124     1.0000 0.37950  0.01650  0.79190  Biso   1.000  C
  H141     1.0000 0.83040  0.45450  0.25940  Biso   1.000  H
  H142     1.0000 0.66960  0.95450  0.24060  Biso   1.000  H
  H143     1.0000 0.16960  0.54550  0.74060  Biso   1.000  H
  H144     1.0000 0.33040  0.04550  0.75940  Biso   1.000  H
  H145     1.0000 0.94900  0.46730  0.30020  Biso   1.000  H
  H146     1.0000 0.55100  0.96730  0.19980  Biso   1.000  H
  H147     1.0000 0.05100  0.53270  0.69980  Biso   1.000  H
  H148     1.0000 0.44900  0.03270  0.80020  Biso   1.000  H
  H149     1.0000 0.87490  0.52040  0.25670  Biso   1.000  H
  H150     1.0000 0.62510  0.02040  0.24330  Biso   1.000  H
  H151     1.0000 0.12510  0.47960  0.74330  Biso   1.000  H
  H152     1.0000 0.37490  0.97960  0.75670  Biso   1.000  H
  C125     1.0000 0.74570  0.62420  0.41520  Biso   1.000  C
  C126     1.0000 0.75430  0.12420  0.08480  Biso   1.000  C
  C127     1.0000 0.25430  0.37580  0.58480  Biso   1.000  C
  C128     1.0000 0.24570  0.87580  0.91520  Biso   1.000  C
  C129     1.0000 0.72850  0.65690  0.49110  Biso   1.000  C
  C130     1.0000 0.77150  0.15690  0.00890  Biso   1.000  C
  C131     1.0000 0.27150  0.34310  0.50890  Biso   1.000  C
  C132     1.0000 0.22850  0.84310  0.99110  Biso   1.000  C
  H153     1.0000 0.69050  0.63970  0.53110  Biso   1.000  H
  H154     1.0000 0.80950  0.13970  0.96890  Biso   1.000  H
  H155     1.0000 0.30950  0.36030  0.46890  Biso   1.000  H
  H156     1.0000 0.19050  0.86030  0.03110  Biso   1.000  H
  C133     1.0000 0.76760  0.71470  0.50700  Biso   1.000  C
  C134     1.0000 0.73240  0.21470  0.99300  Biso   1.000  C
  C135     1.0000 0.23240  0.28530  0.49300  Biso   1.000  C
  C136     1.0000 0.26760  0.78530  0.00700  Biso   1.000  C
  H157     1.0000 0.75690  0.73490  0.55970  Biso   1.000  H
  H158     1.0000 0.74310  0.23490  0.94030  Biso   1.000  H
  H159     1.0000 0.24310  0.26510  0.44030  Biso   1.000  H
  H160     1.0000 0.25690  0.76510  0.05970  Biso   1.000  H
  C137     1.0000 0.84140  0.71230  0.38020  Biso   1.000  C
  C138     1.0000 0.65860  0.21230  0.11980  Biso   1.000  C
  C139     1.0000 0.15860  0.28770  0.61980  Biso   1.000  C
  C140     1.0000 0.34140  0.78770  0.88020  Biso   1.000  C
  H161     1.0000 0.88090  0.73060  0.34230  Biso   1.000  H
  H162     1.0000 0.61910  0.23060  0.15770  Biso   1.000  H
  H163     1.0000 0.11910  0.26940  0.65770  Biso   1.000  H
  H164     1.0000 0.38090  0.76940  0.84230  Biso   1.000  H
  C141     1.0000 0.80610  0.65310  0.36140  Biso   1.000  C
  C142     1.0000 0.69390  0.15310  0.13860  Biso   1.000  C
  C143     1.0000 0.19390  0.34690  0.63860  Biso   1.000  C
  C144     1.0000 0.30610  0.84690  0.86140  Biso   1.000  C
  H165     1.0000 0.82340  0.63240  0.31180  Biso   1.000  H
  H166     1.0000 0.67660  0.13240  0.18820  Biso   1.000  H
  H167     1.0000 0.17660  0.36760  0.68820  Biso   1.000  H
  H168     1.0000 0.32340  0.86760  0.81180  Biso   1.000  H
