data_image0
_cell_length_a       13.8096
_cell_length_b       19.0144
_cell_length_c       15.8329
_cell_angle_alpha    90
_cell_angle_beta     91.09
_cell_angle_gamma    90

_symmetry_space_group_name_H-M    "P 1"
_symmetry_int_tables_number       1

loop_
  _symmetry_equiv_pos_as_xyz
  'x, y, z'

loop_
  _atom_site_label
  _atom_site_occupancy
  _atom_site_fract_x
  _atom_site_fract_y
  _atom_site_fract_z
  _atom_site_thermal_displace_type
  _atom_site_B_iso_or_equiv
  _atom_site_type_symbol
  S1       1.0000 0.18506  0.02372  0.96887  Biso   1.000  S
  S2       1.0000 0.31494  0.52372  0.53113  Biso   1.000  S
  S3       1.0000 0.81494  0.97628  0.03113  Biso   1.000  S
  S4       1.0000 0.68506  0.47628  0.46887  Biso   1.000  S
  Cu1      1.0000 0.13745  0.44036  0.45058  Biso   1.000  Cu
  Cu2      1.0000 0.36255  0.94036  0.04942  Biso   1.000  Cu
  Cu3      1.0000 0.86255  0.55964  0.54942  Biso   1.000  Cu
  Cu4      1.0000 0.63745  0.05964  0.95058  Biso   1.000  Cu
  Cu5      1.0000 0.14665  0.60370  0.44820  Biso   1.000  Cu
  Cu6      1.0000 0.35335  0.10370  0.05180  Biso   1.000  Cu
  Cu7      1.0000 0.85335  0.39630  0.55180  Biso   1.000  Cu
  Cu8      1.0000 0.64665  0.89630  0.94820  Biso   1.000  Cu
  Cu9      1.0000 0.08899  0.52424  0.61995  Biso   1.000  Cu
  Cu10     1.0000 0.41101  0.02424  0.88005  Biso   1.000  Cu
  Cu11     1.0000 0.91101  0.47576  0.38005  Biso   1.000  Cu
  Cu12     1.0000 0.58899  0.97576  0.11995  Biso   1.000  Cu
  Cu13     1.0000 0.07489  0.02185  0.85107  Biso   1.000  Cu
  Cu14     1.0000 0.42511  0.52185  0.64893  Biso   1.000  Cu
  Cu15     1.0000 0.92511  0.97815  0.14893  Biso   1.000  Cu
  Cu16     1.0000 0.57489  0.47815  0.35107  Biso   1.000  Cu
  N1       1.0000 0.16890  0.48350  0.34990  Biso   1.000  N
  N2       1.0000 0.33110  0.98350  0.15010  Biso   1.000  N
  N3       1.0000 0.83110  0.51650  0.65010  Biso   1.000  N
  N4       1.0000 0.66890  0.01650  0.84990  Biso   1.000  N
  N5       1.0000 0.16920  0.55570  0.34750  Biso   1.000  N
  N6       1.0000 0.33080  0.05570  0.15250  Biso   1.000  N
  N7       1.0000 0.83080  0.44430  0.65250  Biso   1.000  N
  N8       1.0000 0.66920  0.94430  0.84750  Biso   1.000  N
  N9       1.0000 0.35740  0.51560  0.98050  Biso   1.000  N
  N10      1.0000 0.14260  0.01560  0.51950  Biso   1.000  N
  N11      1.0000 0.64260  0.48440  0.01950  Biso   1.000  N
  N12      1.0000 0.85740  0.98440  0.48050  Biso   1.000  N
  N13      1.0000 0.12300  0.65570  0.54510  Biso   1.000  N
  N14      1.0000 0.37700  0.15570  0.95490  Biso   1.000  N
  N15      1.0000 0.87700  0.34430  0.45490  Biso   1.000  N
  N16      1.0000 0.62300  0.84430  0.04510  Biso   1.000  N
  N17      1.0000 0.10330  0.62120  0.61960  Biso   1.000  N
  N18      1.0000 0.39670  0.12120  0.88040  Biso   1.000  N
  N19      1.0000 0.89670  0.37880  0.38040  Biso   1.000  N
  N20      1.0000 0.60330  0.87880  0.11960  Biso   1.000  N
  N21      1.0000 0.10390  0.93430  0.77810  Biso   1.000  N
  N22      1.0000 0.39610  0.43430  0.72190  Biso   1.000  N
  N23      1.0000 0.89610  0.06570  0.22190  Biso   1.000  N
  N24      1.0000 0.60390  0.56570  0.27810  Biso   1.000  N
  N25      1.0000 0.08560  0.42640  0.62120  Biso   1.000  N
  N26      1.0000 0.41440  0.92640  0.87880  Biso   1.000  N
  N27      1.0000 0.91440  0.57360  0.37880  Biso   1.000  N
  N28      1.0000 0.58560  0.07360  0.12120  Biso   1.000  N
  N29      1.0000 0.10700  0.39160  0.54850  Biso   1.000  N
  N30      1.0000 0.39300  0.89160  0.95150  Biso   1.000  N
  N31      1.0000 0.89300  0.60840  0.45150  Biso   1.000  N
  N32      1.0000 0.60700  0.10840  0.04850  Biso   1.000  N
  N33      1.0000 0.09120  0.11250  0.78290  Biso   1.000  N
  N34      1.0000 0.40880  0.61250  0.71710  Biso   1.000  N
  N35      1.0000 0.90880  0.88750  0.21710  Biso   1.000  N
  N36      1.0000 0.59120  0.38750  0.28290  Biso   1.000  N
  N37      1.0000 0.05430  0.99370  0.09790  Biso   1.000  N
  N38      1.0000 0.44570  0.49370  0.40210  Biso   1.000  N
  N39      1.0000 0.94570  0.00630  0.90210  Biso   1.000  N
  N40      1.0000 0.55430  0.50630  0.59790  Biso   1.000  N
  N41      1.0000 0.46320  0.20410  0.46550  Biso   1.000  N
  N42      1.0000 0.03680  0.70410  0.03450  Biso   1.000  N
  N43      1.0000 0.53680  0.79590  0.53450  Biso   1.000  N
  N44      1.0000 0.96320  0.29590  0.96550  Biso   1.000  N
  C1       1.0000 0.31090  0.35440  0.30250  Biso   1.000  C
  C2       1.0000 0.18910  0.85440  0.19750  Biso   1.000  C
  C3       1.0000 0.68910  0.64560  0.69750  Biso   1.000  C
  C4       1.0000 0.81090  0.14560  0.80250  Biso   1.000  C
  H1       1.0000 0.31600  0.30500  0.29100  Biso   1.000  H
  H2       1.0000 0.18400  0.80500  0.20900  Biso   1.000  H
  H3       1.0000 0.68400  0.69500  0.70900  Biso   1.000  H
  H4       1.0000 0.81600  0.19500  0.79100  Biso   1.000  H
  H5       1.0000 0.31050  0.36190  0.36250  Biso   1.000  H
  H6       1.0000 0.18950  0.86190  0.13750  Biso   1.000  H
  H7       1.0000 0.68950  0.63810  0.63750  Biso   1.000  H
  H8       1.0000 0.81050  0.13810  0.86250  Biso   1.000  H
  H9       1.0000 0.36510  0.37850  0.27890  Biso   1.000  H
  H10      1.0000 0.13490  0.87850  0.22110  Biso   1.000  H
  H11      1.0000 0.63490  0.62150  0.72110  Biso   1.000  H
  H12      1.0000 0.86510  0.12150  0.77890  Biso   1.000  H
  C5       1.0000 0.21630  0.38300  0.26260  Biso   1.000  C
  C6       1.0000 0.28370  0.88300  0.23740  Biso   1.000  C
  C7       1.0000 0.78370  0.61700  0.73740  Biso   1.000  C
  C8       1.0000 0.71630  0.11700  0.76260  Biso   1.000  C
  H13      1.0000 0.21660  0.37430  0.20230  Biso   1.000  H
  H14      1.0000 0.28340  0.87430  0.29770  Biso   1.000  H
  H15      1.0000 0.78340  0.62570  0.79770  Biso   1.000  H
  H16      1.0000 0.71660  0.12570  0.70230  Biso   1.000  H
  H17      1.0000 0.16210  0.35750  0.28580  Biso   1.000  H
  H18      1.0000 0.33790  0.85750  0.21420  Biso   1.000  H
  H19      1.0000 0.83790  0.64250  0.71420  Biso   1.000  H
  H20      1.0000 0.66210  0.14250  0.78580  Biso   1.000  H
  C9       1.0000 0.20180  0.46020  0.27730  Biso   1.000  C
  C10      1.0000 0.29820  0.96020  0.22270  Biso   1.000  C
  C11      1.0000 0.79820  0.53980  0.72270  Biso   1.000  C
  C12      1.0000 0.70180  0.03980  0.77730  Biso   1.000  C
  C13      1.0000 0.22470  0.51770  0.22400  Biso   1.000  C
  C14      1.0000 0.27530  0.01770  0.27600  Biso   1.000  C
  C15      1.0000 0.77530  0.48230  0.77600  Biso   1.000  C
  C16      1.0000 0.72470  0.98230  0.72400  Biso   1.000  C
  C17      1.0000 0.20120  0.57630  0.27280  Biso   1.000  C
  C18      1.0000 0.29880  0.07630  0.22720  Biso   1.000  C
  C19      1.0000 0.79880  0.42370  0.72720  Biso   1.000  C
  C20      1.0000 0.70120  0.92370  0.77280  Biso   1.000  C
  C21      1.0000 0.21750  0.65290  0.25600  Biso   1.000  C
  C22      1.0000 0.28250  0.15290  0.24400  Biso   1.000  C
  C23      1.0000 0.78250  0.34710  0.74400  Biso   1.000  C
  C24      1.0000 0.71750  0.84710  0.75600  Biso   1.000  C
  H21      1.0000 0.20160  0.66280  0.19730  Biso   1.000  H
  H22      1.0000 0.29840  0.16280  0.30270  Biso   1.000  H
  H23      1.0000 0.79840  0.33720  0.80270  Biso   1.000  H
  H24      1.0000 0.70160  0.83720  0.69730  Biso   1.000  H
  H25      1.0000 0.17430  0.68040  0.29060  Biso   1.000  H
  H26      1.0000 0.32570  0.18040  0.20940  Biso   1.000  H
  H27      1.0000 0.82570  0.31960  0.70940  Biso   1.000  H
  H28      1.0000 0.67430  0.81960  0.79060  Biso   1.000  H
  C25      1.0000 0.31820  0.67480  0.27410  Biso   1.000  C
  C26      1.0000 0.18180  0.17480  0.22590  Biso   1.000  C
  C27      1.0000 0.68180  0.32520  0.72590  Biso   1.000  C
  C28      1.0000 0.81820  0.82520  0.77410  Biso   1.000  C
  H29      1.0000 0.32490  0.72410  0.26240  Biso   1.000  H
  H30      1.0000 0.17510  0.22410  0.23760  Biso   1.000  H
  H31      1.0000 0.67510  0.27590  0.73760  Biso   1.000  H
  H32      1.0000 0.82490  0.77590  0.76240  Biso   1.000  H
  H33      1.0000 0.36120  0.64860  0.23910  Biso   1.000  H
  H34      1.0000 0.13880  0.14860  0.26090  Biso   1.000  H
  H35      1.0000 0.63880  0.35140  0.76090  Biso   1.000  H
  H36      1.0000 0.86120  0.85140  0.73910  Biso   1.000  H
  H37      1.0000 0.33390  0.66610  0.33240  Biso   1.000  H
  H38      1.0000 0.16610  0.16610  0.16760  Biso   1.000  H
  H39      1.0000 0.66610  0.33390  0.66760  Biso   1.000  H
  H40      1.0000 0.83390  0.83390  0.83240  Biso   1.000  H
  C29      1.0000 0.26600  0.51610  0.13990  Biso   1.000  C
  C30      1.0000 0.23400  0.01610  0.36010  Biso   1.000  C
  C31      1.0000 0.73400  0.48390  0.86010  Biso   1.000  C
  C32      1.0000 0.76600  0.98390  0.63990  Biso   1.000  C
  C33      1.0000 0.34420  0.47380  0.12010  Biso   1.000  C
  C34      1.0000 0.15580  0.97380  0.37990  Biso   1.000  C
  C35      1.0000 0.65580  0.52620  0.87990  Biso   1.000  C
  C36      1.0000 0.84420  0.02620  0.62010  Biso   1.000  C
  H41      1.0000 0.36850  0.44300  0.16080  Biso   1.000  H
  H42      1.0000 0.13150  0.94300  0.33920  Biso   1.000  H
  H43      1.0000 0.63150  0.55700  0.83920  Biso   1.000  H
  H44      1.0000 0.86850  0.05700  0.66080  Biso   1.000  H
  C37      1.0000 0.38740  0.47560  0.04250  Biso   1.000  C
  C38      1.0000 0.11260  0.97560  0.45750  Biso   1.000  C
  C39      1.0000 0.61260  0.52440  0.95750  Biso   1.000  C
  C40      1.0000 0.88740  0.02440  0.54250  Biso   1.000  C
  H45      1.0000 0.44070  0.44680  0.03380  Biso   1.000  H
  H46      1.0000 0.05930  0.94680  0.46620  Biso   1.000  H
  H47      1.0000 0.55930  0.55320  0.96620  Biso   1.000  H
  H48      1.0000 0.94070  0.05320  0.53380  Biso   1.000  H
  C41      1.0000 0.28150  0.55620  0.99530  Biso   1.000  C
  C42      1.0000 0.21850  0.05620  0.50470  Biso   1.000  C
  C43      1.0000 0.71850  0.44380  0.00470  Biso   1.000  C
  C44      1.0000 0.78150  0.94380  0.49530  Biso   1.000  C
  H49      1.0000 0.25960  0.58590  0.95240  Biso   1.000  H
  H50      1.0000 0.24040  0.08590  0.54760  Biso   1.000  H
  H51      1.0000 0.74040  0.41410  0.04760  Biso   1.000  H
  H52      1.0000 0.75960  0.91410  0.45240  Biso   1.000  H
  C45      1.0000 0.23080  0.55680  0.07420  Biso   1.000  C
  C46      1.0000 0.26920  0.05680  0.42580  Biso   1.000  C
  C47      1.0000 0.76920  0.44320  0.92580  Biso   1.000  C
  C48      1.0000 0.73080  0.94320  0.57420  Biso   1.000  C
  H53      1.0000 0.17550  0.58400  0.08050  Biso   1.000  H
  H54      1.0000 0.32450  0.08400  0.41950  Biso   1.000  H
  H55      1.0000 0.82450  0.41600  0.91950  Biso   1.000  H
  H56      1.0000 0.67550  0.91600  0.58050  Biso   1.000  H
  C49      1.0000 0.25840  0.78980  0.48820  Biso   1.000  C
  C50      1.0000 0.24160  0.28980  0.01180  Biso   1.000  C
  C51      1.0000 0.74160  0.21020  0.51180  Biso   1.000  C
  C52      1.0000 0.75840  0.71020  0.98820  Biso   1.000  C
  H57      1.0000 0.26960  0.82230  0.44300  Biso   1.000  H
  H58      1.0000 0.23040  0.32230  0.05700  Biso   1.000  H
  H59      1.0000 0.73040  0.17770  0.55700  Biso   1.000  H
  H60      1.0000 0.76960  0.67770  0.94300  Biso   1.000  H
  H61      1.0000 0.29280  0.74690  0.47780  Biso   1.000  H
  H62      1.0000 0.20720  0.24690  0.02220  Biso   1.000  H
  H63      1.0000 0.70720  0.25310  0.52220  Biso   1.000  H
  H64      1.0000 0.79280  0.75310  0.97780  Biso   1.000  H
  H65      1.0000 0.28090  0.80990  0.54060  Biso   1.000  H
  H66      1.0000 0.21910  0.30990  0.95940  Biso   1.000  H
  H67      1.0000 0.71910  0.19010  0.45940  Biso   1.000  H
  H68      1.0000 0.78090  0.69010  0.04060  Biso   1.000  H
  C53      1.0000 0.15280  0.77470  0.49300  Biso   1.000  C
  C54      1.0000 0.34720  0.27470  0.00700  Biso   1.000  C
  C55      1.0000 0.84720  0.22530  0.50700  Biso   1.000  C
  C56      1.0000 0.65280  0.72530  0.99300  Biso   1.000  C
  H69      1.0000 0.13050  0.75550  0.43930  Biso   1.000  H
  H70      1.0000 0.36950  0.25550  0.06070  Biso   1.000  H
  H71      1.0000 0.86950  0.24450  0.56070  Biso   1.000  H
  H72      1.0000 0.63050  0.74450  0.93930  Biso   1.000  H
  H73      1.0000 0.11860  0.81850  0.50200  Biso   1.000  H
  H74      1.0000 0.38140  0.31850  0.99800  Biso   1.000  H
  H75      1.0000 0.88140  0.18150  0.49800  Biso   1.000  H
  H76      1.0000 0.61860  0.68150  0.00200  Biso   1.000  H
  C57      1.0000 0.12740  0.72440  0.56150  Biso   1.000  C
  C58      1.0000 0.37260  0.22440  0.93850  Biso   1.000  C
  C59      1.0000 0.87260  0.27560  0.43850  Biso   1.000  C
  C60      1.0000 0.62740  0.77560  0.06150  Biso   1.000  C
  C61      1.0000 0.11340  0.73610  0.64770  Biso   1.000  C
  C62      1.0000 0.38660  0.23610  0.85230  Biso   1.000  C
  C63      1.0000 0.88660  0.26390  0.35230  Biso   1.000  C
  C64      1.0000 0.61340  0.76390  0.14770  Biso   1.000  C
  C65      1.0000 0.09810  0.66930  0.68100  Biso   1.000  C
  C66      1.0000 0.40190  0.16930  0.81900  Biso   1.000  C
  C67      1.0000 0.90190  0.33070  0.31900  Biso   1.000  C
  C68      1.0000 0.59810  0.83070  0.18100  Biso   1.000  C
  C69      1.0000 0.05710  0.64790  0.76700  Biso   1.000  C
  C70      1.0000 0.44290  0.14790  0.73300  Biso   1.000  C
  C71      1.0000 0.94290  0.35210  0.23300  Biso   1.000  C
  C72      1.0000 0.55710  0.85210  0.26700  Biso   1.000  C
  H77      1.0000 0.02550  0.68710  0.79450  Biso   1.000  H
  H78      1.0000 0.47450  0.18710  0.70550  Biso   1.000  H
  H79      1.0000 0.97450  0.31290  0.20550  Biso   1.000  H
  H80      1.0000 0.52550  0.81290  0.29450  Biso   1.000  H
  H81      1.0000 0.01210  0.60890  0.76160  Biso   1.000  H
  H82      1.0000 0.48790  0.10890  0.73840  Biso   1.000  H
  H83      1.0000 0.98790  0.39110  0.23840  Biso   1.000  H
  H84      1.0000 0.51210  0.89110  0.26160  Biso   1.000  H
  C73      1.0000 0.14470  0.62760  0.81150  Biso   1.000  C
  C74      1.0000 0.35530  0.12760  0.68850  Biso   1.000  C
  C75      1.0000 0.85530  0.37240  0.18850  Biso   1.000  C
  C76      1.0000 0.64470  0.87240  0.31150  Biso   1.000  C
  H85      1.0000 0.12930  0.61250  0.86750  Biso   1.000  H
  H86      1.0000 0.37070  0.11250  0.63250  Biso   1.000  H
  H87      1.0000 0.87070  0.38750  0.13250  Biso   1.000  H
  H88      1.0000 0.62930  0.88750  0.36750  Biso   1.000  H
  H89      1.0000 0.18810  0.66700  0.81470  Biso   1.000  H
  H90      1.0000 0.31190  0.16700  0.68530  Biso   1.000  H
  H91      1.0000 0.81190  0.33300  0.18530  Biso   1.000  H
  H92      1.0000 0.68810  0.83300  0.31470  Biso   1.000  H
  H93      1.0000 0.17510  0.58970  0.78190  Biso   1.000  H
  H94      1.0000 0.32490  0.08970  0.71810  Biso   1.000  H
  H95      1.0000 0.82490  0.41030  0.21810  Biso   1.000  H
  H96      1.0000 0.67510  0.91030  0.28190  Biso   1.000  H
  C77      1.0000 0.11160  0.80440  0.69310  Biso   1.000  C
  C78      1.0000 0.38840  0.30440  0.80690  Biso   1.000  C
  C79      1.0000 0.88840  0.19560  0.30690  Biso   1.000  C
  C80      1.0000 0.61160  0.69560  0.19310  Biso   1.000  C
  C81      1.0000 0.05940  0.86040  0.66280  Biso   1.000  C
  C82      1.0000 0.44060  0.36040  0.83720  Biso   1.000  C
  C83      1.0000 0.94060  0.13960  0.33720  Biso   1.000  C
  C84      1.0000 0.55940  0.63960  0.16280  Biso   1.000  C
  H97      1.0000 0.02450  0.85600  0.61220  Biso   1.000  H
  H98      1.0000 0.47550  0.35600  0.88780  Biso   1.000  H
  H99      1.0000 0.97550  0.14400  0.38780  Biso   1.000  H
  H100     1.0000 0.52450  0.64400  0.11220  Biso   1.000  H
  C85      1.0000 0.05780  0.92310  0.70590  Biso   1.000  C
  C86      1.0000 0.44220  0.42310  0.79410  Biso   1.000  C
  C87      1.0000 0.94220  0.07690  0.29410  Biso   1.000  C
  C88      1.0000 0.55780  0.57690  0.20590  Biso   1.000  C
  H101     1.0000 0.02180  0.95990  0.68260  Biso   1.000  H
  H102     1.0000 0.47820  0.45990  0.81740  Biso   1.000  H
  H103     1.0000 0.97820  0.04010  0.31740  Biso   1.000  H
  H104     1.0000 0.52180  0.54010  0.18260  Biso   1.000  H
  C89      1.0000 0.15800  0.88110  0.80750  Biso   1.000  C
  C90      1.0000 0.34200  0.38110  0.69250  Biso   1.000  C
  C91      1.0000 0.84200  0.11890  0.19250  Biso   1.000  C
  C92      1.0000 0.65800  0.61890  0.30750  Biso   1.000  C
  H105     1.0000 0.19470  0.88770  0.85680  Biso   1.000  H
  H106     1.0000 0.30530  0.38770  0.64320  Biso   1.000  H
  H107     1.0000 0.80530  0.11230  0.14320  Biso   1.000  H
  H108     1.0000 0.69470  0.61230  0.35680  Biso   1.000  H
  C93      1.0000 0.16110  0.81600  0.76680  Biso   1.000  C
  C94      1.0000 0.33890  0.31600  0.73320  Biso   1.000  C
  C95      1.0000 0.83890  0.18400  0.23320  Biso   1.000  C
  C96      1.0000 0.66110  0.68400  0.26680  Biso   1.000  C
  H109     1.0000 0.19790  0.77980  0.79060  Biso   1.000  H
  H110     1.0000 0.30210  0.27980  0.70940  Biso   1.000  H
  H111     1.0000 0.80210  0.22020  0.20940  Biso   1.000  H
  H112     1.0000 0.69790  0.72020  0.29060  Biso   1.000  H
  C97      1.0000 0.13560  0.42570  0.82480  Biso   1.000  C
  C98      1.0000 0.36440  0.92570  0.67520  Biso   1.000  C
  C99      1.0000 0.86440  0.57430  0.17520  Biso   1.000  C
  C100     1.0000 0.63560  0.07430  0.32480  Biso   1.000  C
  H113     1.0000 0.11300  0.44140  0.87860  Biso   1.000  H
  H114     1.0000 0.38700  0.94140  0.62140  Biso   1.000  H
  H115     1.0000 0.88700  0.55860  0.12140  Biso   1.000  H
  H116     1.0000 0.61300  0.05860  0.37860  Biso   1.000  H
  H117     1.0000 0.17010  0.46320  0.79810  Biso   1.000  H
  H118     1.0000 0.32990  0.96320  0.70190  Biso   1.000  H
  H119     1.0000 0.82990  0.53680  0.20190  Biso   1.000  H
  H120     1.0000 0.67010  0.03680  0.29810  Biso   1.000  H
  H121     1.0000 0.17790  0.38610  0.83270  Biso   1.000  H
  H122     1.0000 0.32210  0.88610  0.66730  Biso   1.000  H
  H123     1.0000 0.82210  0.61390  0.16730  Biso   1.000  H
  H124     1.0000 0.67790  0.11390  0.33270  Biso   1.000  H
  C101     1.0000 0.04940  0.40430  0.76910  Biso   1.000  C
  C102     1.0000 0.45060  0.90430  0.73090  Biso   1.000  C
  C103     1.0000 0.95060  0.59570  0.23090  Biso   1.000  C
  C104     1.0000 0.54940  0.09570  0.26910  Biso   1.000  C
  H125     1.0000 0.01410  0.36750  0.79770  Biso   1.000  H
  H126     1.0000 0.48590  0.86750  0.70230  Biso   1.000  H
  H127     1.0000 0.98590  0.63250  0.20230  Biso   1.000  H
  H128     1.0000 0.51410  0.13250  0.29770  Biso   1.000  H
  H129     1.0000 0.00640  0.44440  0.76320  Biso   1.000  H
  H130     1.0000 0.49360  0.94440  0.73680  Biso   1.000  H
  H131     1.0000 0.99360  0.55560  0.23680  Biso   1.000  H
  H132     1.0000 0.50640  0.05560  0.26320  Biso   1.000  H
  C105     1.0000 0.07340  0.37910  0.68390  Biso   1.000  C
  C106     1.0000 0.42660  0.87910  0.81610  Biso   1.000  C
  C107     1.0000 0.92660  0.62090  0.31610  Biso   1.000  C
  C108     1.0000 0.57340  0.12090  0.18390  Biso   1.000  C
  C109     1.0000 0.08830  0.31110  0.65110  Biso   1.000  C
  C110     1.0000 0.41170  0.81110  0.84890  Biso   1.000  C
  C111     1.0000 0.91170  0.68890  0.34890  Biso   1.000  C
  C112     1.0000 0.58830  0.18890  0.15110  Biso   1.000  C
  C113     1.0000 0.10720  0.32290  0.56530  Biso   1.000  C
  C114     1.0000 0.39280  0.82290  0.93470  Biso   1.000  C
  C115     1.0000 0.89280  0.67710  0.43470  Biso   1.000  C
  C116     1.0000 0.60720  0.17710  0.06530  Biso   1.000  C
  C117     1.0000 0.12440  0.27300  0.48780  Biso   1.000  C
  C118     1.0000 0.37560  0.77300  0.01220  Biso   1.000  C
  C119     1.0000 0.87560  0.72700  0.51220  Biso   1.000  C
  C120     1.0000 0.62440  0.22700  0.98780  Biso   1.000  C
  H133     1.0000 0.08360  0.23160  0.49050  Biso   1.000  H
  H134     1.0000 0.41640  0.73160  0.00950  Biso   1.000  H
  H135     1.0000 0.91640  0.76840  0.50950  Biso   1.000  H
  H136     1.0000 0.58360  0.26840  0.99050  Biso   1.000  H
  H137     1.0000 0.11130  0.29730  0.43490  Biso   1.000  H
  H138     1.0000 0.38870  0.79730  0.06510  Biso   1.000  H
  H139     1.0000 0.88870  0.70270  0.56510  Biso   1.000  H
  H140     1.0000 0.61130  0.20270  0.93490  Biso   1.000  H
  C121     1.0000 0.22250  0.25480  0.49560  Biso   1.000  C
  C122     1.0000 0.27750  0.75480  0.00440  Biso   1.000  C
  C123     1.0000 0.77750  0.74520  0.50440  Biso   1.000  C
  C124     1.0000 0.72250  0.24520  0.99560  Biso   1.000  C
  H141     1.0000 0.23950  0.22400  0.45010  Biso   1.000  H
  H142     1.0000 0.26050  0.72400  0.04990  Biso   1.000  H
  H143     1.0000 0.76050  0.77600  0.54990  Biso   1.000  H
  H144     1.0000 0.73950  0.27600  0.95010  Biso   1.000  H
  H145     1.0000 0.23390  0.23140  0.54850  Biso   1.000  H
  H146     1.0000 0.26610  0.73140  0.95150  Biso   1.000  H
  H147     1.0000 0.76610  0.76860  0.45150  Biso   1.000  H
  H148     1.0000 0.73390  0.26860  0.04850  Biso   1.000  H
  H149     1.0000 0.26140  0.29660  0.49340  Biso   1.000  H
  H150     1.0000 0.23860  0.79660  0.00660  Biso   1.000  H
  H151     1.0000 0.73860  0.70340  0.50660  Biso   1.000  H
  H152     1.0000 0.76140  0.20340  0.99340  Biso   1.000  H
  C125     1.0000 0.08820  0.24360  0.69620  Biso   1.000  C
  C126     1.0000 0.41180  0.74360  0.80380  Biso   1.000  C
  C127     1.0000 0.91180  0.75640  0.30380  Biso   1.000  C
  C128     1.0000 0.58820  0.25640  0.19620  Biso   1.000  C
  C129     1.0000 0.11190  0.23750  0.78010  Biso   1.000  C
  C130     1.0000 0.38810  0.73750  0.71990  Biso   1.000  C
  C131     1.0000 0.88810  0.76250  0.21990  Biso   1.000  C
  C132     1.0000 0.61190  0.26250  0.28010  Biso   1.000  C
  H153     1.0000 0.12650  0.27780  0.81110  Biso   1.000  H
  H154     1.0000 0.37350  0.77780  0.68890  Biso   1.000  H
  H155     1.0000 0.87350  0.72220  0.18890  Biso   1.000  H
  H156     1.0000 0.62650  0.22220  0.31110  Biso   1.000  H
  C133     1.0000 0.11480  0.17220  0.82020  Biso   1.000  C
  C134     1.0000 0.38520  0.67220  0.67980  Biso   1.000  C
  C135     1.0000 0.88520  0.82780  0.17980  Biso   1.000  C
  C136     1.0000 0.61480  0.32780  0.32020  Biso   1.000  C
  H157     1.0000 0.13460  0.17080  0.87670  Biso   1.000  H
  H158     1.0000 0.36540  0.67080  0.62330  Biso   1.000  H
  H159     1.0000 0.86540  0.82920  0.12330  Biso   1.000  H
  H160     1.0000 0.63460  0.32920  0.37670  Biso   1.000  H
  C137     1.0000 0.07890  0.11810  0.70260  Biso   1.000  C
  C138     1.0000 0.42110  0.61810  0.79740  Biso   1.000  C
  C139     1.0000 0.92110  0.88190  0.29740  Biso   1.000  C
  C140     1.0000 0.57890  0.38190  0.20260  Biso   1.000  C
  H161     1.0000 0.07230  0.07680  0.67160  Biso   1.000  H
  H162     1.0000 0.42770  0.57680  0.82840  Biso   1.000  H
  H163     1.0000 0.92770  0.92320  0.32840  Biso   1.000  H
  H164     1.0000 0.57230  0.42320  0.17160  Biso   1.000  H
  C141     1.0000 0.07480  0.18070  0.65870  Biso   1.000  C
  C142     1.0000 0.42520  0.68070  0.84130  Biso   1.000  C
  C143     1.0000 0.92520  0.81930  0.34130  Biso   1.000  C
  C144     1.0000 0.57480  0.31930  0.15870  Biso   1.000  C
  H165     1.0000 0.06220  0.17940  0.60080  Biso   1.000  H
  H166     1.0000 0.43780  0.67940  0.89920  Biso   1.000  H
  H167     1.0000 0.93780  0.82060  0.39920  Biso   1.000  H
  H168     1.0000 0.56220  0.32060  0.10080  Biso   1.000  H
  C145     1.0000 0.10880  0.00570  0.04600  Biso   1.000  C
  C146     1.0000 0.39120  0.50570  0.45400  Biso   1.000  C
  C147     1.0000 0.89120  0.99430  0.95400  Biso   1.000  C
  C148     1.0000 0.60880  0.49430  0.54600  Biso   1.000  C
  C149     1.0000 0.47550  0.25780  0.49200  Biso   1.000  C
  C150     1.0000 0.02450  0.75780  0.00800  Biso   1.000  C
  C151     1.0000 0.52450  0.74220  0.50800  Biso   1.000  C
  C152     1.0000 0.97550  0.24220  0.99200  Biso   1.000  C
  C153     1.0000 0.48930  0.32770  0.52200  Biso   1.000  C
  C154     1.0000 0.01070  0.82770  0.97800  Biso   1.000  C
  C155     1.0000 0.51070  0.67230  0.47800  Biso   1.000  C
  C156     1.0000 0.98930  0.17230  0.02200  Biso   1.000  C
  H169     1.0000 0.51450  0.35640  0.47760  Biso   1.000  H
  H170     1.0000 0.98550  0.85640  0.02240  Biso   1.000  H
  H171     1.0000 0.48550  0.64360  0.52240  Biso   1.000  H
  H172     1.0000 0.01450  0.14360  0.97760  Biso   1.000  H
  H173     1.0000 0.53430  0.32740  0.56900  Biso   1.000  H
  H174     1.0000 0.96570  0.82740  0.93100  Biso   1.000  H
  H175     1.0000 0.46570  0.67260  0.43100  Biso   1.000  H
  H176     1.0000 0.03430  0.17260  0.06900  Biso   1.000  H
  H177     1.0000 0.42850  0.34660  0.53980  Biso   1.000  H
  H178     1.0000 0.07150  0.84660  0.96020  Biso   1.000  H
  H179     1.0000 0.57150  0.65340  0.46020  Biso   1.000  H
  H180     1.0000 0.92850  0.15340  0.03980  Biso   1.000  H
