data_image0
_cell_length_a       15.06
_cell_length_b       19.446
_cell_length_c       14.059
_cell_angle_alpha    90
_cell_angle_beta     112.943
_cell_angle_gamma    90

_symmetry_space_group_name_H-M    "P 1"
_symmetry_int_tables_number       1

loop_
  _symmetry_equiv_pos_as_xyz
  'x, y, z'

loop_
  _atom_site_label
  _atom_site_occupancy
  _atom_site_fract_x
  _atom_site_fract_y
  _atom_site_fract_z
  _atom_site_thermal_displace_type
  _atom_site_B_iso_or_equiv
  _atom_site_type_symbol
  Br1      1.0000 0.48471  0.00000  0.14089  Biso   1.000  Br
  Br2      1.0000 0.51529  0.00000  0.85911  Biso   1.000  Br
  Br3      1.0000 0.98471  0.50000  0.14089  Biso   1.000  Br
  Br4      1.0000 0.01529  0.50000  0.85911  Biso   1.000  Br
  Cu1      1.0000 0.39345  0.00000  0.94905  Biso   1.000  Cu
  Cu2      1.0000 0.60655  0.00000  0.05095  Biso   1.000  Cu
  Cu3      1.0000 0.89345  0.50000  0.94905  Biso   1.000  Cu
  Cu4      1.0000 0.10655  0.50000  0.05095  Biso   1.000  Cu
  Cu5      1.0000 0.18034  0.50000  0.79810  Biso   1.000  Cu
  Cu6      1.0000 0.81966  0.50000  0.20190  Biso   1.000  Cu
  Cu7      1.0000 0.68034  0.00000  0.79810  Biso   1.000  Cu
  Cu8      1.0000 0.31966  0.00000  0.20190  Biso   1.000  Cu
  Cu9      1.0000 0.98540  0.57956  0.67543  Biso   1.000  Cu
  Cu10     1.0000 0.01460  0.57956  0.32457  Biso   1.000  Cu
  Cu11     1.0000 0.48540  0.07956  0.67543  Biso   1.000  Cu
  Cu12     1.0000 0.51460  0.07956  0.32457  Biso   1.000  Cu
  Cu13     1.0000 0.01460  0.42044  0.32457  Biso   1.000  Cu
  Cu14     1.0000 0.98540  0.42044  0.67543  Biso   1.000  Cu
  Cu15     1.0000 0.51460  0.92044  0.32457  Biso   1.000  Cu
  Cu16     1.0000 0.48540  0.92044  0.67543  Biso   1.000  Cu
  N1       1.0000 0.09840  0.62970  0.74040  Biso   1.000  N
  N2       1.0000 0.90160  0.62970  0.25960  Biso   1.000  N
  N3       1.0000 0.59840  0.12970  0.74040  Biso   1.000  N
  N4       1.0000 0.40160  0.12970  0.25960  Biso   1.000  N
  N5       1.0000 0.90160  0.37030  0.25960  Biso   1.000  N
  N6       1.0000 0.09840  0.37030  0.74040  Biso   1.000  N
  N7       1.0000 0.40160  0.87030  0.25960  Biso   1.000  N
  N8       1.0000 0.59840  0.87030  0.74040  Biso   1.000  N
  N9       1.0000 0.18330  0.59660  0.79300  Biso   1.000  N
  N10      1.0000 0.81670  0.59660  0.20700  Biso   1.000  N
  N11      1.0000 0.68330  0.09660  0.79300  Biso   1.000  N
  N12      1.0000 0.31670  0.09660  0.20700  Biso   1.000  N
  N13      1.0000 0.81670  0.40340  0.20700  Biso   1.000  N
  N14      1.0000 0.18330  0.40340  0.79300  Biso   1.000  N
  N15      1.0000 0.31670  0.90340  0.20700  Biso   1.000  N
  N16      1.0000 0.68330  0.90340  0.79300  Biso   1.000  N
  N17      1.0000 0.34020  0.90700  0.90860  Biso   1.000  N
  N18      1.0000 0.65980  0.90700  0.09140  Biso   1.000  N
  N19      1.0000 0.84020  0.40700  0.90860  Biso   1.000  N
  N20      1.0000 0.15980  0.40700  0.09140  Biso   1.000  N
  N21      1.0000 0.65980  0.09300  0.09140  Biso   1.000  N
  N22      1.0000 0.34020  0.09300  0.90860  Biso   1.000  N
  N23      1.0000 0.15980  0.59300  0.09140  Biso   1.000  N
  N24      1.0000 0.84020  0.59300  0.90860  Biso   1.000  N
  N25      1.0000 0.87140  0.53540  0.59520  Biso   1.000  N
  N26      1.0000 0.12860  0.53540  0.40480  Biso   1.000  N
  N27      1.0000 0.37140  0.03540  0.59520  Biso   1.000  N
  N28      1.0000 0.62860  0.03540  0.40480  Biso   1.000  N
  N29      1.0000 0.12860  0.46460  0.40480  Biso   1.000  N
  N30      1.0000 0.87140  0.46460  0.59520  Biso   1.000  N
  N31      1.0000 0.62860  0.96460  0.40480  Biso   1.000  N
  N32      1.0000 0.37140  0.96460  0.59520  Biso   1.000  N
  N33      1.0000 0.42670  0.50000  0.29170  Biso   1.000  N
  N34      1.0000 0.57330  0.50000  0.70830  Biso   1.000  N
  N35      1.0000 0.92670  0.00000  0.29170  Biso   1.000  N
  N36      1.0000 0.07330  0.00000  0.70830  Biso   1.000  N
  C1       1.0000 0.97800  0.75580  0.76780  Biso   1.000  C
  C2       1.0000 0.02200  0.75580  0.23220  Biso   1.000  C
  C3       1.0000 0.47800  0.25580  0.76780  Biso   1.000  C
  C4       1.0000 0.52200  0.25580  0.23220  Biso   1.000  C
  C5       1.0000 0.02200  0.24420  0.23220  Biso   1.000  C
  C6       1.0000 0.97800  0.24420  0.76780  Biso   1.000  C
  C7       1.0000 0.52200  0.74420  0.23220  Biso   1.000  C
  C8       1.0000 0.47800  0.74420  0.76780  Biso   1.000  C
  H1       1.0000 0.92690  0.78800  0.73500  Biso   1.000  H
  H2       1.0000 0.07310  0.78800  0.26500  Biso   1.000  H
  H3       1.0000 0.42690  0.28800  0.73500  Biso   1.000  H
  H4       1.0000 0.57310  0.28800  0.26500  Biso   1.000  H
  H5       1.0000 0.07310  0.21200  0.26500  Biso   1.000  H
  H6       1.0000 0.92690  0.21200  0.73500  Biso   1.000  H
  H7       1.0000 0.57310  0.71200  0.26500  Biso   1.000  H
  H8       1.0000 0.42690  0.71200  0.73500  Biso   1.000  H
  H9       1.0000 0.01930  0.77300  0.83440  Biso   1.000  H
  H10      1.0000 0.98070  0.77300  0.16560  Biso   1.000  H
  H11      1.0000 0.51930  0.27300  0.83440  Biso   1.000  H
  H12      1.0000 0.48070  0.27300  0.16560  Biso   1.000  H
  H13      1.0000 0.98070  0.22700  0.16560  Biso   1.000  H
  H14      1.0000 0.01930  0.22700  0.83440  Biso   1.000  H
  H15      1.0000 0.48070  0.72700  0.16560  Biso   1.000  H
  H16      1.0000 0.51930  0.72700  0.83440  Biso   1.000  H
  H17      1.0000 0.95110  0.71250  0.77580  Biso   1.000  H
  H18      1.0000 0.04890  0.71250  0.22420  Biso   1.000  H
  H19      1.0000 0.45110  0.21250  0.77580  Biso   1.000  H
  H20      1.0000 0.54890  0.21250  0.22420  Biso   1.000  H
  H21      1.0000 0.04890  0.28750  0.22420  Biso   1.000  H
  H22      1.0000 0.95110  0.28750  0.77580  Biso   1.000  H
  H23      1.0000 0.54890  0.78750  0.22420  Biso   1.000  H
  H24      1.0000 0.45110  0.78750  0.77580  Biso   1.000  H
  C9       1.0000 0.03470  0.74630  0.70310  Biso   1.000  C
  C10      1.0000 0.96530  0.74630  0.29690  Biso   1.000  C
  C11      1.0000 0.53470  0.24630  0.70310  Biso   1.000  C
  C12      1.0000 0.46530  0.24630  0.29690  Biso   1.000  C
  C13      1.0000 0.96530  0.25370  0.29690  Biso   1.000  C
  C14      1.0000 0.03470  0.25370  0.70310  Biso   1.000  C
  C15      1.0000 0.46530  0.75370  0.29690  Biso   1.000  C
  C16      1.0000 0.53470  0.75370  0.70310  Biso   1.000  C
  H25      1.0000 0.06040  0.79030  0.69350  Biso   1.000  H
  H26      1.0000 0.93960  0.79030  0.30650  Biso   1.000  H
  H27      1.0000 0.56040  0.29030  0.69350  Biso   1.000  H
  H28      1.0000 0.43960  0.29030  0.30650  Biso   1.000  H
  H29      1.0000 0.93960  0.20970  0.30650  Biso   1.000  H
  H30      1.0000 0.06040  0.20970  0.69350  Biso   1.000  H
  H31      1.0000 0.43960  0.70970  0.30650  Biso   1.000  H
  H32      1.0000 0.56040  0.70970  0.69350  Biso   1.000  H
  H33      1.0000 0.99280  0.72920  0.63570  Biso   1.000  H
  H34      1.0000 0.00720  0.72920  0.36430  Biso   1.000  H
  H35      1.0000 0.49280  0.22920  0.63570  Biso   1.000  H
  H36      1.0000 0.50720  0.22920  0.36430  Biso   1.000  H
  H37      1.0000 0.00720  0.27080  0.36430  Biso   1.000  H
  H38      1.0000 0.99280  0.27080  0.63570  Biso   1.000  H
  H39      1.0000 0.50720  0.77080  0.36430  Biso   1.000  H
  H40      1.0000 0.49280  0.77080  0.63570  Biso   1.000  H
  C17      1.0000 0.11570  0.69700  0.75180  Biso   1.000  C
  C18      1.0000 0.88430  0.69700  0.24820  Biso   1.000  C
  C19      1.0000 0.61570  0.19700  0.75180  Biso   1.000  C
  C20      1.0000 0.38430  0.19700  0.24820  Biso   1.000  C
  C21      1.0000 0.88430  0.30300  0.24820  Biso   1.000  C
  C22      1.0000 0.11570  0.30300  0.75180  Biso   1.000  C
  C23      1.0000 0.38430  0.80300  0.24820  Biso   1.000  C
  C24      1.0000 0.61570  0.80300  0.75180  Biso   1.000  C
  C25      1.0000 0.21290  0.70860  0.81330  Biso   1.000  C
  C26      1.0000 0.78710  0.70860  0.18670  Biso   1.000  C
  C27      1.0000 0.71290  0.20860  0.81330  Biso   1.000  C
  C28      1.0000 0.28710  0.20860  0.18670  Biso   1.000  C
  C29      1.0000 0.78710  0.29140  0.18670  Biso   1.000  C
  C30      1.0000 0.21290  0.29140  0.81330  Biso   1.000  C
  C31      1.0000 0.28710  0.79140  0.18670  Biso   1.000  C
  C32      1.0000 0.71290  0.79140  0.81330  Biso   1.000  C
  C33      1.0000 0.25100  0.64350  0.83740  Biso   1.000  C
  C34      1.0000 0.74900  0.64350  0.16260  Biso   1.000  C
  C35      1.0000 0.75100  0.14350  0.83740  Biso   1.000  C
  C36      1.0000 0.24900  0.14350  0.16260  Biso   1.000  C
  C37      1.0000 0.74900  0.35650  0.16260  Biso   1.000  C
  C38      1.0000 0.25100  0.35650  0.83740  Biso   1.000  C
  C39      1.0000 0.24900  0.85650  0.16260  Biso   1.000  C
  C40      1.0000 0.75100  0.85650  0.83740  Biso   1.000  C
  C41      1.0000 0.35330  0.62050  0.90130  Biso   1.000  C
  C42      1.0000 0.64670  0.62050  0.09870  Biso   1.000  C
  C43      1.0000 0.85330  0.12050  0.90130  Biso   1.000  C
  C44      1.0000 0.14670  0.12050  0.09870  Biso   1.000  C
  C45      1.0000 0.64670  0.37950  0.09870  Biso   1.000  C
  C46      1.0000 0.35330  0.37950  0.90130  Biso   1.000  C
  C47      1.0000 0.14670  0.87950  0.09870  Biso   1.000  C
  C48      1.0000 0.85330  0.87950  0.90130  Biso   1.000  C
  H41      1.0000 0.39700  0.65810  0.90570  Biso   1.000  H
  H42      1.0000 0.60300  0.65810  0.09430  Biso   1.000  H
  H43      1.0000 0.89700  0.15810  0.90570  Biso   1.000  H
  H44      1.0000 0.10300  0.15810  0.09430  Biso   1.000  H
  H45      1.0000 0.60300  0.34190  0.09430  Biso   1.000  H
  H46      1.0000 0.39700  0.34190  0.90570  Biso   1.000  H
  H47      1.0000 0.10300  0.84190  0.09430  Biso   1.000  H
  H48      1.0000 0.89700  0.84190  0.90570  Biso   1.000  H
  H49      1.0000 0.36960  0.58270  0.86610  Biso   1.000  H
  H50      1.0000 0.63040  0.58270  0.13390  Biso   1.000  H
  H51      1.0000 0.86960  0.08270  0.86610  Biso   1.000  H
  H52      1.0000 0.13040  0.08270  0.13390  Biso   1.000  H
  H53      1.0000 0.63040  0.41730  0.13390  Biso   1.000  H
  H54      1.0000 0.36960  0.41730  0.86610  Biso   1.000  H
  H55      1.0000 0.13040  0.91730  0.13390  Biso   1.000  H
  H56      1.0000 0.86960  0.91730  0.86610  Biso   1.000  H
  C49      1.0000 0.36900  0.59750  0.01090  Biso   1.000  C
  C50      1.0000 0.63100  0.59750  0.98910  Biso   1.000  C
  C51      1.0000 0.86900  0.09750  0.01090  Biso   1.000  C
  C52      1.0000 0.13100  0.09750  0.98910  Biso   1.000  C
  C53      1.0000 0.63100  0.40250  0.98910  Biso   1.000  C
  C54      1.0000 0.36900  0.40250  0.01090  Biso   1.000  C
  C55      1.0000 0.13100  0.90250  0.98910  Biso   1.000  C
  C56      1.0000 0.86900  0.90250  0.01090  Biso   1.000  C
  H57      1.0000 0.43490  0.58370  0.04680  Biso   1.000  H
  H58      1.0000 0.56510  0.58370  0.95320  Biso   1.000  H
  H59      1.0000 0.93490  0.08370  0.04680  Biso   1.000  H
  H60      1.0000 0.06510  0.08370  0.95320  Biso   1.000  H
  H61      1.0000 0.56510  0.41630  0.95320  Biso   1.000  H
  H62      1.0000 0.43490  0.41630  0.04680  Biso   1.000  H
  H63      1.0000 0.06510  0.91630  0.95320  Biso   1.000  H
  H64      1.0000 0.93490  0.91630  0.04680  Biso   1.000  H
  H65      1.0000 0.32720  0.55950  0.00740  Biso   1.000  H
  H66      1.0000 0.67280  0.55950  0.99260  Biso   1.000  H
  H67      1.0000 0.82720  0.05950  0.00740  Biso   1.000  H
  H68      1.0000 0.17280  0.05950  0.99260  Biso   1.000  H
  H69      1.0000 0.67280  0.44050  0.99260  Biso   1.000  H
  H70      1.0000 0.32720  0.44050  0.00740  Biso   1.000  H
  H71      1.0000 0.17280  0.94050  0.99260  Biso   1.000  H
  H72      1.0000 0.82720  0.94050  0.00740  Biso   1.000  H
  H73      1.0000 0.35470  0.63500  0.04710  Biso   1.000  H
  H74      1.0000 0.64530  0.63500  0.95290  Biso   1.000  H
  H75      1.0000 0.85470  0.13500  0.04710  Biso   1.000  H
  H76      1.0000 0.14530  0.13500  0.95290  Biso   1.000  H
  H77      1.0000 0.64530  0.36500  0.95290  Biso   1.000  H
  H78      1.0000 0.35470  0.36500  0.04710  Biso   1.000  H
  H79      1.0000 0.14530  0.86500  0.95290  Biso   1.000  H
  H80      1.0000 0.85470  0.86500  0.04710  Biso   1.000  H
  C57      1.0000 0.25940  0.77570  0.84530  Biso   1.000  C
  C58      1.0000 0.74060  0.77570  0.15470  Biso   1.000  C
  C59      1.0000 0.75940  0.27570  0.84530  Biso   1.000  C
  C60      1.0000 0.24060  0.27570  0.15470  Biso   1.000  C
  C61      1.0000 0.74060  0.22430  0.15470  Biso   1.000  C
  C62      1.0000 0.25940  0.22430  0.84530  Biso   1.000  C
  C63      1.0000 0.24060  0.72430  0.15470  Biso   1.000  C
  C64      1.0000 0.75940  0.72430  0.84530  Biso   1.000  C
  C65      1.0000 0.24140  0.83020  0.77900  Biso   1.000  C
  C66      1.0000 0.75860  0.83020  0.22100  Biso   1.000  C
  C67      1.0000 0.74140  0.33020  0.77900  Biso   1.000  C
  C68      1.0000 0.25860  0.33020  0.22100  Biso   1.000  C
  C69      1.0000 0.75860  0.16980  0.22100  Biso   1.000  C
  C70      1.0000 0.24140  0.16980  0.77900  Biso   1.000  C
  C71      1.0000 0.25860  0.66980  0.22100  Biso   1.000  C
  C72      1.0000 0.74140  0.66980  0.77900  Biso   1.000  C
  H81      1.0000 0.20130  0.82420  0.70990  Biso   1.000  H
  H82      1.0000 0.79870  0.82420  0.29010  Biso   1.000  H
  H83      1.0000 0.70130  0.32420  0.70990  Biso   1.000  H
  H84      1.0000 0.29870  0.32420  0.29010  Biso   1.000  H
  H85      1.0000 0.79870  0.17580  0.29010  Biso   1.000  H
  H86      1.0000 0.20130  0.17580  0.70990  Biso   1.000  H
  H87      1.0000 0.29870  0.67580  0.29010  Biso   1.000  H
  H88      1.0000 0.70130  0.67580  0.70990  Biso   1.000  H
  C73      1.0000 0.28060  0.89280  0.81180  Biso   1.000  C
  C74      1.0000 0.71940  0.89280  0.18820  Biso   1.000  C
  C75      1.0000 0.78060  0.39280  0.81180  Biso   1.000  C
  C76      1.0000 0.21940  0.39280  0.18820  Biso   1.000  C
  C77      1.0000 0.71940  0.10720  0.18820  Biso   1.000  C
  C78      1.0000 0.28060  0.10720  0.81180  Biso   1.000  C
  C79      1.0000 0.21940  0.60720  0.18820  Biso   1.000  C
  C80      1.0000 0.78060  0.60720  0.81180  Biso   1.000  C
  H89      1.0000 0.26510  0.92820  0.76370  Biso   1.000  H
  H90      1.0000 0.73490  0.92820  0.23630  Biso   1.000  H
  H91      1.0000 0.76510  0.42820  0.76370  Biso   1.000  H
  H92      1.0000 0.23490  0.42820  0.23630  Biso   1.000  H
  H93      1.0000 0.73490  0.07180  0.23630  Biso   1.000  H
  H94      1.0000 0.26510  0.07180  0.76370  Biso   1.000  H
  H95      1.0000 0.23490  0.57180  0.23630  Biso   1.000  H
  H96      1.0000 0.76510  0.57180  0.76370  Biso   1.000  H
  C81      1.0000 0.36170  0.85410  0.97440  Biso   1.000  C
  C82      1.0000 0.63830  0.85410  0.02560  Biso   1.000  C
  C83      1.0000 0.86170  0.35410  0.97440  Biso   1.000  C
  C84      1.0000 0.13830  0.35410  0.02560  Biso   1.000  C
  C85      1.0000 0.63830  0.14590  0.02560  Biso   1.000  C
  C86      1.0000 0.36170  0.14590  0.97440  Biso   1.000  C
  C87      1.0000 0.13830  0.64590  0.02560  Biso   1.000  C
  C88      1.0000 0.86170  0.64590  0.97440  Biso   1.000  C
  H97      1.0000 0.40360  0.86140  0.04250  Biso   1.000  H
  H98      1.0000 0.59640  0.86140  0.95750  Biso   1.000  H
  H99      1.0000 0.90360  0.36140  0.04250  Biso   1.000  H
  H100     1.0000 0.09640  0.36140  0.95750  Biso   1.000  H
  H101     1.0000 0.59640  0.13860  0.95750  Biso   1.000  H
  H102     1.0000 0.40360  0.13860  0.04250  Biso   1.000  H
  H103     1.0000 0.09640  0.63860  0.95750  Biso   1.000  H
  H104     1.0000 0.90360  0.63860  0.04250  Biso   1.000  H
  C89      1.0000 0.32420  0.78840  0.94550  Biso   1.000  C
  C90      1.0000 0.67580  0.78840  0.05450  Biso   1.000  C
  C91      1.0000 0.82420  0.28840  0.94550  Biso   1.000  C
  C92      1.0000 0.17580  0.28840  0.05450  Biso   1.000  C
  C93      1.0000 0.67580  0.21160  0.05450  Biso   1.000  C
  C94      1.0000 0.32420  0.21160  0.94550  Biso   1.000  C
  C95      1.0000 0.17580  0.71160  0.05450  Biso   1.000  C
  C96      1.0000 0.82420  0.71160  0.94550  Biso   1.000  C
  H105     1.0000 0.34270  0.75280  0.99350  Biso   1.000  H
  H106     1.0000 0.65730  0.75280  0.00650  Biso   1.000  H
  H107     1.0000 0.84270  0.25280  0.99350  Biso   1.000  H
  H108     1.0000 0.15730  0.25280  0.00650  Biso   1.000  H
  H109     1.0000 0.65730  0.24720  0.00650  Biso   1.000  H
  H110     1.0000 0.34270  0.24720  0.99350  Biso   1.000  H
  H111     1.0000 0.15730  0.74720  0.00650  Biso   1.000  H
  H112     1.0000 0.84270  0.74720  0.99350  Biso   1.000  H
  C97      1.0000 0.78910  0.66100  0.43730  Biso   1.000  C
  C98      1.0000 0.21090  0.66100  0.56270  Biso   1.000  C
  C99      1.0000 0.28910  0.16100  0.43730  Biso   1.000  C
  C100     1.0000 0.71090  0.16100  0.56270  Biso   1.000  C
  C101     1.0000 0.21090  0.33900  0.56270  Biso   1.000  C
  C102     1.0000 0.78910  0.33900  0.43730  Biso   1.000  C
  C103     1.0000 0.71090  0.83900  0.56270  Biso   1.000  C
  C104     1.0000 0.28910  0.83900  0.43730  Biso   1.000  C
  H113     1.0000 0.77480  0.70930  0.43000  Biso   1.000  H
  H114     1.0000 0.22520  0.70930  0.57000  Biso   1.000  H
  H115     1.0000 0.27480  0.20930  0.43000  Biso   1.000  H
  H116     1.0000 0.72520  0.20930  0.57000  Biso   1.000  H
  H117     1.0000 0.22520  0.29070  0.57000  Biso   1.000  H
  H118     1.0000 0.77480  0.29070  0.43000  Biso   1.000  H
  H119     1.0000 0.72520  0.79070  0.57000  Biso   1.000  H
  H120     1.0000 0.27480  0.79070  0.43000  Biso   1.000  H
  H121     1.0000 0.75210  0.63800  0.37370  Biso   1.000  H
  H122     1.0000 0.24790  0.63800  0.62630  Biso   1.000  H
  H123     1.0000 0.25210  0.13800  0.37370  Biso   1.000  H
  H124     1.0000 0.74790  0.13800  0.62630  Biso   1.000  H
  H125     1.0000 0.24790  0.36200  0.62630  Biso   1.000  H
  H126     1.0000 0.75210  0.36200  0.37370  Biso   1.000  H
  H127     1.0000 0.74790  0.86200  0.62630  Biso   1.000  H
  H128     1.0000 0.25210  0.86200  0.37370  Biso   1.000  H
  H129     1.0000 0.85650  0.65410  0.45360  Biso   1.000  H
  H130     1.0000 0.14350  0.65410  0.54640  Biso   1.000  H
  H131     1.0000 0.35650  0.15410  0.45360  Biso   1.000  H
  H132     1.0000 0.64350  0.15410  0.54640  Biso   1.000  H
  H133     1.0000 0.14350  0.34590  0.54640  Biso   1.000  H
  H134     1.0000 0.85650  0.34590  0.45360  Biso   1.000  H
  H135     1.0000 0.64350  0.84590  0.54640  Biso   1.000  H
  H136     1.0000 0.35650  0.84590  0.45360  Biso   1.000  H
  C105     1.0000 0.76460  0.63330  0.51930  Biso   1.000  C
  C106     1.0000 0.23540  0.63330  0.48070  Biso   1.000  C
  C107     1.0000 0.26460  0.13330  0.51930  Biso   1.000  C
  C108     1.0000 0.73540  0.13330  0.48070  Biso   1.000  C
  C109     1.0000 0.23540  0.36670  0.48070  Biso   1.000  C
  C110     1.0000 0.76460  0.36670  0.51930  Biso   1.000  C
  C111     1.0000 0.73540  0.86670  0.48070  Biso   1.000  C
  C112     1.0000 0.26460  0.86670  0.51930  Biso   1.000  C
  H137     1.0000 0.69690  0.64210  0.50360  Biso   1.000  H
  H138     1.0000 0.30310  0.64210  0.49640  Biso   1.000  H
  H139     1.0000 0.19690  0.14210  0.50360  Biso   1.000  H
  H140     1.0000 0.80310  0.14210  0.49640  Biso   1.000  H
  H141     1.0000 0.30310  0.35790  0.49640  Biso   1.000  H
  H142     1.0000 0.69690  0.35790  0.50360  Biso   1.000  H
  H143     1.0000 0.80310  0.85790  0.49640  Biso   1.000  H
  H144     1.0000 0.19690  0.85790  0.50360  Biso   1.000  H
  H145     1.0000 0.80200  0.65690  0.58320  Biso   1.000  H
  H146     1.0000 0.19800  0.65690  0.41680  Biso   1.000  H
  H147     1.0000 0.30200  0.15690  0.58320  Biso   1.000  H
  H148     1.0000 0.69800  0.15690  0.41680  Biso   1.000  H
  H149     1.0000 0.19800  0.34310  0.41680  Biso   1.000  H
  H150     1.0000 0.80200  0.34310  0.58320  Biso   1.000  H
  H151     1.0000 0.69800  0.84310  0.41680  Biso   1.000  H
  H152     1.0000 0.30200  0.84310  0.58320  Biso   1.000  H
  C113     1.0000 0.78340  0.55650  0.53450  Biso   1.000  C
  C114     1.0000 0.21660  0.55650  0.46550  Biso   1.000  C
  C115     1.0000 0.28340  0.05650  0.53450  Biso   1.000  C
  C116     1.0000 0.71660  0.05650  0.46550  Biso   1.000  C
  C117     1.0000 0.21660  0.44350  0.46550  Biso   1.000  C
  C118     1.0000 0.78340  0.44350  0.53450  Biso   1.000  C
  C119     1.0000 0.71660  0.94350  0.46550  Biso   1.000  C
  C120     1.0000 0.28340  0.94350  0.53450  Biso   1.000  C
  C121     1.0000 0.72390  0.50000  0.49260  Biso   1.000  C
  C122     1.0000 0.27610  0.50000  0.50740  Biso   1.000  C
  C123     1.0000 0.22390  0.00000  0.49260  Biso   1.000  C
  C124     1.0000 0.77610  0.00000  0.50740  Biso   1.000  C
  C125     1.0000 0.62220  0.50000  0.42400  Biso   1.000  C
  C126     1.0000 0.37780  0.50000  0.57600  Biso   1.000  C
  C127     1.0000 0.12220  0.00000  0.42400  Biso   1.000  C
  C128     1.0000 0.87780  0.00000  0.57600  Biso   1.000  C
  C129     1.0000 0.48710  0.54330  0.27730  Biso   1.000  C
  C130     1.0000 0.51290  0.54330  0.72270  Biso   1.000  C
  C131     1.0000 0.98710  0.04330  0.27730  Biso   1.000  C
  C132     1.0000 0.01290  0.04330  0.72270  Biso   1.000  C
  C133     1.0000 0.51290  0.45670  0.72270  Biso   1.000  C
  C134     1.0000 0.48710  0.45670  0.27730  Biso   1.000  C
  C135     1.0000 0.01290  0.95670  0.72270  Biso   1.000  C
  C136     1.0000 0.98710  0.95670  0.27730  Biso   1.000  C
  H153     1.0000 0.46410  0.57410  0.22240  Biso   1.000  H
  H154     1.0000 0.53590  0.57410  0.77760  Biso   1.000  H
  H155     1.0000 0.96410  0.07410  0.22240  Biso   1.000  H
  H156     1.0000 0.03590  0.07410  0.77760  Biso   1.000  H
  H157     1.0000 0.53590  0.42590  0.77760  Biso   1.000  H
  H158     1.0000 0.46410  0.42590  0.22240  Biso   1.000  H
  H159     1.0000 0.03590  0.92590  0.77760  Biso   1.000  H
  H160     1.0000 0.96410  0.92590  0.22240  Biso   1.000  H
  C137     1.0000 0.58300  0.54450  0.34080  Biso   1.000  C
  C138     1.0000 0.41700  0.54450  0.65920  Biso   1.000  C
  C139     1.0000 0.08300  0.04450  0.34080  Biso   1.000  C
  C140     1.0000 0.91700  0.04450  0.65920  Biso   1.000  C
  C141     1.0000 0.41700  0.45550  0.65920  Biso   1.000  C
  C142     1.0000 0.58300  0.45550  0.34080  Biso   1.000  C
  C143     1.0000 0.91700  0.95550  0.65920  Biso   1.000  C
  C144     1.0000 0.08300  0.95550  0.34080  Biso   1.000  C
  H161     1.0000 0.62310  0.57620  0.32780  Biso   1.000  H
  H162     1.0000 0.37690  0.57620  0.67220  Biso   1.000  H
  H163     1.0000 0.12310  0.07620  0.32780  Biso   1.000  H
  H164     1.0000 0.87690  0.07620  0.67220  Biso   1.000  H
  H165     1.0000 0.37690  0.42380  0.67220  Biso   1.000  H
  H166     1.0000 0.62310  0.42380  0.32780  Biso   1.000  H
  H167     1.0000 0.87690  0.92380  0.67220  Biso   1.000  H
  H168     1.0000 0.12310  0.92380  0.32780  Biso   1.000  H
  C145     1.0000 0.94140  0.95300  0.55990  Biso   1.000  C
  C146     1.0000 0.05860  0.95300  0.44010  Biso   1.000  C
  C147     1.0000 0.44140  0.45300  0.55990  Biso   1.000  C
  C148     1.0000 0.55860  0.45300  0.44010  Biso   1.000  C
  C149     1.0000 0.05860  0.04700  0.44010  Biso   1.000  C
  C150     1.0000 0.94140  0.04700  0.55990  Biso   1.000  C
  C151     1.0000 0.55860  0.54700  0.44010  Biso   1.000  C
  C152     1.0000 0.44140  0.54700  0.55990  Biso   1.000  C
  C153     1.0000 0.03840  0.95490  0.62800  Biso   1.000  C
  C154     1.0000 0.96160  0.95490  0.37200  Biso   1.000  C
  C155     1.0000 0.53840  0.45490  0.62800  Biso   1.000  C
  C156     1.0000 0.46160  0.45490  0.37200  Biso   1.000  C
  C157     1.0000 0.96160  0.04510  0.37200  Biso   1.000  C
  C158     1.0000 0.03840  0.04510  0.62800  Biso   1.000  C
  C159     1.0000 0.46160  0.54510  0.37200  Biso   1.000  C
  C160     1.0000 0.53840  0.54510  0.62800  Biso   1.000  C
  H169     1.0000 0.91980  0.92160  0.50580  Biso   1.000  H
  H170     1.0000 0.08020  0.92160  0.49420  Biso   1.000  H
  H171     1.0000 0.41980  0.42160  0.50580  Biso   1.000  H
  H172     1.0000 0.58020  0.42160  0.49420  Biso   1.000  H
  H173     1.0000 0.08020  0.07840  0.49420  Biso   1.000  H
  H174     1.0000 0.91980  0.07840  0.50580  Biso   1.000  H
  H175     1.0000 0.58020  0.57840  0.49420  Biso   1.000  H
  H176     1.0000 0.41980  0.57840  0.50580  Biso   1.000  H
  H177     1.0000 0.08100  0.92400  0.61790  Biso   1.000  H
  H178     1.0000 0.91900  0.92400  0.38210  Biso   1.000  H
  H179     1.0000 0.58100  0.42400  0.61790  Biso   1.000  H
  H180     1.0000 0.41900  0.42400  0.38210  Biso   1.000  H
  H181     1.0000 0.91900  0.07600  0.38210  Biso   1.000  H
  H182     1.0000 0.08100  0.07600  0.61790  Biso   1.000  H
  H183     1.0000 0.41900  0.57600  0.38210  Biso   1.000  H
  H184     1.0000 0.58100  0.57600  0.61790  Biso   1.000  H
