data_image0
_cell_length_a       14.4166
_cell_length_b       10.8141
_cell_length_c       17.8373
_cell_angle_alpha    90
_cell_angle_beta     90
_cell_angle_gamma    90

_symmetry_space_group_name_H-M    "P 1"
_symmetry_int_tables_number       1

loop_
  _symmetry_equiv_pos_as_xyz
  'x, y, z'

loop_
  _atom_site_label
  _atom_site_occupancy
  _atom_site_fract_x
  _atom_site_fract_y
  _atom_site_fract_z
  _atom_site_thermal_displace_type
  _atom_site_B_iso_or_equiv
  _atom_site_type_symbol
  Cu1      1.0000 0.16304  0.15758  0.40234  Biso   1.000  Cu
  Cu2      1.0000 0.83696  0.84242  0.90234  Biso   1.000  Cu
  Cu3      1.0000 0.66304  0.84242  0.40234  Biso   1.000  Cu
  Cu4      1.0000 0.33696  0.15758  0.90234  Biso   1.000  Cu
  C1       1.0000 0.09280  0.13300  0.31051  Biso   1.000  C
  C2       1.0000 0.90720  0.86700  0.81051  Biso   1.000  C
  C3       1.0000 0.59280  0.86700  0.31051  Biso   1.000  C
  C4       1.0000 0.40720  0.13300  0.81051  Biso   1.000  C
  N1       1.0000 0.05420  0.09200  0.26050  Biso   1.000  N
  N2       1.0000 0.94580  0.90800  0.76050  Biso   1.000  N
  N3       1.0000 0.55420  0.90800  0.26050  Biso   1.000  N
  N4       1.0000 0.44580  0.09200  0.76050  Biso   1.000  N
  Sn1      1.0000 0.96516  0.03490  0.15756  Biso   1.000  Sn
  Sn2      1.0000 0.03484  0.96510  0.65756  Biso   1.000  Sn
  Sn3      1.0000 0.46516  0.96510  0.15756  Biso   1.000  Sn
  Sn4      1.0000 0.53484  0.03490  0.65756  Biso   1.000  Sn
  C5       1.0000 0.01100  0.19710  0.10300  Biso   1.000  C
  C6       1.0000 0.98900  0.80290  0.60300  Biso   1.000  C
  C7       1.0000 0.51100  0.80290  0.10300  Biso   1.000  C
  C8       1.0000 0.48900  0.19710  0.60300  Biso   1.000  C
  H1       1.0000 0.96850  0.21720  0.06190  Biso   1.000  H
  H2       1.0000 0.03150  0.78280  0.56190  Biso   1.000  H
  H3       1.0000 0.46850  0.78280  0.06190  Biso   1.000  H
  H4       1.0000 0.53150  0.21720  0.56190  Biso   1.000  H
  H5       1.0000 0.07350  0.18370  0.08290  Biso   1.000  H
  H6       1.0000 0.92650  0.81630  0.58290  Biso   1.000  H
  H7       1.0000 0.57350  0.81630  0.08290  Biso   1.000  H
  H8       1.0000 0.42650  0.18370  0.58290  Biso   1.000  H
  H9       1.0000 0.01230  0.26570  0.13890  Biso   1.000  H
  H10      1.0000 0.98770  0.73430  0.63890  Biso   1.000  H
  H11      1.0000 0.51230  0.73430  0.13890  Biso   1.000  H
  H12      1.0000 0.48770  0.26570  0.63890  Biso   1.000  H
  C9       1.0000 0.04470  0.87060  0.14270  Biso   1.000  C
  C10      1.0000 0.95530  0.12940  0.64270  Biso   1.000  C
  C11      1.0000 0.54470  0.12940  0.14270  Biso   1.000  C
  C12      1.0000 0.45530  0.87060  0.64270  Biso   1.000  C
  H13      1.0000 0.08890  0.86230  0.18410  Biso   1.000  H
  H14      1.0000 0.91110  0.13770  0.68410  Biso   1.000  H
  H15      1.0000 0.58890  0.13770  0.18410  Biso   1.000  H
  H16      1.0000 0.41110  0.86230  0.68410  Biso   1.000  H
  H17      1.0000 0.07860  0.87520  0.09520  Biso   1.000  H
  H18      1.0000 0.92140  0.12480  0.59520  Biso   1.000  H
  H19      1.0000 0.57860  0.12480  0.09520  Biso   1.000  H
  H20      1.0000 0.42140  0.87520  0.59520  Biso   1.000  H
  H21      1.0000 0.00320  0.79890  0.14200  Biso   1.000  H
  H22      1.0000 0.99680  0.20110  0.64200  Biso   1.000  H
  H23      1.0000 0.50320  0.20110  0.14200  Biso   1.000  H
  H24      1.0000 0.49680  0.79890  0.64200  Biso   1.000  H
  C13      1.0000 0.84180  0.03890  0.22110  Biso   1.000  C
  C14      1.0000 0.15820  0.96110  0.72110  Biso   1.000  C
  C15      1.0000 0.34180  0.96110  0.22110  Biso   1.000  C
  C16      1.0000 0.65820  0.03890  0.72110  Biso   1.000  C
  H25      1.0000 0.84580  0.10470  0.25870  Biso   1.000  H
  H26      1.0000 0.15420  0.89530  0.75870  Biso   1.000  H
  H27      1.0000 0.34580  0.89530  0.25870  Biso   1.000  H
  H28      1.0000 0.65420  0.10470  0.75870  Biso   1.000  H
  H29      1.0000 0.83340  0.95910  0.24630  Biso   1.000  H
  H30      1.0000 0.16660  0.04090  0.74630  Biso   1.000  H
  H31      1.0000 0.33340  0.04090  0.24630  Biso   1.000  H
  H32      1.0000 0.66660  0.95910  0.74630  Biso   1.000  H
  H33      1.0000 0.78900  0.05460  0.18790  Biso   1.000  H
  H34      1.0000 0.21100  0.94540  0.68790  Biso   1.000  H
  H35      1.0000 0.28900  0.94540  0.18790  Biso   1.000  H
  H36      1.0000 0.71100  0.05460  0.68790  Biso   1.000  H
  C17      1.0000 0.13750  0.07150  0.49409  Biso   1.000  C
  C18      1.0000 0.86250  0.92850  0.99409  Biso   1.000  C
  C19      1.0000 0.63750  0.92850  0.49409  Biso   1.000  C
  C20      1.0000 0.36250  0.07150  0.99409  Biso   1.000  C
  N5       1.0000 0.11680  0.02160  0.54837  Biso   1.000  N
  N6       1.0000 0.88320  0.97840  0.04837  Biso   1.000  N
  N7       1.0000 0.61680  0.97840  0.54837  Biso   1.000  N
  N8       1.0000 0.38320  0.02160  0.04837  Biso   1.000  N
  Cu5      1.0000 0.07459  0.35075  0.34783  Biso   1.000  Cu
  Cu6      1.0000 0.92541  0.64925  0.84783  Biso   1.000  Cu
  Cu7      1.0000 0.57459  0.64925  0.34783  Biso   1.000  Cu
  Cu8      1.0000 0.42541  0.35075  0.84783  Biso   1.000  Cu
  C21      1.0000 0.09850  0.43230  0.25396  Biso   1.000  C
  C22      1.0000 0.90150  0.56770  0.75396  Biso   1.000  C
  C23      1.0000 0.59850  0.56770  0.25396  Biso   1.000  C
  C24      1.0000 0.40150  0.43230  0.75396  Biso   1.000  C
  N9       1.0000 0.12200  0.47210  0.19691  Biso   1.000  N
  N10      1.0000 0.87800  0.52790  0.69691  Biso   1.000  N
  N11      1.0000 0.62200  0.52790  0.19691  Biso   1.000  N
  N12      1.0000 0.37800  0.47210  0.69691  Biso   1.000  N
  Sn5      1.0000 0.28287  0.45023  0.58998  Biso   1.000  Sn
  Sn6      1.0000 0.71713  0.54977  0.08998  Biso   1.000  Sn
  Sn7      1.0000 0.78287  0.54977  0.58998  Biso   1.000  Sn
  Sn8      1.0000 0.21713  0.45023  0.08998  Biso   1.000  Sn
  C25      1.0000 0.23370  0.28180  0.63720  Biso   1.000  C
  C26      1.0000 0.76630  0.71820  0.13720  Biso   1.000  C
  C27      1.0000 0.73370  0.71820  0.63720  Biso   1.000  C
  C28      1.0000 0.26630  0.28180  0.13720  Biso   1.000  C
  H37      1.0000 0.16830  0.29110  0.65110  Biso   1.000  H
  H38      1.0000 0.83170  0.70890  0.15110  Biso   1.000  H
  H39      1.0000 0.66830  0.70890  0.65110  Biso   1.000  H
  H40      1.0000 0.33170  0.29110  0.15110  Biso   1.000  H
  H41      1.0000 0.23990  0.21520  0.60030  Biso   1.000  H
  H42      1.0000 0.76010  0.78480  0.10030  Biso   1.000  H
  H43      1.0000 0.73990  0.78480  0.60030  Biso   1.000  H
  H44      1.0000 0.26010  0.21520  0.10030  Biso   1.000  H
  H45      1.0000 0.27030  0.26160  0.68180  Biso   1.000  H
  H46      1.0000 0.72970  0.73840  0.18180  Biso   1.000  H
  H47      1.0000 0.77030  0.73840  0.68180  Biso   1.000  H
  H48      1.0000 0.22970  0.26160  0.18180  Biso   1.000  H
  C29      1.0000 0.39740  0.45820  0.51590  Biso   1.000  C
  C30      1.0000 0.60260  0.54180  0.01590  Biso   1.000  C
  C31      1.0000 0.89740  0.54180  0.51590  Biso   1.000  C
  C32      1.0000 0.10260  0.45820  0.01590  Biso   1.000  C
  H49      1.0000 0.45300  0.48330  0.54370  Biso   1.000  H
  H50      1.0000 0.54700  0.51670  0.04370  Biso   1.000  H
  H51      1.0000 0.95300  0.51670  0.54370  Biso   1.000  H
  H52      1.0000 0.04700  0.48330  0.04370  Biso   1.000  H
  H53      1.0000 0.40760  0.37650  0.49360  Biso   1.000  H
  H54      1.0000 0.59240  0.62350  0.99360  Biso   1.000  H
  H55      1.0000 0.90760  0.62350  0.49360  Biso   1.000  H
  H56      1.0000 0.09240  0.37650  0.99360  Biso   1.000  H
  H57      1.0000 0.38480  0.51850  0.47620  Biso   1.000  H
  H58      1.0000 0.61520  0.48150  0.97620  Biso   1.000  H
  H59      1.0000 0.88480  0.48150  0.47620  Biso   1.000  H
  H60      1.0000 0.11520  0.51850  0.97620  Biso   1.000  H
  C33      1.0000 0.21320  0.61730  0.61660  Biso   1.000  C
  C34      1.0000 0.78680  0.38270  0.11660  Biso   1.000  C
  C35      1.0000 0.71320  0.38270  0.61660  Biso   1.000  C
  C36      1.0000 0.28680  0.61730  0.11660  Biso   1.000  C
  H61      1.0000 0.15670  0.59860  0.64490  Biso   1.000  H
  H62      1.0000 0.84330  0.40140  0.14490  Biso   1.000  H
  H63      1.0000 0.65670  0.40140  0.64490  Biso   1.000  H
  H64      1.0000 0.34330  0.59860  0.14490  Biso   1.000  H
  H65      1.0000 0.25400  0.66980  0.64690  Biso   1.000  H
  H66      1.0000 0.74600  0.33020  0.14690  Biso   1.000  H
  H67      1.0000 0.75400  0.33020  0.64690  Biso   1.000  H
  H68      1.0000 0.24600  0.66980  0.14690  Biso   1.000  H
  H69      1.0000 0.19690  0.66070  0.57020  Biso   1.000  H
  H70      1.0000 0.80310  0.33930  0.07020  Biso   1.000  H
  H71      1.0000 0.69690  0.33930  0.57020  Biso   1.000  H
  H72      1.0000 0.30310  0.66070  0.07020  Biso   1.000  H
  C37      1.0000 0.14510  0.37610  0.43840  Biso   1.000  C
  C38      1.0000 0.85490  0.62390  0.93840  Biso   1.000  C
  C39      1.0000 0.64510  0.62390  0.43840  Biso   1.000  C
  C40      1.0000 0.35490  0.37610  0.93840  Biso   1.000  C
  N13      1.0000 0.18430  0.41400  0.48959  Biso   1.000  N
  N14      1.0000 0.81570  0.58600  0.98959  Biso   1.000  N
  N15      1.0000 0.68430  0.58600  0.48959  Biso   1.000  N
  N16      1.0000 0.31570  0.41400  0.98959  Biso   1.000  N
  C41      1.0000 0.36380  0.10860  0.41570  Biso   1.000  C
  C42      1.0000 0.63620  0.89140  0.91570  Biso   1.000  C
  C43      1.0000 0.86380  0.89140  0.41570  Biso   1.000  C
  C44      1.0000 0.13620  0.10860  0.91570  Biso   1.000  C
  H73      1.0000 0.34180  0.04700  0.44920  Biso   1.000  H
  H74      1.0000 0.65820  0.95300  0.94920  Biso   1.000  H
  H75      1.0000 0.84180  0.95300  0.44920  Biso   1.000  H
  H76      1.0000 0.15820  0.04700  0.94920  Biso   1.000  H
  C45      1.0000 0.45770  0.11480  0.40180  Biso   1.000  C
  C46      1.0000 0.54230  0.88520  0.90180  Biso   1.000  C
  C47      1.0000 0.95770  0.88520  0.40180  Biso   1.000  C
  C48      1.0000 0.04230  0.11480  0.90180  Biso   1.000  C
  H77      1.0000 0.49850  0.05730  0.42500  Biso   1.000  H
  H78      1.0000 0.50150  0.94270  0.92500  Biso   1.000  H
  H79      1.0000 0.99850  0.94270  0.42500  Biso   1.000  H
  H80      1.0000 0.00150  0.05730  0.92500  Biso   1.000  H
  C49      1.0000 0.49265  0.20440  0.35434  Biso   1.000  C
  C50      1.0000 0.50735  0.79560  0.85434  Biso   1.000  C
  C51      1.0000 0.99265  0.79560  0.35434  Biso   1.000  C
  C52      1.0000 0.00735  0.20440  0.85434  Biso   1.000  C
  C53      1.0000 0.42910  0.28500  0.32197  Biso   1.000  C
  C54      1.0000 0.57090  0.71500  0.82197  Biso   1.000  C
  C55      1.0000 0.92910  0.71500  0.32197  Biso   1.000  C
  C56      1.0000 0.07090  0.28500  0.82197  Biso   1.000  C
  H81      1.0000 0.44970  0.34880  0.28930  Biso   1.000  H
  H82      1.0000 0.55030  0.65120  0.78930  Biso   1.000  H
  H83      1.0000 0.94970  0.65120  0.28930  Biso   1.000  H
  H84      1.0000 0.05030  0.34880  0.78930  Biso   1.000  H
  C57      1.0000 0.33510  0.27140  0.33776  Biso   1.000  C
  C58      1.0000 0.66490  0.72860  0.83776  Biso   1.000  C
  C59      1.0000 0.83510  0.72860  0.33776  Biso   1.000  C
  C60      1.0000 0.16490  0.27140  0.83776  Biso   1.000  C
  H85      1.0000 0.29250  0.32620  0.31430  Biso   1.000  H
  H86      1.0000 0.70750  0.67380  0.81430  Biso   1.000  H
  H87      1.0000 0.79250  0.67380  0.31430  Biso   1.000  H
  H88      1.0000 0.20750  0.32620  0.81430  Biso   1.000  H
  C61      1.0000 0.59510  0.21690  0.34107  Biso   1.000  C
  C62      1.0000 0.40490  0.78310  0.84107  Biso   1.000  C
  C63      1.0000 0.09510  0.78310  0.34107  Biso   1.000  C
  C64      1.0000 0.90490  0.21690  0.84107  Biso   1.000  C
  H89      1.0000 0.60570  0.26870  0.29610  Biso   1.000  H
  H90      1.0000 0.39430  0.73130  0.79610  Biso   1.000  H
  H91      1.0000 0.10570  0.73130  0.29610  Biso   1.000  H
  H92      1.0000 0.89430  0.26870  0.79610  Biso   1.000  H
  H93      1.0000 0.62190  0.13410  0.33130  Biso   1.000  H
  H94      1.0000 0.37810  0.86590  0.83130  Biso   1.000  H
  H95      1.0000 0.12190  0.86590  0.33130  Biso   1.000  H
  H96      1.0000 0.87810  0.13410  0.83130  Biso   1.000  H
  C65      1.0000 0.64381  0.27490  0.40789  Biso   1.000  C
  C66      1.0000 0.35619  0.72510  0.90789  Biso   1.000  C
  C67      1.0000 0.14381  0.72510  0.40789  Biso   1.000  C
  C68      1.0000 0.85619  0.27490  0.90789  Biso   1.000  C
  H97      1.0000 0.61580  0.35660  0.41840  Biso   1.000  H
  H98      1.0000 0.38420  0.64340  0.91840  Biso   1.000  H
  H99      1.0000 0.11580  0.64340  0.41840  Biso   1.000  H
  H100     1.0000 0.88420  0.35660  0.91840  Biso   1.000  H
  H101     1.0000 0.63440  0.22200  0.45250  Biso   1.000  H
  H102     1.0000 0.36560  0.77800  0.95250  Biso   1.000  H
  H103     1.0000 0.13440  0.77800  0.45250  Biso   1.000  H
  H104     1.0000 0.86560  0.22200  0.95250  Biso   1.000  H
  C69      1.0000 0.74650  0.29060  0.39426  Biso   1.000  C
  C70      1.0000 0.25350  0.70940  0.89426  Biso   1.000  C
  C71      1.0000 0.24650  0.70940  0.39426  Biso   1.000  C
  C72      1.0000 0.75350  0.29060  0.89426  Biso   1.000  C
  C73      1.0000 0.81210  0.22880  0.43682  Biso   1.000  C
  C74      1.0000 0.18790  0.77120  0.93682  Biso   1.000  C
  C75      1.0000 0.31210  0.77120  0.43682  Biso   1.000  C
  C76      1.0000 0.68790  0.22880  0.93682  Biso   1.000  C
  H105     1.0000 0.79310  0.17580  0.47640  Biso   1.000  H
  H106     1.0000 0.20690  0.82420  0.97640  Biso   1.000  H
  H107     1.0000 0.29310  0.82420  0.47640  Biso   1.000  H
  H108     1.0000 0.70690  0.17580  0.97640  Biso   1.000  H
  C77      1.0000 0.90590  0.24460  0.42135  Biso   1.000  C
  C78      1.0000 0.09410  0.75540  0.92135  Biso   1.000  C
  C79      1.0000 0.40590  0.75540  0.42135  Biso   1.000  C
  C80      1.0000 0.59410  0.24460  0.92135  Biso   1.000  C
  H109     1.0000 0.95010  0.20180  0.45110  Biso   1.000  H
  H110     1.0000 0.04990  0.79820  0.95110  Biso   1.000  H
  H111     1.0000 0.45010  0.79820  0.45110  Biso   1.000  H
  H112     1.0000 0.54990  0.20180  0.95110  Biso   1.000  H
  C81      1.0000 0.87290  0.37610  0.32421  Biso   1.000  C
  C82      1.0000 0.12710  0.62390  0.82421  Biso   1.000  C
  C83      1.0000 0.37290  0.62390  0.32421  Biso   1.000  C
  C84      1.0000 0.62710  0.37610  0.82421  Biso   1.000  C
  H113     1.0000 0.89360  0.42630  0.28380  Biso   1.000  H
  H114     1.0000 0.10640  0.57370  0.78380  Biso   1.000  H
  H115     1.0000 0.39360  0.57370  0.28380  Biso   1.000  H
  H116     1.0000 0.60640  0.42630  0.78380  Biso   1.000  H
  C85      1.0000 0.77860  0.36630  0.33721  Biso   1.000  C
  C86      1.0000 0.22140  0.63370  0.83721  Biso   1.000  C
  C87      1.0000 0.27860  0.63370  0.33721  Biso   1.000  C
  C88      1.0000 0.72140  0.36630  0.83721  Biso   1.000  C
  H117     1.0000 0.73600  0.41130  0.30710  Biso   1.000  H
  H118     1.0000 0.26400  0.58870  0.80710  Biso   1.000  H
  H119     1.0000 0.23600  0.58870  0.30710  Biso   1.000  H
  H120     1.0000 0.76400  0.41130  0.80710  Biso   1.000  H
  N17      1.0000 0.93630  0.31800  0.36612  Biso   1.000  N
  N18      1.0000 0.06370  0.68200  0.86612  Biso   1.000  N
  N19      1.0000 0.43630  0.68200  0.36612  Biso   1.000  N
  N20      1.0000 0.56370  0.31800  0.86612  Biso   1.000  N
  N21      1.0000 0.30197  0.18540  0.38413  Biso   1.000  N
  N22      1.0000 0.69803  0.81460  0.88413  Biso   1.000  N
  N23      1.0000 0.80197  0.81460  0.38413  Biso   1.000  N
  N24      1.0000 0.19803  0.18540  0.88413  Biso   1.000  N
