data_image0
_cell_length_a       14.4868
_cell_length_b       10.5419
_cell_length_c       18.0394
_cell_angle_alpha    90
_cell_angle_beta     90
_cell_angle_gamma    90

_symmetry_space_group_name_H-M    "P 1"
_symmetry_int_tables_number       1

loop_
  _symmetry_equiv_pos_as_xyz
  'x, y, z'

loop_
  _atom_site_label
  _atom_site_occupancy
  _atom_site_fract_x
  _atom_site_fract_y
  _atom_site_fract_z
  _atom_site_thermal_displace_type
  _atom_site_B_iso_or_equiv
  _atom_site_type_symbol
  Sn1      1.0000 0.27746  0.03369  0.69890  Biso   1.000  Sn
  Sn2      1.0000 0.72254  0.96631  0.19890  Biso   1.000  Sn
  Sn3      1.0000 0.77746  0.96631  0.69890  Biso   1.000  Sn
  Sn4      1.0000 0.22254  0.03369  0.19890  Biso   1.000  Sn
  Sn5      1.0000 0.02610  0.51992  0.62138  Biso   1.000  Sn
  Sn6      1.0000 0.97390  0.48008  0.12138  Biso   1.000  Sn
  Sn7      1.0000 0.52610  0.48008  0.62138  Biso   1.000  Sn
  Sn8      1.0000 0.47390  0.51992  0.12138  Biso   1.000  Sn
  Cu1      1.0000 0.16284  0.34404  0.87880  Biso   1.000  Cu
  Cu2      1.0000 0.83716  0.65596  0.37880  Biso   1.000  Cu
  Cu3      1.0000 0.66284  0.65596  0.87880  Biso   1.000  Cu
  Cu4      1.0000 0.33716  0.34404  0.37880  Biso   1.000  Cu
  Cu5      1.0000 0.42440  0.13656  0.44015  Biso   1.000  Cu
  Cu6      1.0000 0.57560  0.86344  0.94015  Biso   1.000  Cu
  Cu7      1.0000 0.92440  0.86344  0.44015  Biso   1.000  Cu
  Cu8      1.0000 0.07560  0.13656  0.94015  Biso   1.000  Cu
  N1       1.0000 0.37030  0.02030  0.58970  Biso   1.000  N
  N2       1.0000 0.62970  0.97970  0.08970  Biso   1.000  N
  N3       1.0000 0.87030  0.97970  0.58970  Biso   1.000  N
  N4       1.0000 0.12970  0.02030  0.08970  Biso   1.000  N
  N5       1.0000 0.94010  0.18310  0.92500  Biso   1.000  N
  N6       1.0000 0.05990  0.81690  0.42500  Biso   1.000  N
  N7       1.0000 0.44010  0.81690  0.92500  Biso   1.000  N
  N8       1.0000 0.55990  0.18310  0.42500  Biso   1.000  N
  N9       1.0000 0.29979  0.30880  0.89514  Biso   1.000  N
  N10      1.0000 0.70021  0.69120  0.39514  Biso   1.000  N
  N11      1.0000 0.79979  0.69120  0.89514  Biso   1.000  N
  N12      1.0000 0.20021  0.30880  0.39514  Biso   1.000  N
  C1       1.0000 0.65660  0.27780  0.89240  Biso   1.000  C
  C2       1.0000 0.34340  0.72220  0.39240  Biso   1.000  C
  C3       1.0000 0.15660  0.72220  0.89240  Biso   1.000  C
  C4       1.0000 0.84340  0.27780  0.39240  Biso   1.000  C
  H1       1.0000 0.64350  0.33560  0.85340  Biso   1.000  H
  H2       1.0000 0.35650  0.66440  0.35340  Biso   1.000  H
  H3       1.0000 0.14350  0.66440  0.85340  Biso   1.000  H
  H4       1.0000 0.85650  0.33560  0.35340  Biso   1.000  H
  C5       1.0000 0.42120  0.19770  0.95740  Biso   1.000  C
  C6       1.0000 0.57880  0.80230  0.45740  Biso   1.000  C
  C7       1.0000 0.92120  0.80230  0.95740  Biso   1.000  C
  C8       1.0000 0.07880  0.19770  0.45740  Biso   1.000  C
  H5       1.0000 0.43860  0.13460  0.99230  Biso   1.000  H
  H6       1.0000 0.56140  0.86540  0.49230  Biso   1.000  H
  H7       1.0000 0.93860  0.86540  0.99230  Biso   1.000  H
  H8       1.0000 0.06140  0.13460  0.49230  Biso   1.000  H
  N13      1.0000 0.10500  0.46250  0.73063  Biso   1.000  N
  N14      1.0000 0.89500  0.53750  0.23063  Biso   1.000  N
  N15      1.0000 0.60500  0.53750  0.73063  Biso   1.000  N
  N16      1.0000 0.39500  0.46250  0.23063  Biso   1.000  N
  N17      1.0000 0.05820  0.41880  0.01883  Biso   1.000  N
  N18      1.0000 0.94180  0.58120  0.51883  Biso   1.000  N
  N19      1.0000 0.55820  0.58120  0.01883  Biso   1.000  N
  N20      1.0000 0.44180  0.41880  0.51883  Biso   1.000  N
  C9       1.0000 0.75280  0.24270  0.90431  Biso   1.000  C
  C10      1.0000 0.24720  0.75730  0.40431  Biso   1.000  C
  C11      1.0000 0.25280  0.75730  0.90431  Biso   1.000  C
  C12      1.0000 0.74720  0.24270  0.40431  Biso   1.000  C
  C13      1.0000 0.48850  0.26630  0.92040  Biso   1.000  C
  C14      1.0000 0.51150  0.73370  0.42040  Biso   1.000  C
  C15      1.0000 0.98850  0.73370  0.92040  Biso   1.000  C
  C16      1.0000 0.01150  0.26630  0.42040  Biso   1.000  C
  C17      1.0000 0.09700  0.37790  0.96950  Biso   1.000  C
  C18      1.0000 0.90300  0.62210  0.46950  Biso   1.000  C
  C19      1.0000 0.59700  0.62210  0.96950  Biso   1.000  C
  C20      1.0000 0.40300  0.37790  0.46950  Biso   1.000  C
  N21      1.0000 0.18260  0.06720  0.80021  Biso   1.000  N
  N22      1.0000 0.81740  0.93280  0.30021  Biso   1.000  N
  N23      1.0000 0.68260  0.93280  0.80021  Biso   1.000  N
  N24      1.0000 0.31740  0.06720  0.30021  Biso   1.000  N
  C21      1.0000 0.82050  0.28510  0.85580  Biso   1.000  C
  C22      1.0000 0.17950  0.71490  0.35580  Biso   1.000  C
  C23      1.0000 0.32050  0.71490  0.85580  Biso   1.000  C
  C24      1.0000 0.67950  0.28510  0.35580  Biso   1.000  C
  H9       1.0000 0.80380  0.33660  0.81470  Biso   1.000  H
  H10      1.0000 0.19620  0.66340  0.31470  Biso   1.000  H
  H11      1.0000 0.30380  0.66340  0.81470  Biso   1.000  H
  H12      1.0000 0.69620  0.33660  0.31470  Biso   1.000  H
  C25      1.0000 0.13030  0.41720  0.78510  Biso   1.000  C
  C26      1.0000 0.86970  0.58280  0.28510  Biso   1.000  C
  C27      1.0000 0.63030  0.58280  0.78510  Biso   1.000  C
  C28      1.0000 0.36970  0.41720  0.28510  Biso   1.000  C
  C29      1.0000 0.91130  0.25330  0.86670  Biso   1.000  C
  C30      1.0000 0.08870  0.74670  0.36670  Biso   1.000  C
  C31      1.0000 0.41130  0.74670  0.86670  Biso   1.000  C
  C32      1.0000 0.58870  0.25330  0.36670  Biso   1.000  C
  H13      1.0000 0.95580  0.28180  0.83180  Biso   1.000  H
  H14      1.0000 0.04420  0.71820  0.33180  Biso   1.000  H
  H15      1.0000 0.45580  0.71820  0.83180  Biso   1.000  H
  H16      1.0000 0.54420  0.28180  0.33180  Biso   1.000  H
  C33      1.0000 0.78260  0.16940  0.96410  Biso   1.000  C
  C34      1.0000 0.21740  0.83060  0.46410  Biso   1.000  C
  C35      1.0000 0.28260  0.83060  0.96410  Biso   1.000  C
  C36      1.0000 0.71740  0.16940  0.46410  Biso   1.000  C
  H17      1.0000 0.73940  0.13770  0.99910  Biso   1.000  H
  H18      1.0000 0.26060  0.86230  0.49910  Biso   1.000  H
  H19      1.0000 0.23940  0.86230  0.99910  Biso   1.000  H
  H20      1.0000 0.76060  0.13770  0.49910  Biso   1.000  H
  C37      1.0000 0.39620  0.06220  0.53510  Biso   1.000  C
  C38      1.0000 0.60380  0.93780  0.03510  Biso   1.000  C
  C39      1.0000 0.89620  0.93780  0.53510  Biso   1.000  C
  C40      1.0000 0.10380  0.06220  0.03510  Biso   1.000  C
  C41      1.0000 0.87490  0.14380  0.97150  Biso   1.000  C
  C42      1.0000 0.12510  0.85620  0.47150  Biso   1.000  C
  C43      1.0000 0.37490  0.85620  0.97150  Biso   1.000  C
  C44      1.0000 0.62510  0.14380  0.47150  Biso   1.000  C
  H21      1.0000 0.89360  0.09440  0.01290  Biso   1.000  H
  H22      1.0000 0.10640  0.90560  0.51290  Biso   1.000  H
  H23      1.0000 0.39360  0.90560  0.01290  Biso   1.000  H
  H24      1.0000 0.60640  0.09440  0.51290  Biso   1.000  H
  C45      1.0000 0.15100  0.51920  0.56160  Biso   1.000  C
  C46      1.0000 0.84900  0.48080  0.06160  Biso   1.000  C
  C47      1.0000 0.65100  0.48080  0.56160  Biso   1.000  C
  C48      1.0000 0.34900  0.51920  0.06160  Biso   1.000  C
  H25      1.0000 0.13810  0.53190  0.50880  Biso   1.000  H
  H26      1.0000 0.86190  0.46810  0.00880  Biso   1.000  H
  H27      1.0000 0.63810  0.46810  0.50880  Biso   1.000  H
  H28      1.0000 0.36190  0.53190  0.00880  Biso   1.000  H
  H29      1.0000 0.18220  0.43750  0.56860  Biso   1.000  H
  H30      1.0000 0.81780  0.56250  0.06860  Biso   1.000  H
  H31      1.0000 0.68220  0.56250  0.56860  Biso   1.000  H
  H32      1.0000 0.31780  0.43750  0.06860  Biso   1.000  H
  H33      1.0000 0.19080  0.58770  0.57960  Biso   1.000  H
  H34      1.0000 0.80920  0.41230  0.07960  Biso   1.000  H
  H35      1.0000 0.69080  0.41230  0.57960  Biso   1.000  H
  H36      1.0000 0.30920  0.58770  0.07960  Biso   1.000  H
  C49      1.0000 0.45750  0.35940  0.87160  Biso   1.000  C
  C50      1.0000 0.54250  0.64060  0.37160  Biso   1.000  C
  C51      1.0000 0.95750  0.64060  0.87160  Biso   1.000  C
  C52      1.0000 0.04250  0.35940  0.37160  Biso   1.000  C
  H37      1.0000 0.50070  0.41120  0.84600  Biso   1.000  H
  H38      1.0000 0.49930  0.58880  0.34600  Biso   1.000  H
  H39      1.0000 0.00070  0.58880  0.84600  Biso   1.000  H
  H40      1.0000 0.99930  0.41120  0.34600  Biso   1.000  H
  C53      1.0000 0.32950  0.22090  0.94380  Biso   1.000  C
  C54      1.0000 0.67050  0.77910  0.44380  Biso   1.000  C
  C55      1.0000 0.82950  0.77910  0.94380  Biso   1.000  C
  C56      1.0000 0.17050  0.22090  0.44380  Biso   1.000  C
  H41      1.0000 0.28470  0.17260  0.97000  Biso   1.000  H
  H42      1.0000 0.71530  0.82740  0.47000  Biso   1.000  H
  H43      1.0000 0.78470  0.82740  0.97000  Biso   1.000  H
  H44      1.0000 0.21530  0.17260  0.47000  Biso   1.000  H
  C57      1.0000 0.39570  0.03620  0.76720  Biso   1.000  C
  C58      1.0000 0.60430  0.96380  0.26720  Biso   1.000  C
  C59      1.0000 0.89570  0.96380  0.76720  Biso   1.000  C
  C60      1.0000 0.10430  0.03620  0.26720  Biso   1.000  C
  H45      1.0000 0.38600  0.97970  0.80960  Biso   1.000  H
  H46      1.0000 0.61400  0.02030  0.30960  Biso   1.000  H
  H47      1.0000 0.88600  0.02030  0.80960  Biso   1.000  H
  H48      1.0000 0.11400  0.97970  0.30960  Biso   1.000  H
  H49      1.0000 0.40650  0.12280  0.78500  Biso   1.000  H
  H50      1.0000 0.59350  0.87720  0.28500  Biso   1.000  H
  H51      1.0000 0.90650  0.87720  0.78500  Biso   1.000  H
  H52      1.0000 0.09350  0.12280  0.28500  Biso   1.000  H
  H53      1.0000 0.44930  0.00730  0.73870  Biso   1.000  H
  H54      1.0000 0.55070  0.99270  0.23870  Biso   1.000  H
  H55      1.0000 0.94930  0.99270  0.73870  Biso   1.000  H
  H56      1.0000 0.05070  0.00730  0.23870  Biso   1.000  H
  C61      1.0000 0.14290  0.10390  0.85030  Biso   1.000  C
  C62      1.0000 0.85710  0.89610  0.35030  Biso   1.000  C
  C63      1.0000 0.64290  0.89610  0.85030  Biso   1.000  C
  C64      1.0000 0.35710  0.10390  0.35030  Biso   1.000  C
  C65      1.0000 0.58570  0.23490  0.93210  Biso   1.000  C
  C66      1.0000 0.41430  0.76510  0.43210  Biso   1.000  C
  C67      1.0000 0.08570  0.76510  0.93210  Biso   1.000  C
  C68      1.0000 0.91430  0.23490  0.43210  Biso   1.000  C
  H57      1.0000 0.59960  0.17870  0.97170  Biso   1.000  H
  H58      1.0000 0.40040  0.82130  0.47170  Biso   1.000  H
  H59      1.0000 0.09960  0.82130  0.97170  Biso   1.000  H
  H60      1.0000 0.90040  0.17870  0.47170  Biso   1.000  H
  C69      1.0000 0.94520  0.35450  0.63320  Biso   1.000  C
  C70      1.0000 0.05480  0.64550  0.13320  Biso   1.000  C
  C71      1.0000 0.44520  0.64550  0.63320  Biso   1.000  C
  C72      1.0000 0.55480  0.35450  0.13320  Biso   1.000  C
  H61      1.0000 0.91640  0.35370  0.68240  Biso   1.000  H
  H62      1.0000 0.08360  0.64630  0.18240  Biso   1.000  H
  H63      1.0000 0.41640  0.64630  0.68240  Biso   1.000  H
  H64      1.0000 0.58360  0.35370  0.18240  Biso   1.000  H
  H65      1.0000 0.98450  0.27940  0.62770  Biso   1.000  H
  H66      1.0000 0.01550  0.72060  0.12770  Biso   1.000  H
  H67      1.0000 0.48450  0.72060  0.62770  Biso   1.000  H
  H68      1.0000 0.51550  0.27940  0.12770  Biso   1.000  H
  H69      1.0000 0.89700  0.35340  0.59510  Biso   1.000  H
  H70      1.0000 0.10300  0.64660  0.09510  Biso   1.000  H
  H71      1.0000 0.39700  0.64660  0.59510  Biso   1.000  H
  H72      1.0000 0.60300  0.35340  0.09510  Biso   1.000  H
  C73      1.0000 0.36540  0.37630  0.86070  Biso   1.000  C
  C74      1.0000 0.63460  0.62370  0.36070  Biso   1.000  C
  C75      1.0000 0.86540  0.62370  0.86070  Biso   1.000  C
  C76      1.0000 0.13460  0.37630  0.36070  Biso   1.000  C
  H73      1.0000 0.34650  0.43980  0.82660  Biso   1.000  H
  H74      1.0000 0.65350  0.56020  0.32660  Biso   1.000  H
  H75      1.0000 0.84650  0.56020  0.82660  Biso   1.000  H
  H76      1.0000 0.15350  0.43980  0.32660  Biso   1.000  H
  C77      1.0000 0.98200  0.68780  0.67380  Biso   1.000  C
  C78      1.0000 0.01800  0.31220  0.17380  Biso   1.000  C
  C79      1.0000 0.48200  0.31220  0.67380  Biso   1.000  C
  C80      1.0000 0.51800  0.68780  0.17380  Biso   1.000  C
  H77      1.0000 0.02220  0.70590  0.71620  Biso   1.000  H
  H78      1.0000 0.97780  0.29410  0.21620  Biso   1.000  H
  H79      1.0000 0.52220  0.29410  0.71620  Biso   1.000  H
  H80      1.0000 0.47780  0.70590  0.21620  Biso   1.000  H
  H81      1.0000 0.91830  0.67730  0.69110  Biso   1.000  H
  H82      1.0000 0.08170  0.32270  0.19110  Biso   1.000  H
  H83      1.0000 0.41830  0.32270  0.69110  Biso   1.000  H
  H84      1.0000 0.58170  0.67730  0.19110  Biso   1.000  H
  H85      1.0000 0.98490  0.75840  0.63860  Biso   1.000  H
  H86      1.0000 0.01510  0.24160  0.13860  Biso   1.000  H
  H87      1.0000 0.48490  0.24160  0.63860  Biso   1.000  H
  H88      1.0000 0.51510  0.75840  0.13860  Biso   1.000  H
  C81      1.0000 0.21950  0.19680  0.64940  Biso   1.000  C
  C82      1.0000 0.78050  0.80320  0.14940  Biso   1.000  C
  C83      1.0000 0.71950  0.80320  0.64940  Biso   1.000  C
  C84      1.0000 0.28050  0.19680  0.14940  Biso   1.000  C
  H89      1.0000 0.26290  0.23170  0.61310  Biso   1.000  H
  H90      1.0000 0.73710  0.76830  0.11310  Biso   1.000  H
  H91      1.0000 0.76290  0.76830  0.61310  Biso   1.000  H
  H92      1.0000 0.23710  0.23170  0.11310  Biso   1.000  H
  H93      1.0000 0.20690  0.26040  0.68780  Biso   1.000  H
  H94      1.0000 0.79310  0.73960  0.18780  Biso   1.000  H
  H95      1.0000 0.70690  0.73960  0.68780  Biso   1.000  H
  H96      1.0000 0.29310  0.26040  0.18780  Biso   1.000  H
  H97      1.0000 0.16180  0.17390  0.62450  Biso   1.000  H
  H98      1.0000 0.83820  0.82610  0.12450  Biso   1.000  H
  H99      1.0000 0.66180  0.82610  0.62450  Biso   1.000  H
  H100     1.0000 0.33820  0.17390  0.12450  Biso   1.000  H
  C85      1.0000 0.21550  0.85650  0.67770  Biso   1.000  C
  C86      1.0000 0.78450  0.14350  0.17770  Biso   1.000  C
  C87      1.0000 0.71550  0.14350  0.67770  Biso   1.000  C
  C88      1.0000 0.28450  0.85650  0.17770  Biso   1.000  C
  H101     1.0000 0.25910  0.80200  0.65110  Biso   1.000  H
  H102     1.0000 0.74090  0.19800  0.15110  Biso   1.000  H
  H103     1.0000 0.75910  0.19800  0.65110  Biso   1.000  H
  H104     1.0000 0.24090  0.80200  0.15110  Biso   1.000  H
  H105     1.0000 0.16000  0.86870  0.64740  Biso   1.000  H
  H106     1.0000 0.84000  0.13130  0.14740  Biso   1.000  H
  H107     1.0000 0.66000  0.13130  0.64740  Biso   1.000  H
  H108     1.0000 0.34000  0.86870  0.14740  Biso   1.000  H
  H109     1.0000 0.19840  0.81630  0.72480  Biso   1.000  H
  H110     1.0000 0.80160  0.18370  0.22480  Biso   1.000  H
  H111     1.0000 0.69840  0.18370  0.72480  Biso   1.000  H
  H112     1.0000 0.30160  0.81630  0.22480  Biso   1.000  H
