data_image0
_cell_length_a       13.2501
_cell_length_b       11.2014
_cell_length_c       19.5229
_cell_angle_alpha    90
_cell_angle_beta     90
_cell_angle_gamma    90

_symmetry_space_group_name_H-M    "P 1"
_symmetry_int_tables_number       1

loop_
  _symmetry_equiv_pos_as_xyz
  'x, y, z'

loop_
  _atom_site_label
  _atom_site_occupancy
  _atom_site_fract_x
  _atom_site_fract_y
  _atom_site_fract_z
  _atom_site_thermal_displace_type
  _atom_site_B_iso_or_equiv
  _atom_site_type_symbol
  C1       1.0000 0.92290  0.63380  0.01128  Biso   1.000  C
  C2       1.0000 0.42290  0.63380  0.48872  Biso   1.000  C
  C3       1.0000 0.92290  0.86620  0.51128  Biso   1.000  C
  C4       1.0000 0.57710  0.13380  0.01128  Biso   1.000  C
  C5       1.0000 0.07710  0.36620  0.98872  Biso   1.000  C
  C6       1.0000 0.57710  0.36620  0.51128  Biso   1.000  C
  C7       1.0000 0.07710  0.13380  0.48872  Biso   1.000  C
  C8       1.0000 0.42290  0.86620  0.98872  Biso   1.000  C
  Cu1      1.0000 0.24076  0.05464  0.97909  Biso   1.000  Cu
  Cu2      1.0000 0.74076  0.05464  0.52091  Biso   1.000  Cu
  Cu3      1.0000 0.24076  0.44536  0.47909  Biso   1.000  Cu
  Cu4      1.0000 0.25924  0.55464  0.97909  Biso   1.000  Cu
  Cu5      1.0000 0.75924  0.94536  0.02091  Biso   1.000  Cu
  Cu6      1.0000 0.25924  0.94536  0.47909  Biso   1.000  Cu
  Cu7      1.0000 0.75924  0.55464  0.52091  Biso   1.000  Cu
  Cu8      1.0000 0.74076  0.44536  0.02091  Biso   1.000  Cu
  C9       1.0000 0.22470  0.10880  0.88641  Biso   1.000  C
  C10      1.0000 0.72470  0.10880  0.61359  Biso   1.000  C
  C11      1.0000 0.22470  0.39120  0.38641  Biso   1.000  C
  C12      1.0000 0.27530  0.60880  0.88641  Biso   1.000  C
  C13      1.0000 0.77530  0.89120  0.11359  Biso   1.000  C
  C14      1.0000 0.27530  0.89120  0.38641  Biso   1.000  C
  C15      1.0000 0.77530  0.60880  0.61359  Biso   1.000  C
  C16      1.0000 0.72470  0.39120  0.11359  Biso   1.000  C
  N1       1.0000 0.21260  0.14480  0.83136  Biso   1.000  N
  N2       1.0000 0.71260  0.14480  0.66864  Biso   1.000  N
  N3       1.0000 0.21260  0.35520  0.33136  Biso   1.000  N
  N4       1.0000 0.28740  0.64480  0.83136  Biso   1.000  N
  N5       1.0000 0.78740  0.85520  0.16864  Biso   1.000  N
  N6       1.0000 0.28740  0.85520  0.33136  Biso   1.000  N
  N7       1.0000 0.78740  0.64480  0.66864  Biso   1.000  N
  N8       1.0000 0.71260  0.35520  0.16864  Biso   1.000  N
  C17      1.0000 0.23040  0.14460  0.06253  Biso   1.000  C
  C18      1.0000 0.73040  0.14460  0.43747  Biso   1.000  C
  C19      1.0000 0.23040  0.35540  0.56253  Biso   1.000  C
  C20      1.0000 0.26960  0.64460  0.06253  Biso   1.000  C
  C21      1.0000 0.76960  0.85540  0.93747  Biso   1.000  C
  C22      1.0000 0.26960  0.85540  0.56253  Biso   1.000  C
  C23      1.0000 0.76960  0.64460  0.43747  Biso   1.000  C
  C24      1.0000 0.73040  0.35540  0.93747  Biso   1.000  C
  Sn1      1.0000 0.21237  0.22535  0.72192  Biso   1.000  Sn
  Sn2      1.0000 0.71237  0.22535  0.77808  Biso   1.000  Sn
  Sn3      1.0000 0.21237  0.27465  0.22192  Biso   1.000  Sn
  Sn4      1.0000 0.28763  0.72535  0.72192  Biso   1.000  Sn
  Sn5      1.0000 0.78763  0.77465  0.27808  Biso   1.000  Sn
  Sn6      1.0000 0.28763  0.77465  0.22192  Biso   1.000  Sn
  Sn7      1.0000 0.78763  0.72535  0.77808  Biso   1.000  Sn
  Sn8      1.0000 0.71237  0.27465  0.27808  Biso   1.000  Sn
  C25      1.0000 0.13400  0.07310  0.68559  Biso   1.000  C
  C26      1.0000 0.63400  0.07310  0.81441  Biso   1.000  C
  C27      1.0000 0.13400  0.42690  0.18559  Biso   1.000  C
  C28      1.0000 0.36600  0.57310  0.68559  Biso   1.000  C
  C29      1.0000 0.86600  0.92690  0.31441  Biso   1.000  C
  C30      1.0000 0.36600  0.92690  0.18559  Biso   1.000  C
  C31      1.0000 0.86600  0.57310  0.81441  Biso   1.000  C
  C32      1.0000 0.63400  0.42690  0.31441  Biso   1.000  C
  H1       1.0000 0.14820  0.00490  0.71550  Biso   1.000  H
  H2       1.0000 0.64820  0.00490  0.78450  Biso   1.000  H
  H3       1.0000 0.14820  0.49510  0.21550  Biso   1.000  H
  H4       1.0000 0.35180  0.50490  0.71550  Biso   1.000  H
  H5       1.0000 0.85180  0.99510  0.28450  Biso   1.000  H
  H6       1.0000 0.35180  0.99510  0.21550  Biso   1.000  H
  H7       1.0000 0.85180  0.50490  0.78450  Biso   1.000  H
  H8       1.0000 0.64820  0.49510  0.28450  Biso   1.000  H
  H9       1.0000 0.15620  0.05470  0.63890  Biso   1.000  H
  H10      1.0000 0.65620  0.05470  0.86110  Biso   1.000  H
  H11      1.0000 0.15620  0.44530  0.13890  Biso   1.000  H
  H12      1.0000 0.34380  0.55470  0.63890  Biso   1.000  H
  H13      1.0000 0.84380  0.94530  0.36110  Biso   1.000  H
  H14      1.0000 0.34380  0.94530  0.13890  Biso   1.000  H
  H15      1.0000 0.84380  0.55470  0.86110  Biso   1.000  H
  H16      1.0000 0.65620  0.44530  0.36110  Biso   1.000  H
  H17      1.0000 0.06130  0.08920  0.68560  Biso   1.000  H
  H18      1.0000 0.56130  0.08920  0.81440  Biso   1.000  H
  H19      1.0000 0.06130  0.41080  0.18560  Biso   1.000  H
  H20      1.0000 0.43870  0.58920  0.68560  Biso   1.000  H
  H21      1.0000 0.93870  0.91080  0.31440  Biso   1.000  H
  H22      1.0000 0.43870  0.91080  0.18560  Biso   1.000  H
  H23      1.0000 0.93870  0.58920  0.81440  Biso   1.000  H
  H24      1.0000 0.56130  0.41080  0.31440  Biso   1.000  H
  C33      1.0000 0.37220  0.22900  0.72826  Biso   1.000  C
  C34      1.0000 0.87220  0.22900  0.77174  Biso   1.000  C
  C35      1.0000 0.37220  0.27100  0.22826  Biso   1.000  C
  C36      1.0000 0.12780  0.72900  0.72826  Biso   1.000  C
  C37      1.0000 0.62780  0.77100  0.27174  Biso   1.000  C
  C38      1.0000 0.12780  0.77100  0.22826  Biso   1.000  C
  C39      1.0000 0.62780  0.72900  0.77174  Biso   1.000  C
  C40      1.0000 0.87220  0.27100  0.27174  Biso   1.000  C
  H25      1.0000 0.39930  0.27780  0.69090  Biso   1.000  H
  H26      1.0000 0.89930  0.27780  0.80910  Biso   1.000  H
  H27      1.0000 0.39930  0.22220  0.19090  Biso   1.000  H
  H28      1.0000 0.10070  0.77780  0.69090  Biso   1.000  H
  H29      1.0000 0.60070  0.72220  0.30910  Biso   1.000  H
  H30      1.0000 0.10070  0.72220  0.19090  Biso   1.000  H
  H31      1.0000 0.60070  0.77780  0.80910  Biso   1.000  H
  H32      1.0000 0.89930  0.22220  0.30910  Biso   1.000  H
  H33      1.0000 0.39850  0.14750  0.72450  Biso   1.000  H
  H34      1.0000 0.89850  0.14750  0.77550  Biso   1.000  H
  H35      1.0000 0.39850  0.35250  0.22450  Biso   1.000  H
  H36      1.0000 0.10150  0.64750  0.72450  Biso   1.000  H
  H37      1.0000 0.60150  0.85250  0.27550  Biso   1.000  H
  H38      1.0000 0.10150  0.85250  0.22450  Biso   1.000  H
  H39      1.0000 0.60150  0.64750  0.77550  Biso   1.000  H
  H40      1.0000 0.89850  0.35250  0.27550  Biso   1.000  H
  H41      1.0000 0.39260  0.26330  0.77230  Biso   1.000  H
  H42      1.0000 0.89260  0.26330  0.72770  Biso   1.000  H
  H43      1.0000 0.39260  0.23670  0.27230  Biso   1.000  H
  H44      1.0000 0.10740  0.76330  0.77230  Biso   1.000  H
  H45      1.0000 0.60740  0.73670  0.22770  Biso   1.000  H
  H46      1.0000 0.10740  0.73670  0.27230  Biso   1.000  H
  H47      1.0000 0.60740  0.76330  0.72770  Biso   1.000  H
  H48      1.0000 0.89260  0.23670  0.22770  Biso   1.000  H
  C41      1.0000 0.13120  0.37590  0.75730  Biso   1.000  C
  C42      1.0000 0.63120  0.37590  0.74270  Biso   1.000  C
  C43      1.0000 0.13120  0.12410  0.25730  Biso   1.000  C
  C44      1.0000 0.36880  0.87590  0.75730  Biso   1.000  C
  C45      1.0000 0.86880  0.62410  0.24270  Biso   1.000  C
  C46      1.0000 0.36880  0.62410  0.25730  Biso   1.000  C
  C47      1.0000 0.86880  0.87590  0.74270  Biso   1.000  C
  C48      1.0000 0.63120  0.12410  0.24270  Biso   1.000  C
  H49      1.0000 0.17860  0.43600  0.77440  Biso   1.000  H
  H50      1.0000 0.67860  0.43600  0.72560  Biso   1.000  H
  H51      1.0000 0.17860  0.06400  0.27440  Biso   1.000  H
  H52      1.0000 0.32140  0.93600  0.77440  Biso   1.000  H
  H53      1.0000 0.82140  0.56400  0.22560  Biso   1.000  H
  H54      1.0000 0.32140  0.56400  0.27440  Biso   1.000  H
  H55      1.0000 0.82140  0.93600  0.72560  Biso   1.000  H
  H56      1.0000 0.67860  0.06400  0.22560  Biso   1.000  H
  H57      1.0000 0.08560  0.35160  0.79430  Biso   1.000  H
  H58      1.0000 0.58560  0.35160  0.70570  Biso   1.000  H
  H59      1.0000 0.08560  0.14840  0.29430  Biso   1.000  H
  H60      1.0000 0.41440  0.85160  0.79430  Biso   1.000  H
  H61      1.0000 0.91440  0.64840  0.20570  Biso   1.000  H
  H62      1.0000 0.41440  0.64840  0.29430  Biso   1.000  H
  H63      1.0000 0.91440  0.85160  0.70570  Biso   1.000  H
  H64      1.0000 0.58560  0.14840  0.20570  Biso   1.000  H
  H65      1.0000 0.09170  0.40970  0.71950  Biso   1.000  H
  H66      1.0000 0.59170  0.40970  0.78050  Biso   1.000  H
  H67      1.0000 0.09170  0.09030  0.21950  Biso   1.000  H
  H68      1.0000 0.40830  0.90970  0.71950  Biso   1.000  H
  H69      1.0000 0.90830  0.59030  0.28050  Biso   1.000  H
  H70      1.0000 0.40830  0.59030  0.21950  Biso   1.000  H
  H71      1.0000 0.90830  0.90970  0.78050  Biso   1.000  H
  H72      1.0000 0.59170  0.09030  0.28050  Biso   1.000  H
  N9       1.0000 0.21990  0.19470  0.11377  Biso   1.000  N
  N10      1.0000 0.71990  0.19470  0.38623  Biso   1.000  N
  N11      1.0000 0.21990  0.30530  0.61377  Biso   1.000  N
  N12      1.0000 0.28010  0.69470  0.11377  Biso   1.000  N
  N13      1.0000 0.78010  0.80530  0.88623  Biso   1.000  N
  N14      1.0000 0.28010  0.80530  0.61377  Biso   1.000  N
  N15      1.0000 0.78010  0.69470  0.38623  Biso   1.000  N
  N16      1.0000 0.71990  0.30530  0.88623  Biso   1.000  N
  N17      1.0000 0.13410  0.91300  0.99093  Biso   1.000  N
  N18      1.0000 0.63410  0.91300  0.50907  Biso   1.000  N
  N19      1.0000 0.13410  0.58700  0.49093  Biso   1.000  N
  N20      1.0000 0.36590  0.41300  0.99093  Biso   1.000  N
  N21      1.0000 0.86590  0.08700  0.00907  Biso   1.000  N
  N22      1.0000 0.36590  0.08700  0.49093  Biso   1.000  N
  N23      1.0000 0.86590  0.41300  0.50907  Biso   1.000  N
  N24      1.0000 0.63410  0.58700  0.00907  Biso   1.000  N
  N25      1.0000 0.86520  0.55880  0.01672  Biso   1.000  N
  N26      1.0000 0.36520  0.55880  0.48328  Biso   1.000  N
  N27      1.0000 0.86520  0.94120  0.51672  Biso   1.000  N
  N28      1.0000 0.63480  0.05880  0.01672  Biso   1.000  N
  N29      1.0000 0.13480  0.44120  0.98328  Biso   1.000  N
  N30      1.0000 0.63480  0.44120  0.51672  Biso   1.000  N
  N31      1.0000 0.13480  0.05880  0.48328  Biso   1.000  N
  N32      1.0000 0.36520  0.94120  0.98328  Biso   1.000  N
  C49      1.0000 0.99600  0.72960  0.00468  Biso   1.000  C
  C50      1.0000 0.49600  0.72960  0.49532  Biso   1.000  C
  C51      1.0000 0.99600  0.77040  0.50468  Biso   1.000  C
  C52      1.0000 0.50400  0.22960  0.00468  Biso   1.000  C
  C53      1.0000 0.00400  0.27040  0.99532  Biso   1.000  C
  C54      1.0000 0.50400  0.27040  0.50468  Biso   1.000  C
  C55      1.0000 0.00400  0.22960  0.49532  Biso   1.000  C
  C56      1.0000 0.49600  0.77040  0.99532  Biso   1.000  C
  C57      1.0000 0.07870  0.90050  0.04761  Biso   1.000  C
  C58      1.0000 0.57870  0.90050  0.45239  Biso   1.000  C
  C59      1.0000 0.07870  0.59950  0.54761  Biso   1.000  C
  C60      1.0000 0.42130  0.40050  0.04761  Biso   1.000  C
  C61      1.0000 0.92130  0.09950  0.95239  Biso   1.000  C
  C62      1.0000 0.42130  0.09950  0.54761  Biso   1.000  C
  C63      1.0000 0.92130  0.40050  0.45239  Biso   1.000  C
  C64      1.0000 0.57870  0.59950  0.95239  Biso   1.000  C
  H73      1.0000 0.08820  0.95640  0.08360  Biso   1.000  H
  H74      1.0000 0.58820  0.95640  0.41640  Biso   1.000  H
  H75      1.0000 0.08820  0.54360  0.58360  Biso   1.000  H
  H76      1.0000 0.41180  0.45640  0.08360  Biso   1.000  H
  H77      1.0000 0.91180  0.04360  0.91640  Biso   1.000  H
  H78      1.0000 0.41180  0.04360  0.58360  Biso   1.000  H
  H79      1.0000 0.91180  0.45640  0.41640  Biso   1.000  H
  H80      1.0000 0.58820  0.54360  0.91640  Biso   1.000  H
  C65      1.0000 0.00840  0.81120  0.05693  Biso   1.000  C
  C66      1.0000 0.50840  0.81120  0.44307  Biso   1.000  C
  C67      1.0000 0.00840  0.68880  0.55693  Biso   1.000  C
  C68      1.0000 0.49160  0.31120  0.05693  Biso   1.000  C
  C69      1.0000 0.99160  0.18880  0.94307  Biso   1.000  C
  C70      1.0000 0.49160  0.18880  0.55693  Biso   1.000  C
  C71      1.0000 0.99160  0.31120  0.44307  Biso   1.000  C
  C72      1.0000 0.50840  0.68880  0.94307  Biso   1.000  C
  H81      1.0000 0.96990  0.80600  0.09790  Biso   1.000  H
  H82      1.0000 0.46990  0.80600  0.40210  Biso   1.000  H
  H83      1.0000 0.96990  0.69400  0.59790  Biso   1.000  H
  H84      1.0000 0.53010  0.30600  0.09790  Biso   1.000  H
  H85      1.0000 0.03010  0.19400  0.90210  Biso   1.000  H
  H86      1.0000 0.53010  0.19400  0.59790  Biso   1.000  H
  H87      1.0000 0.03010  0.30600  0.40210  Biso   1.000  H
  H88      1.0000 0.46990  0.69400  0.90210  Biso   1.000  H
  C73      1.0000 0.12190  0.83260  0.94161  Biso   1.000  C
  C74      1.0000 0.62190  0.83260  0.55839  Biso   1.000  C
  C75      1.0000 0.12190  0.66740  0.44161  Biso   1.000  C
  C76      1.0000 0.37810  0.33260  0.94161  Biso   1.000  C
  C77      1.0000 0.87810  0.16740  0.05839  Biso   1.000  C
  C78      1.0000 0.37810  0.16740  0.44161  Biso   1.000  C
  C79      1.0000 0.87810  0.33260  0.55839  Biso   1.000  C
  C80      1.0000 0.62190  0.66740  0.05839  Biso   1.000  C
  H89      1.0000 0.16200  0.83920  0.90150  Biso   1.000  H
  H90      1.0000 0.66200  0.83920  0.59850  Biso   1.000  H
  H91      1.0000 0.16200  0.66080  0.40150  Biso   1.000  H
  H92      1.0000 0.33800  0.33920  0.90150  Biso   1.000  H
  H93      1.0000 0.83800  0.16080  0.09850  Biso   1.000  H
  H94      1.0000 0.33800  0.16080  0.40150  Biso   1.000  H
  H95      1.0000 0.83800  0.33920  0.59850  Biso   1.000  H
  H96      1.0000 0.66200  0.66080  0.09850  Biso   1.000  H
  C81      1.0000 0.05340  0.73960  0.94600  Biso   1.000  C
  C82      1.0000 0.55340  0.73960  0.55400  Biso   1.000  C
  C83      1.0000 0.05340  0.76040  0.44600  Biso   1.000  C
  C84      1.0000 0.44660  0.23960  0.94600  Biso   1.000  C
  C85      1.0000 0.94660  0.26040  0.05400  Biso   1.000  C
  C86      1.0000 0.44660  0.26040  0.44600  Biso   1.000  C
  C87      1.0000 0.94660  0.23960  0.55400  Biso   1.000  C
  C88      1.0000 0.55340  0.76040  0.05400  Biso   1.000  C
  H97      1.0000 0.04620  0.68400  0.90960  Biso   1.000  H
  H98      1.0000 0.54620  0.68400  0.59040  Biso   1.000  H
  H99      1.0000 0.04620  0.81600  0.40960  Biso   1.000  H
  H100     1.0000 0.45380  0.18400  0.90960  Biso   1.000  H
  H101     1.0000 0.95380  0.31600  0.09040  Biso   1.000  H
  H102     1.0000 0.45380  0.31600  0.40960  Biso   1.000  H
  H103     1.0000 0.95380  0.18400  0.59040  Biso   1.000  H
  H104     1.0000 0.54620  0.81600  0.09040  Biso   1.000  H
