data_image0
_cell_length_a       6.4709
_cell_length_b       27.5229
_cell_length_c       9.6059
_cell_angle_alpha    90
_cell_angle_beta     101.545
_cell_angle_gamma    90

_symmetry_space_group_name_H-M    "P 1"
_symmetry_int_tables_number       1

loop_
  _symmetry_equiv_pos_as_xyz
  'x, y, z'

loop_
  _atom_site_label
  _atom_site_occupancy
  _atom_site_fract_x
  _atom_site_fract_y
  _atom_site_fract_z
  _atom_site_thermal_displace_type
  _atom_site_B_iso_or_equiv
  _atom_site_type_symbol
  Cu1      1.0000 0.38144  0.74855  0.58160  Biso   1.000  Cu
  Cu2      1.0000 0.38144  0.75145  0.08160  Biso   1.000  Cu
  Cu3      1.0000 0.61856  0.25145  0.41840  Biso   1.000  Cu
  Cu4      1.0000 0.61856  0.24855  0.91840  Biso   1.000  Cu
  C1       1.0000 0.29710  0.74991  0.38259  Biso   1.000  C
  C2       1.0000 0.29710  0.75009  0.88259  Biso   1.000  C
  C3       1.0000 0.70290  0.25009  0.61741  Biso   1.000  C
  C4       1.0000 0.70290  0.24991  0.11741  Biso   1.000  C
  N1       1.0000 0.28770  0.75041  0.26133  Biso   1.000  N
  N2       1.0000 0.28770  0.74959  0.76133  Biso   1.000  N
  N3       1.0000 0.71230  0.24959  0.73867  Biso   1.000  N
  N4       1.0000 0.71230  0.25041  0.23867  Biso   1.000  N
  N5       1.0000 0.61319  0.81003  0.63280  Biso   1.000  N
  N6       1.0000 0.61319  0.68997  0.13280  Biso   1.000  N
  N7       1.0000 0.38681  0.18997  0.36720  Biso   1.000  N
  N8       1.0000 0.38681  0.31003  0.86720  Biso   1.000  N
  C5       1.0000 0.53980  0.85539  0.63980  Biso   1.000  C
  C6       1.0000 0.53980  0.64461  0.13980  Biso   1.000  C
  C7       1.0000 0.46020  0.14461  0.36020  Biso   1.000  C
  C8       1.0000 0.46020  0.35539  0.86020  Biso   1.000  C
  H1       1.0000 0.39310  0.86080  0.60720  Biso   1.000  H
  H2       1.0000 0.39310  0.63920  0.10720  Biso   1.000  H
  H3       1.0000 0.60690  0.13920  0.39280  Biso   1.000  H
  H4       1.0000 0.60690  0.36080  0.89280  Biso   1.000  H
  C9       1.0000 0.66510  0.89464  0.69166  Biso   1.000  C
  C10      1.0000 0.66510  0.60536  0.19166  Biso   1.000  C
  C11      1.0000 0.33490  0.10536  0.30834  Biso   1.000  C
  C12      1.0000 0.33490  0.39464  0.80834  Biso   1.000  C
  H5       1.0000 0.60420  0.92600  0.69350  Biso   1.000  H
  H6       1.0000 0.60420  0.57400  0.19350  Biso   1.000  H
  H7       1.0000 0.39580  0.07400  0.30650  Biso   1.000  H
  H8       1.0000 0.39580  0.42600  0.80650  Biso   1.000  H
  C13      1.0000 0.88160  0.88817  0.74143  Biso   1.000  C
  C14      1.0000 0.88160  0.61183  0.24143  Biso   1.000  C
  C15      1.0000 0.11840  0.11183  0.25857  Biso   1.000  C
  C16      1.0000 0.11840  0.38817  0.75857  Biso   1.000  C
  C17      1.0000 0.95890  0.84108  0.73028  Biso   1.000  C
  C18      1.0000 0.95890  0.65892  0.23028  Biso   1.000  C
  C19      1.0000 0.04110  0.15892  0.26972  Biso   1.000  C
  C20      1.0000 0.04110  0.34108  0.76972  Biso   1.000  C
  H9       1.0000 0.10530  0.83460  0.75950  Biso   1.000  H
  H10      1.0000 0.10530  0.66540  0.25950  Biso   1.000  H
  H11      1.0000 0.89470  0.16540  0.24050  Biso   1.000  H
  H12      1.0000 0.89470  0.33460  0.74050  Biso   1.000  H
  C21      1.0000 0.82170  0.80426  0.67672  Biso   1.000  C
  C22      1.0000 0.82170  0.69574  0.17672  Biso   1.000  C
  C23      1.0000 0.17830  0.19574  0.32328  Biso   1.000  C
  C24      1.0000 0.17830  0.30426  0.82328  Biso   1.000  C
  H13      1.0000 0.87860  0.77270  0.67050  Biso   1.000  H
  H14      1.0000 0.87860  0.72730  0.17050  Biso   1.000  H
  H15      1.0000 0.12140  0.22730  0.32950  Biso   1.000  H
  H16      1.0000 0.12140  0.27270  0.82950  Biso   1.000  H
  C25      1.0000 0.01460  0.92863  0.80378  Biso   1.000  C
  C26      1.0000 0.01460  0.57137  0.30378  Biso   1.000  C
  C27      1.0000 0.98540  0.07137  0.19622  Biso   1.000  C
  C28      1.0000 0.98540  0.42863  0.69622  Biso   1.000  C
  H17      1.0000 0.95430  0.96020  0.79440  Biso   1.000  H
  H18      1.0000 0.95430  0.53980  0.29440  Biso   1.000  H
  H19      1.0000 0.04570  0.03980  0.20560  Biso   1.000  H
  H20      1.0000 0.04570  0.46020  0.70560  Biso   1.000  H
  C29      1.0000 0.21570  0.92455  0.87337  Biso   1.000  C
  C30      1.0000 0.21570  0.57545  0.37337  Biso   1.000  C
  C31      1.0000 0.78430  0.07545  0.12663  Biso   1.000  C
  C32      1.0000 0.78430  0.42455  0.62663  Biso   1.000  C
  H21      1.0000 0.27370  0.89270  0.88130  Biso   1.000  H
  H22      1.0000 0.27370  0.60730  0.38130  Biso   1.000  H
  H23      1.0000 0.72630  0.10730  0.11870  Biso   1.000  H
  H24      1.0000 0.72630  0.39270  0.61870  Biso   1.000  H
  C33      1.0000 0.35520  0.96365  0.93828  Biso   1.000  C
  C34      1.0000 0.35520  0.53635  0.43828  Biso   1.000  C
  C35      1.0000 0.64480  0.03635  0.06172  Biso   1.000  C
  C36      1.0000 0.64480  0.46365  0.56172  Biso   1.000  C
  C37      1.0000 0.29180  0.01230  0.94213  Biso   1.000  C
  C38      1.0000 0.29180  0.48770  0.44213  Biso   1.000  C
  C39      1.0000 0.70820  0.98770  0.05787  Biso   1.000  C
  C40      1.0000 0.70820  0.51230  0.55787  Biso   1.000  C
  H25      1.0000 0.15000  0.02110  0.90320  Biso   1.000  H
  H26      1.0000 0.15000  0.47890  0.40320  Biso   1.000  H
  H27      1.0000 0.85000  0.97890  0.09680  Biso   1.000  H
  H28      1.0000 0.85000  0.52110  0.59680  Biso   1.000  H
  C41      1.0000 0.56610  0.95247  0.99790  Biso   1.000  C
  C42      1.0000 0.56610  0.54753  0.49790  Biso   1.000  C
  C43      1.0000 0.43390  0.04753  0.00210  Biso   1.000  C
  C44      1.0000 0.43390  0.45247  0.50210  Biso   1.000  C
  H29      1.0000 0.61230  0.91970  0.99700  Biso   1.000  H
  H30      1.0000 0.61230  0.58030  0.49700  Biso   1.000  H
  H31      1.0000 0.38770  0.08030  0.00300  Biso   1.000  H
  H32      1.0000 0.38770  0.41970  0.50300  Biso   1.000  H
  N9       1.0000 0.61600  0.69175  0.63970  Biso   1.000  N
  N10      1.0000 0.61600  0.80825  0.13970  Biso   1.000  N
  N11      1.0000 0.38400  0.30825  0.36030  Biso   1.000  N
  N12      1.0000 0.38400  0.19175  0.86030  Biso   1.000  N
  C45      1.0000 0.64010  0.66890  0.76542  Biso   1.000  C
  C46      1.0000 0.64010  0.83110  0.26542  Biso   1.000  C
  C47      1.0000 0.35990  0.33110  0.23458  Biso   1.000  C
  C48      1.0000 0.35990  0.16890  0.73458  Biso   1.000  C
  H33      1.0000 0.53820  0.67460  0.82240  Biso   1.000  H
  H34      1.0000 0.53820  0.82540  0.32240  Biso   1.000  H
  H35      1.0000 0.46180  0.32540  0.17760  Biso   1.000  H
  H36      1.0000 0.46180  0.17460  0.67760  Biso   1.000  H
  C49      1.0000 0.80410  0.63767  0.81653  Biso   1.000  C
  C50      1.0000 0.80410  0.86233  0.31653  Biso   1.000  C
  C51      1.0000 0.19590  0.36233  0.18347  Biso   1.000  C
  C52      1.0000 0.19590  0.13767  0.68347  Biso   1.000  C
  H37      1.0000 0.81220  0.62230  0.90600  Biso   1.000  H
  H38      1.0000 0.81220  0.87770  0.40600  Biso   1.000  H
  H39      1.0000 0.18780  0.37770  0.09400  Biso   1.000  H
  H40      1.0000 0.18780  0.12230  0.59400  Biso   1.000  H
  C53      1.0000 0.95890  0.62860  0.73666  Biso   1.000  C
  C54      1.0000 0.95890  0.87140  0.23666  Biso   1.000  C
  C55      1.0000 0.04110  0.37140  0.26334  Biso   1.000  C
  C56      1.0000 0.04110  0.12860  0.76334  Biso   1.000  C
  C57      1.0000 0.93580  0.65307  0.60710  Biso   1.000  C
  C58      1.0000 0.93580  0.84693  0.10710  Biso   1.000  C
  C59      1.0000 0.06420  0.34693  0.39290  Biso   1.000  C
  C60      1.0000 0.06420  0.15307  0.89290  Biso   1.000  C
  H41      1.0000 0.03810  0.64910  0.54960  Biso   1.000  H
  H42      1.0000 0.03810  0.85090  0.04960  Biso   1.000  H
  H43      1.0000 0.96190  0.35090  0.45040  Biso   1.000  H
  H44      1.0000 0.96190  0.14910  0.95040  Biso   1.000  H
  C61      1.0000 0.76380  0.68315  0.56257  Biso   1.000  C
  C62      1.0000 0.76380  0.81685  0.06257  Biso   1.000  C
  C63      1.0000 0.23620  0.31685  0.43743  Biso   1.000  C
  C64      1.0000 0.23620  0.18315  0.93743  Biso   1.000  C
  H45      1.0000 0.74960  0.69850  0.47260  Biso   1.000  H
  H46      1.0000 0.74960  0.80150  0.97260  Biso   1.000  H
  H47      1.0000 0.25040  0.30150  0.52740  Biso   1.000  H
  H48      1.0000 0.25040  0.19850  0.02740  Biso   1.000  H
  C65      1.0000 0.13560  0.59545  0.78207  Biso   1.000  C
  C66      1.0000 0.13560  0.90455  0.28207  Biso   1.000  C
  C67      1.0000 0.86440  0.40455  0.21793  Biso   1.000  C
  C68      1.0000 0.86440  0.09545  0.71793  Biso   1.000  C
  H49      1.0000 0.24180  0.59450  0.72670  Biso   1.000  H
  H50      1.0000 0.24180  0.90550  0.22670  Biso   1.000  H
  H51      1.0000 0.75820  0.40550  0.27330  Biso   1.000  H
  H52      1.0000 0.75820  0.09450  0.77330  Biso   1.000  H
  C69      1.0000 0.15980  0.56619  0.89569  Biso   1.000  C
  C70      1.0000 0.15980  0.93381  0.39569  Biso   1.000  C
  C71      1.0000 0.84020  0.43381  0.10431  Biso   1.000  C
  C72      1.0000 0.84020  0.06619  0.60431  Biso   1.000  C
  H53      1.0000 0.05220  0.56750  0.94990  Biso   1.000  H
  H54      1.0000 0.05220  0.93250  0.44990  Biso   1.000  H
  H55      1.0000 0.94780  0.43250  0.05010  Biso   1.000  H
  H56      1.0000 0.94780  0.06750  0.55010  Biso   1.000  H
  C73      1.0000 0.33320  0.53255  0.94538  Biso   1.000  C
  C74      1.0000 0.33320  0.96745  0.44538  Biso   1.000  C
  C75      1.0000 0.66680  0.46745  0.05462  Biso   1.000  C
  C76      1.0000 0.66680  0.03255  0.55462  Biso   1.000  C
  C77      1.0000 0.32870  0.50366  0.06461  Biso   1.000  C
  C78      1.0000 0.32870  0.99634  0.56461  Biso   1.000  C
  C79      1.0000 0.67130  0.49634  0.93539  Biso   1.000  C
  C80      1.0000 0.67130  0.00366  0.43539  Biso   1.000  C
  H57      1.0000 0.21080  0.50580  0.10940  Biso   1.000  H
  H58      1.0000 0.21080  0.99420  0.60940  Biso   1.000  H
  H59      1.0000 0.78920  0.49420  0.89060  Biso   1.000  H
  H60      1.0000 0.78920  0.00580  0.39060  Biso   1.000  H
  C81      1.0000 0.50940  0.52790  0.88100  Biso   1.000  C
  C82      1.0000 0.50940  0.97210  0.38100  Biso   1.000  C
  C83      1.0000 0.49060  0.47210  0.11900  Biso   1.000  C
  C84      1.0000 0.49060  0.02790  0.61900  Biso   1.000  C
  H61      1.0000 0.51700  0.54670  0.79920  Biso   1.000  H
  H62      1.0000 0.51700  0.95330  0.29920  Biso   1.000  H
  H63      1.0000 0.48300  0.45330  0.20080  Biso   1.000  H
  H64      1.0000 0.48300  0.04670  0.70080  Biso   1.000  H
