data_image0
_cell_length_a       7.378
_cell_length_b       8.246
_cell_length_c       9.217
_cell_angle_alpha    84.82
_cell_angle_beta     74.28
_cell_angle_gamma    88.3

_symmetry_space_group_name_H-M    "P 1"
_symmetry_int_tables_number       1

loop_
  _symmetry_equiv_pos_as_xyz
  'x, y, z'

loop_
  _atom_site_label
  _atom_site_occupancy
  _atom_site_fract_x
  _atom_site_fract_y
  _atom_site_fract_z
  _atom_site_thermal_displace_type
  _atom_site_B_iso_or_equiv
  _atom_site_type_symbol
  Cu1      1.0000 0.16432  0.68639  0.64530  Biso   1.000  Cu
  Cu2      1.0000 0.83568  0.31361  0.35470  Biso   1.000  Cu
  O1       1.0000 0.98040  0.84880  0.15970  Biso   1.000  O
  O2       1.0000 0.01960  0.15120  0.84030  Biso   1.000  O
  O3       1.0000 0.54470  0.91010  0.80400  Biso   1.000  O
  O4       1.0000 0.45530  0.08990  0.19600  Biso   1.000  O
  N1       1.0000 0.23950  0.90190  0.95580  Biso   1.000  N
  N2       1.0000 0.76050  0.09810  0.04420  Biso   1.000  N
  N3       1.0000 0.20230  0.62230  0.43130  Biso   1.000  N
  N4       1.0000 0.79770  0.37770  0.56870  Biso   1.000  N
  N5       1.0000 0.69190  0.45760  0.23830  Biso   1.000  N
  N6       1.0000 0.30810  0.54240  0.76170  Biso   1.000  N
  N7       1.0000 0.91560  0.68560  0.79910  Biso   1.000  N
  N8       1.0000 0.08440  0.31440  0.20090  Biso   1.000  N
  C1       1.0000 0.14680  0.83020  0.09810  Biso   1.000  C
  C2       1.0000 0.85320  0.16980  0.90190  Biso   1.000  C
  C3       1.0000 0.28640  0.73140  0.15300  Biso   1.000  C
  C4       1.0000 0.71360  0.26860  0.84700  Biso   1.000  C
  C5       1.0000 0.45620  0.73970  0.04250  Biso   1.000  C
  C6       1.0000 0.54380  0.26030  0.95750  Biso   1.000  C
  C7       1.0000 0.42640  0.85930  0.91530  Biso   1.000  C
  C8       1.0000 0.57360  0.14070  0.08470  Biso   1.000  C
  C9       1.0000 0.24370  0.66440  0.30470  Biso   1.000  C
  C10      1.0000 0.75630  0.33560  0.69530  Biso   1.000  C
  C11      1.0000 0.63010  0.66420  0.03180  Biso   1.000  C
  C12      1.0000 0.36990  0.33580  0.96820  Biso   1.000  C
  C13      1.0000 0.66120  0.55110  0.14850  Biso   1.000  C
  C14      1.0000 0.33880  0.44890  0.85150  Biso   1.000  C
  C15      1.0000 0.78550  0.68300  0.90050  Biso   1.000  C
  C16      1.0000 0.21450  0.31700  0.09950  Biso   1.000  C
  N9       1.0000 0.24170  0.92040  0.58780  Biso   1.000  N
  N10      1.0000 0.75830  0.07960  0.41220  Biso   1.000  N
  C17      1.0000 0.26610  0.05460  0.55410  Biso   1.000  C
  C18      1.0000 0.73390  0.94540  0.44590  Biso   1.000  C
  C19      1.0000 0.29560  0.22780  0.51430  Biso   1.000  C
  C20      1.0000 0.70440  0.77220  0.48570  Biso   1.000  C
  H1       1.0000 0.21620  0.28730  0.59250  Biso   1.000  H
  H2       1.0000 0.78380  0.71270  0.40750  Biso   1.000  H
  H3       1.0000 0.26520  0.25780  0.42050  Biso   1.000  H
  H4       1.0000 0.73480  0.74220  0.57950  Biso   1.000  H
  H5       1.0000 0.42500  0.25310  0.50340  Biso   1.000  H
  H6       1.0000 0.57500  0.74690  0.49660  Biso   1.000  H
  H7       1.0000 0.19400  0.97200  0.90900  Biso   1.000  H
  H8       1.0000 0.80600  0.02800  0.09100  Biso   1.000  H
