data_image0
_cell_length_a       5.3101
_cell_length_b       15.741
_cell_length_c       8.506
_cell_angle_alpha    90
_cell_angle_beta     105.2
_cell_angle_gamma    90

_symmetry_space_group_name_H-M    "P 1"
_symmetry_int_tables_number       1

loop_
  _symmetry_equiv_pos_as_xyz
  'x, y, z'

loop_
  _atom_site_label
  _atom_site_occupancy
  _atom_site_fract_x
  _atom_site_fract_y
  _atom_site_fract_z
  _atom_site_thermal_displace_type
  _atom_site_B_iso_or_equiv
  _atom_site_type_symbol
  Cu1      1.0000 0.38328  0.57852  0.07261  Biso   1.000  Cu
  Cu2      1.0000 0.61672  0.07852  0.92739  Biso   1.000  Cu
  O1       1.0000 0.93440  0.94684  0.47450  Biso   1.000  O
  O2       1.0000 0.06560  0.44684  0.52550  Biso   1.000  O
  O3       1.0000 0.46280  0.74775  0.66150  Biso   1.000  O
  O4       1.0000 0.53720  0.24775  0.33850  Biso   1.000  O
  N1       1.0000 0.65090  0.84689  0.52990  Biso   1.000  N
  N2       1.0000 0.34910  0.34689  0.47010  Biso   1.000  N
  N3       1.0000 0.38440  0.97855  0.87090  Biso   1.000  N
  N4       1.0000 0.61560  0.47855  0.12910  Biso   1.000  N
  N5       1.0000 0.26000  0.83147  0.20070  Biso   1.000  N
  N6       1.0000 0.74000  0.33147  0.79930  Biso   1.000  N
  N7       1.0000 0.58480  0.67609  0.02460  Biso   1.000  N
  N8       1.0000 0.41520  0.17609  0.97540  Biso   1.000  N
  N9       1.0000 0.06500  0.55574  0.89590  Biso   1.000  N
  N10      1.0000 0.93500  0.05574  0.10410  Biso   1.000  N
  N11      1.0000 0.24220  0.60794  0.26420  Biso   1.000  N
  N12      1.0000 0.75780  0.10794  0.73580  Biso   1.000  N
  C1       1.0000 0.86810  0.90023  0.56970  Biso   1.000  C
  C2       1.0000 0.13190  0.40023  0.43030  Biso   1.000  C
  C3       1.0000 0.98850  0.88706  0.74300  Biso   1.000  C
  C4       1.0000 0.01150  0.38706  0.25700  Biso   1.000  C
  C5       1.0000 0.85020  0.82688  0.80320  Biso   1.000  C
  C6       1.0000 0.14980  0.32688  0.19680  Biso   1.000  C
  C7       1.0000 0.62710  0.80023  0.66100  Biso   1.000  C
  C8       1.0000 0.37290  0.30023  0.33900  Biso   1.000  C
  C9       1.0000 0.20850  0.93553  0.81980  Biso   1.000  C
  C10      1.0000 0.79150  0.43553  0.18020  Biso   1.000  C
  C11      1.0000 0.09360  0.81500  0.09130  Biso   1.000  C
  C12      1.0000 0.90640  0.31500  0.90870  Biso   1.000  C
  C13      1.0000 0.88090  0.79132  0.95620  Biso   1.000  C
  C14      1.0000 0.11910  0.29132  0.04380  Biso   1.000  C
  C15      1.0000 0.71250  0.72796  0.98960  Biso   1.000  C
  C16      1.0000 0.28750  0.22796  0.01040  Biso   1.000  C
  C17      1.0000 0.86720  0.54458  0.80940  Biso   1.000  C
  C18      1.0000 0.13280  0.04458  0.19060  Biso   1.000  C
  C19      1.0000 0.61040  0.53230  0.70080  Biso   1.000  C
  C20      1.0000 0.38960  0.03230  0.29920  Biso   1.000  C
  H1       1.0000 0.50800  0.49760  0.75330  Biso   1.000  H
  H2       1.0000 0.49200  0.99760  0.24670  Biso   1.000  H
  H3       1.0000 0.62590  0.50480  0.60300  Biso   1.000  H
  H4       1.0000 0.37410  0.00480  0.39700  Biso   1.000  H
  H5       1.0000 0.52690  0.58640  0.67390  Biso   1.000  H
  H6       1.0000 0.47310  0.08640  0.32610  Biso   1.000  H
  C21      1.0000 0.11600  0.62927  0.34370  Biso   1.000  C
  C22      1.0000 0.88400  0.12927  0.65630  Biso   1.000  C
  C23      1.0000 0.95130  0.65700  0.44470  Biso   1.000  C
  C24      1.0000 0.04870  0.15700  0.55530  Biso   1.000  C
  H7       1.0000 0.95340  0.71790  0.45080  Biso   1.000  H
  H8       1.0000 0.04660  0.21790  0.54920  Biso   1.000  H
  H9       1.0000 0.01510  0.63370  0.55210  Biso   1.000  H
  H10      1.0000 0.98490  0.13370  0.44790  Biso   1.000  H
  H11      1.0000 0.77600  0.63770  0.39830  Biso   1.000  H
  H12      1.0000 0.22400  0.13770  0.60170  Biso   1.000  H
  H13      1.0000 0.54700  0.84100  0.43700  Biso   1.000  H
  H14      1.0000 0.45300  0.34100  0.56300  Biso   1.000  H
