data_image0
_cell_length_a       22.993
_cell_length_b       6.094
_cell_length_c       5.3827
_cell_angle_alpha    90
_cell_angle_beta     90
_cell_angle_gamma    90

_symmetry_space_group_name_H-M    "P 1"
_symmetry_int_tables_number       1

loop_
  _symmetry_equiv_pos_as_xyz
  'x, y, z'

loop_
  _atom_site_label
  _atom_site_occupancy
  _atom_site_fract_x
  _atom_site_fract_y
  _atom_site_fract_z
  _atom_site_thermal_displace_type
  _atom_site_B_iso_or_equiv
  _atom_site_type_symbol
  Cu1      1.0000 0.50000  0.44072  0.60211  Biso   1.000  Cu
  Cu2      1.0000 0.00000  0.55928  0.10211  Biso   1.000  Cu
  S1       1.0000 0.50000  0.17353  0.90730  Biso   1.000  S
  S2       1.0000 0.00000  0.82647  0.40730  Biso   1.000  S
  N1       1.0000 0.50000  0.74500  0.70590  Biso   1.000  N
  N2       1.0000 0.00000  0.25500  0.20590  Biso   1.000  N
  N3       1.0000 0.42627  0.40280  0.38290  Biso   1.000  N
  N4       1.0000 0.07373  0.59720  0.88290  Biso   1.000  N
  N5       1.0000 0.92627  0.59720  0.88290  Biso   1.000  N
  N6       1.0000 0.57373  0.40280  0.38290  Biso   1.000  N
  N7       1.0000 0.34649  0.81070  0.70380  Biso   1.000  N
  N8       1.0000 0.15351  0.18930  0.20380  Biso   1.000  N
  N9       1.0000 0.84649  0.18930  0.20380  Biso   1.000  N
  N10      1.0000 0.65351  0.81070  0.70380  Biso   1.000  N
  N11      1.0000 0.25062  0.26750  0.74420  Biso   1.000  N
  N12      1.0000 0.24938  0.73250  0.24420  Biso   1.000  N
  N13      1.0000 0.75062  0.73250  0.24420  Biso   1.000  N
  N14      1.0000 0.74938  0.26750  0.74420  Biso   1.000  N
  C1       1.0000 0.50000  0.92500  0.78080  Biso   1.000  C
  C2       1.0000 0.00000  0.07500  0.28080  Biso   1.000  C
  C3       1.0000 0.41305  0.54910  0.20770  Biso   1.000  C
  C4       1.0000 0.08695  0.45090  0.70770  Biso   1.000  C
  C5       1.0000 0.91305  0.45090  0.70770  Biso   1.000  C
  C6       1.0000 0.58695  0.54910  0.20770  Biso   1.000  C
  H1       1.0000 0.43570  0.67920  0.19690  Biso   1.000  H
  H2       1.0000 0.06430  0.32080  0.69690  Biso   1.000  H
  H3       1.0000 0.93570  0.32080  0.69690  Biso   1.000  H
  H4       1.0000 0.56430  0.67920  0.19690  Biso   1.000  H
  C7       1.0000 0.36815  0.52030  0.04160  Biso   1.000  C
  C8       1.0000 0.13185  0.47970  0.54160  Biso   1.000  C
  C9       1.0000 0.86815  0.47970  0.54160  Biso   1.000  C
  C10      1.0000 0.63185  0.52030  0.04160  Biso   1.000  C
  C11      1.0000 0.35600  0.68230  0.85490  Biso   1.000  C
  C12      1.0000 0.14400  0.31770  0.35490  Biso   1.000  C
  C13      1.0000 0.85600  0.31770  0.35490  Biso   1.000  C
  C14      1.0000 0.64400  0.68230  0.85490  Biso   1.000  C
  C15      1.0000 0.33369  0.32910  0.05900  Biso   1.000  C
  C16      1.0000 0.16631  0.67090  0.55900  Biso   1.000  C
  C17      1.0000 0.83369  0.67090  0.55900  Biso   1.000  C
  C18      1.0000 0.66631  0.32910  0.05900  Biso   1.000  C
  C19      1.0000 0.28715  0.29340  0.88610  Biso   1.000  C
  C20      1.0000 0.21285  0.70660  0.38610  Biso   1.000  C
  C21      1.0000 0.78715  0.70660  0.38610  Biso   1.000  C
  C22      1.0000 0.71285  0.29340  0.88610  Biso   1.000  C
  C23      1.0000 0.34695  0.17640  0.24400  Biso   1.000  C
  C24      1.0000 0.15305  0.82360  0.74400  Biso   1.000  C
  C25      1.0000 0.84695  0.82360  0.74400  Biso   1.000  C
  C26      1.0000 0.65305  0.17640  0.24400  Biso   1.000  C
  H5       1.0000 0.32490  0.04560  0.26270  Biso   1.000  H
  H6       1.0000 0.17510  0.95440  0.76270  Biso   1.000  H
  H7       1.0000 0.82490  0.95440  0.76270  Biso   1.000  H
  H8       1.0000 0.67510  0.04560  0.26270  Biso   1.000  H
  C27      1.0000 0.39349  0.22250  0.39930  Biso   1.000  C
  C28      1.0000 0.10651  0.77750  0.89930  Biso   1.000  C
  C29      1.0000 0.89349  0.77750  0.89930  Biso   1.000  C
  C30      1.0000 0.60651  0.22250  0.39930  Biso   1.000  C
  H9       1.0000 0.40260  0.11910  0.52550  Biso   1.000  H
  H10      1.0000 0.09740  0.88090  0.02550  Biso   1.000  H
  H11      1.0000 0.90260  0.88090  0.02550  Biso   1.000  H
  H12      1.0000 0.59740  0.11910  0.52550  Biso   1.000  H
