data_image0
_cell_length_a       11.2816
_cell_length_b       19.3224
_cell_length_c       6.1554
_cell_angle_alpha    90
_cell_angle_beta     90
_cell_angle_gamma    90

_symmetry_space_group_name_H-M    "P 1"
_symmetry_int_tables_number       1

loop_
  _symmetry_equiv_pos_as_xyz
  'x, y, z'

loop_
  _atom_site_label
  _atom_site_occupancy
  _atom_site_fract_x
  _atom_site_fract_y
  _atom_site_fract_z
  _atom_site_thermal_displace_type
  _atom_site_B_iso_or_equiv
  _atom_site_type_symbol
  Cu1      1.0000 0.71036  0.25000  0.61768  Biso   1.000  Cu
  Cu2      1.0000 0.21036  0.25000  0.88232  Biso   1.000  Cu
  Cu3      1.0000 0.78964  0.75000  0.11768  Biso   1.000  Cu
  Cu4      1.0000 0.28964  0.75000  0.38232  Biso   1.000  Cu
  N1       1.0000 0.59403  0.33473  0.59318  Biso   1.000  N
  N2       1.0000 0.09403  0.33473  0.90682  Biso   1.000  N
  N3       1.0000 0.59403  0.16527  0.59318  Biso   1.000  N
  N4       1.0000 0.90597  0.83473  0.09318  Biso   1.000  N
  N5       1.0000 0.40597  0.66527  0.40682  Biso   1.000  N
  N6       1.0000 0.90597  0.66527  0.09318  Biso   1.000  N
  N7       1.0000 0.40597  0.83473  0.40682  Biso   1.000  N
  N8       1.0000 0.09403  0.16527  0.90682  Biso   1.000  N
  C1       1.0000 0.51851  0.34368  0.76020  Biso   1.000  C
  C2       1.0000 0.01851  0.34368  0.73980  Biso   1.000  C
  C3       1.0000 0.51851  0.15632  0.76020  Biso   1.000  C
  C4       1.0000 0.98149  0.84368  0.26020  Biso   1.000  C
  C5       1.0000 0.48149  0.65632  0.23980  Biso   1.000  C
  C6       1.0000 0.98149  0.65632  0.26020  Biso   1.000  C
  C7       1.0000 0.48149  0.84368  0.23980  Biso   1.000  C
  C8       1.0000 0.01851  0.15632  0.73980  Biso   1.000  C
  H1       1.0000 0.53590  0.32150  0.89420  Biso   1.000  H
  H2       1.0000 0.03590  0.32150  0.60580  Biso   1.000  H
  H3       1.0000 0.53590  0.17850  0.89420  Biso   1.000  H
  H4       1.0000 0.96410  0.82150  0.39420  Biso   1.000  H
  H5       1.0000 0.46410  0.67850  0.10580  Biso   1.000  H
  H6       1.0000 0.96410  0.67850  0.39420  Biso   1.000  H
  H7       1.0000 0.46410  0.82150  0.10580  Biso   1.000  H
  H8       1.0000 0.03590  0.17850  0.60580  Biso   1.000  H
  C9       1.0000 0.41696  0.38347  0.74680  Biso   1.000  C
  C10      1.0000 0.91696  0.38347  0.75320  Biso   1.000  C
  C11      1.0000 0.41696  0.11653  0.74680  Biso   1.000  C
  C12      1.0000 0.08304  0.88347  0.24680  Biso   1.000  C
  C13      1.0000 0.58304  0.61653  0.25320  Biso   1.000  C
  C14      1.0000 0.08304  0.61653  0.24680  Biso   1.000  C
  C15      1.0000 0.58304  0.88347  0.25320  Biso   1.000  C
  C16      1.0000 0.91696  0.11653  0.75320  Biso   1.000  C
  H9       1.0000 0.36490  0.38780  0.86740  Biso   1.000  H
  H10      1.0000 0.86490  0.38780  0.63260  Biso   1.000  H
  H11      1.0000 0.36490  0.11220  0.86740  Biso   1.000  H
  H12      1.0000 0.13510  0.88780  0.36740  Biso   1.000  H
  H13      1.0000 0.63510  0.61220  0.13260  Biso   1.000  H
  H14      1.0000 0.13510  0.61220  0.36740  Biso   1.000  H
  H15      1.0000 0.63510  0.88780  0.13260  Biso   1.000  H
  H16      1.0000 0.86490  0.11220  0.63260  Biso   1.000  H
  C17      1.0000 0.39299  0.41725  0.55070  Biso   1.000  C
  C18      1.0000 0.89299  0.41725  0.94930  Biso   1.000  C
  C19      1.0000 0.39299  0.08275  0.55070  Biso   1.000  C
  C20      1.0000 0.10701  0.91725  0.05070  Biso   1.000  C
  C21      1.0000 0.60701  0.58275  0.44930  Biso   1.000  C
  C22      1.0000 0.10701  0.58275  0.05070  Biso   1.000  C
  C23      1.0000 0.60701  0.91725  0.44930  Biso   1.000  C
  C24      1.0000 0.89299  0.08275  0.94930  Biso   1.000  C
  C25      1.0000 0.47293  0.41183  0.37960  Biso   1.000  C
  C26      1.0000 0.97293  0.41183  0.12040  Biso   1.000  C
  C27      1.0000 0.47293  0.08817  0.37960  Biso   1.000  C
  C28      1.0000 0.02707  0.91183  0.87960  Biso   1.000  C
  C29      1.0000 0.52707  0.58817  0.62040  Biso   1.000  C
  C30      1.0000 0.02707  0.58817  0.87960  Biso   1.000  C
  C31      1.0000 0.52707  0.91183  0.62040  Biso   1.000  C
  C32      1.0000 0.97293  0.08817  0.12040  Biso   1.000  C
  H17      1.0000 0.46050  0.43610  0.24730  Biso   1.000  H
  H18      1.0000 0.96050  0.43610  0.25270  Biso   1.000  H
  H19      1.0000 0.46050  0.06390  0.24730  Biso   1.000  H
  H20      1.0000 0.03950  0.93610  0.74730  Biso   1.000  H
  H21      1.0000 0.53950  0.56390  0.75270  Biso   1.000  H
  H22      1.0000 0.03950  0.56390  0.74730  Biso   1.000  H
  H23      1.0000 0.53950  0.93610  0.75270  Biso   1.000  H
  H24      1.0000 0.96050  0.06390  0.25270  Biso   1.000  H
  C33      1.0000 0.57195  0.36962  0.40850  Biso   1.000  C
  C34      1.0000 0.07195  0.36962  0.09150  Biso   1.000  C
  C35      1.0000 0.57195  0.13038  0.40850  Biso   1.000  C
  C36      1.0000 0.92805  0.86962  0.90850  Biso   1.000  C
  C37      1.0000 0.42805  0.63038  0.59150  Biso   1.000  C
  C38      1.0000 0.92805  0.63038  0.90850  Biso   1.000  C
  C39      1.0000 0.42805  0.86962  0.59150  Biso   1.000  C
  C40      1.0000 0.07195  0.13038  0.09150  Biso   1.000  C
  H25      1.0000 0.62660  0.36530  0.29180  Biso   1.000  H
  H26      1.0000 0.12660  0.36530  0.20820  Biso   1.000  H
  H27      1.0000 0.62660  0.13470  0.29180  Biso   1.000  H
  H28      1.0000 0.87340  0.86530  0.79180  Biso   1.000  H
  H29      1.0000 0.37340  0.63470  0.70820  Biso   1.000  H
  H30      1.0000 0.87340  0.63470  0.79180  Biso   1.000  H
  H31      1.0000 0.37340  0.86530  0.70820  Biso   1.000  H
  H32      1.0000 0.12660  0.13470  0.20820  Biso   1.000  H
  C41      1.0000 0.28199  0.45445  0.52780  Biso   1.000  C
  C42      1.0000 0.78199  0.45445  0.97220  Biso   1.000  C
  C43      1.0000 0.28199  0.04555  0.52780  Biso   1.000  C
  C44      1.0000 0.21801  0.95445  0.02780  Biso   1.000  C
  C45      1.0000 0.71801  0.54555  0.47220  Biso   1.000  C
  C46      1.0000 0.21801  0.54555  0.02780  Biso   1.000  C
  C47      1.0000 0.71801  0.95445  0.47220  Biso   1.000  C
  C48      1.0000 0.78199  0.04555  0.97220  Biso   1.000  C
  N9       1.0000 0.19184  0.48146  0.51250  Biso   1.000  N
  N10      1.0000 0.69184  0.48146  0.98750  Biso   1.000  N
  N11      1.0000 0.19184  0.01854  0.51250  Biso   1.000  N
  N12      1.0000 0.30816  0.98146  0.01250  Biso   1.000  N
  N13      1.0000 0.80816  0.51854  0.48750  Biso   1.000  N
  N14      1.0000 0.30816  0.51854  0.01250  Biso   1.000  N
  N15      1.0000 0.80816  0.98146  0.48750  Biso   1.000  N
  N16      1.0000 0.69184  0.01854  0.98750  Biso   1.000  N
  S1       1.0000 0.85087  0.25000  0.35256  Biso   1.000  S
  S2       1.0000 0.35087  0.25000  0.14744  Biso   1.000  S
  S3       1.0000 0.64913  0.75000  0.85256  Biso   1.000  S
  S4       1.0000 0.14913  0.75000  0.64744  Biso   1.000  S
  C49      1.0000 0.78964  0.25000  0.10690  Biso   1.000  C
  C50      1.0000 0.28964  0.25000  0.39310  Biso   1.000  C
  C51      1.0000 0.71036  0.75000  0.60690  Biso   1.000  C
  C52      1.0000 0.21036  0.75000  0.89310  Biso   1.000  C
  N17      1.0000 0.75351  0.25000  0.93110  Biso   1.000  N
  N18      1.0000 0.25351  0.25000  0.56890  Biso   1.000  N
  N19      1.0000 0.74649  0.75000  0.43110  Biso   1.000  N
  N20      1.0000 0.24649  0.75000  0.06890  Biso   1.000  N
