data_image0
_cell_length_a       19.8748
_cell_length_b       20.5533
_cell_length_c       6.1422
_cell_angle_alpha    90
_cell_angle_beta     90
_cell_angle_gamma    90

_symmetry_space_group_name_H-M    "P 1"
_symmetry_int_tables_number       1

loop_
  _symmetry_equiv_pos_as_xyz
  'x, y, z'

loop_
  _atom_site_label
  _atom_site_occupancy
  _atom_site_fract_x
  _atom_site_fract_y
  _atom_site_fract_z
  _atom_site_thermal_displace_type
  _atom_site_B_iso_or_equiv
  _atom_site_type_symbol
  Sn1      1.0000 0.29320  0.25000  0.79100  Biso   1.000  Sn
  Sn2      1.0000 0.20680  0.75000  0.29100  Biso   1.000  Sn
  Sn3      1.0000 0.79320  0.25000  0.70900  Biso   1.000  Sn
  Sn4      1.0000 0.70680  0.75000  0.20900  Biso   1.000  Sn
  Cu1      1.0000 0.53560  0.25000  0.41700  Biso   1.000  Cu
  Cu2      1.0000 0.96440  0.75000  0.91700  Biso   1.000  Cu
  Cu3      1.0000 0.03560  0.25000  0.08300  Biso   1.000  Cu
  Cu4      1.0000 0.46440  0.75000  0.58300  Biso   1.000  Cu
  O1       1.0000 0.38230  0.01570  0.84100  Biso   1.000  O
  O2       1.0000 0.11770  0.98430  0.34100  Biso   1.000  O
  O3       1.0000 0.88230  0.48430  0.65900  Biso   1.000  O
  O4       1.0000 0.61770  0.51570  0.15900  Biso   1.000  O
  O5       1.0000 0.61770  0.98430  0.15900  Biso   1.000  O
  O6       1.0000 0.88230  0.01570  0.65900  Biso   1.000  O
  O7       1.0000 0.11770  0.51570  0.34100  Biso   1.000  O
  O8       1.0000 0.38230  0.48430  0.84100  Biso   1.000  O
  C1       1.0000 0.45260  0.25000  0.57700  Biso   1.000  C
  C2       1.0000 0.04740  0.75000  0.07700  Biso   1.000  C
  C3       1.0000 0.95260  0.25000  0.92300  Biso   1.000  C
  C4       1.0000 0.54740  0.75000  0.42300  Biso   1.000  C
  C5       1.0000 0.12690  0.25000  0.99000  Biso   1.000  C
  C6       1.0000 0.37310  0.75000  0.49000  Biso   1.000  C
  C7       1.0000 0.62690  0.25000  0.51000  Biso   1.000  C
  C8       1.0000 0.87310  0.75000  0.01000  Biso   1.000  C
  N1       1.0000 0.40080  0.25000  0.66200  Biso   1.000  N
  N2       1.0000 0.09920  0.75000  0.16200  Biso   1.000  N
  N3       1.0000 0.90080  0.25000  0.83800  Biso   1.000  N
  N4       1.0000 0.59920  0.75000  0.33800  Biso   1.000  N
  N5       1.0000 0.52250  0.17230  0.17700  Biso   1.000  N
  N6       1.0000 0.97750  0.82770  0.67700  Biso   1.000  N
  N7       1.0000 0.02250  0.32770  0.32300  Biso   1.000  N
  N8       1.0000 0.47750  0.67230  0.82300  Biso   1.000  N
  N9       1.0000 0.47750  0.82770  0.82300  Biso   1.000  N
  N10      1.0000 0.02250  0.17230  0.32300  Biso   1.000  N
  N11      1.0000 0.97750  0.67230  0.67700  Biso   1.000  N
  N12      1.0000 0.52250  0.32770  0.17700  Biso   1.000  N
  C9       1.0000 0.45370  0.09000  0.00500  Biso   1.000  C
  C10      1.0000 0.04630  0.91000  0.50500  Biso   1.000  C
  C11      1.0000 0.95370  0.41000  0.49500  Biso   1.000  C
  C12      1.0000 0.54630  0.59000  0.99500  Biso   1.000  C
  C13      1.0000 0.54630  0.91000  0.99500  Biso   1.000  C
  C14      1.0000 0.95370  0.09000  0.49500  Biso   1.000  C
  C15      1.0000 0.04630  0.59000  0.50500  Biso   1.000  C
  C16      1.0000 0.45370  0.41000  0.00500  Biso   1.000  C
  C17      1.0000 0.46780  0.13510  0.17200  Biso   1.000  C
  C18      1.0000 0.03220  0.86490  0.67200  Biso   1.000  C
  C19      1.0000 0.96780  0.36490  0.32800  Biso   1.000  C
  C20      1.0000 0.53220  0.63510  0.82800  Biso   1.000  C
  C21      1.0000 0.53220  0.86490  0.82800  Biso   1.000  C
  C22      1.0000 0.96780  0.13510  0.32800  Biso   1.000  C
  C23      1.0000 0.03220  0.63510  0.67200  Biso   1.000  C
  C24      1.0000 0.46780  0.36490  0.17200  Biso   1.000  C
  O9       1.0000 0.35100  0.05490  0.16600  Biso   1.000  O
  O10      1.0000 0.14900  0.94510  0.66600  Biso   1.000  O
  O11      1.0000 0.85100  0.44510  0.33400  Biso   1.000  O
  O12      1.0000 0.64900  0.55490  0.83400  Biso   1.000  O
  O13      1.0000 0.64900  0.94510  0.83400  Biso   1.000  O
  O14      1.0000 0.85100  0.05490  0.33400  Biso   1.000  O
  O15      1.0000 0.14900  0.55490  0.66600  Biso   1.000  O
  O16      1.0000 0.35100  0.44510  0.16600  Biso   1.000  O
  C25      1.0000 0.39030  0.05300  0.01900  Biso   1.000  C
  C26      1.0000 0.10970  0.94700  0.51900  Biso   1.000  C
  C27      1.0000 0.89030  0.44700  0.48100  Biso   1.000  C
  C28      1.0000 0.60970  0.55300  0.98100  Biso   1.000  C
  C29      1.0000 0.60970  0.94700  0.98100  Biso   1.000  C
  C30      1.0000 0.89030  0.05300  0.48100  Biso   1.000  C
  C31      1.0000 0.10970  0.55300  0.51900  Biso   1.000  C
  C32      1.0000 0.39030  0.44700  0.01900  Biso   1.000  C
  N13      1.0000 0.18120  0.25000  0.92400  Biso   1.000  N
  N14      1.0000 0.31880  0.75000  0.42400  Biso   1.000  N
  N15      1.0000 0.68120  0.25000  0.57600  Biso   1.000  N
  N16      1.0000 0.81880  0.75000  0.07600  Biso   1.000  N
  C33      1.0000 0.49870  0.08630  0.83800  Biso   1.000  C
  C34      1.0000 0.00130  0.91370  0.33800  Biso   1.000  C
  C35      1.0000 0.99870  0.41370  0.66200  Biso   1.000  C
  C36      1.0000 0.50130  0.58630  0.16200  Biso   1.000  C
  C37      1.0000 0.50130  0.91370  0.16200  Biso   1.000  C
  C38      1.0000 0.99870  0.08630  0.66200  Biso   1.000  C
  C39      1.0000 0.00130  0.58630  0.33800  Biso   1.000  C
  C40      1.0000 0.49870  0.41370  0.83800  Biso   1.000  C
  C41      1.0000 0.56600  0.16570  0.01500  Biso   1.000  C
  C42      1.0000 0.93400  0.83430  0.51500  Biso   1.000  C
  C43      1.0000 0.06600  0.33430  0.48500  Biso   1.000  C
  C44      1.0000 0.43400  0.66570  0.98500  Biso   1.000  C
  C45      1.0000 0.43400  0.83430  0.98500  Biso   1.000  C
  C46      1.0000 0.06600  0.16570  0.48500  Biso   1.000  C
  C47      1.0000 0.93400  0.66570  0.51500  Biso   1.000  C
  C48      1.0000 0.56600  0.33430  0.01500  Biso   1.000  C
  C49      1.0000 0.55660  0.12330  0.84100  Biso   1.000  C
  C50      1.0000 0.94340  0.87670  0.34100  Biso   1.000  C
  C51      1.0000 0.05660  0.37670  0.65900  Biso   1.000  C
  C52      1.0000 0.44340  0.62330  0.15900  Biso   1.000  C
  C53      1.0000 0.44340  0.87670  0.15900  Biso   1.000  C
  C54      1.0000 0.05660  0.12330  0.65900  Biso   1.000  C
  C55      1.0000 0.94340  0.62330  0.34100  Biso   1.000  C
  C56      1.0000 0.55660  0.37670  0.84100  Biso   1.000  C
  C57      1.0000 0.32090  0.97720  0.82800  Biso   1.000  C
  C58      1.0000 0.17910  0.02280  0.32800  Biso   1.000  C
  C59      1.0000 0.82090  0.52280  0.67200  Biso   1.000  C
  C60      1.0000 0.67910  0.47720  0.17200  Biso   1.000  C
  C61      1.0000 0.67910  0.02280  0.17200  Biso   1.000  C
  C62      1.0000 0.82090  0.97720  0.67200  Biso   1.000  C
  C63      1.0000 0.17910  0.47720  0.32800  Biso   1.000  C
  C64      1.0000 0.32090  0.52280  0.82800  Biso   1.000  C
  C65      1.0000 0.32870  0.25000  0.11100  Biso   1.000  C
  C66      1.0000 0.17130  0.75000  0.61100  Biso   1.000  C
  C67      1.0000 0.82870  0.25000  0.38900  Biso   1.000  C
  C68      1.0000 0.67130  0.75000  0.88900  Biso   1.000  C
  C69      1.0000 0.27220  0.16030  0.63700  Biso   1.000  C
  C70      1.0000 0.22780  0.83970  0.13700  Biso   1.000  C
  C71      1.0000 0.77220  0.33970  0.86300  Biso   1.000  C
  C72      1.0000 0.72780  0.66030  0.36300  Biso   1.000  C
  C73      1.0000 0.72780  0.83970  0.36300  Biso   1.000  C
  C74      1.0000 0.77220  0.16030  0.86300  Biso   1.000  C
  C75      1.0000 0.22780  0.66030  0.13700  Biso   1.000  C
  C76      1.0000 0.27220  0.33970  0.63700  Biso   1.000  C
  C77      1.0000 0.32720  0.93440  0.63400  Biso   1.000  C
  C78      1.0000 0.17280  0.06560  0.13400  Biso   1.000  C
  C79      1.0000 0.82720  0.56560  0.86600  Biso   1.000  C
  C80      1.0000 0.67280  0.43440  0.36600  Biso   1.000  C
  C81      1.0000 0.67280  0.06560  0.36600  Biso   1.000  C
  C82      1.0000 0.82720  0.93440  0.86600  Biso   1.000  C
  C83      1.0000 0.17280  0.43440  0.13400  Biso   1.000  C
  C84      1.0000 0.32720  0.56560  0.63400  Biso   1.000  C
  H1       1.0000 0.43568  0.13780  0.28860  Biso   1.000  H
  H2       1.0000 0.06432  0.86220  0.78860  Biso   1.000  H
  H3       1.0000 0.93568  0.36220  0.21140  Biso   1.000  H
  H4       1.0000 0.56432  0.63780  0.71140  Biso   1.000  H
  H5       1.0000 0.56432  0.86220  0.71140  Biso   1.000  H
  H6       1.0000 0.93568  0.13780  0.21140  Biso   1.000  H
  H7       1.0000 0.06432  0.63780  0.78860  Biso   1.000  H
  H8       1.0000 0.43568  0.36220  0.28860  Biso   1.000  H
  H9       1.0000 0.48992  0.05622  0.72126  Biso   1.000  H
  H10      1.0000 0.01008  0.94378  0.22126  Biso   1.000  H
  H11      1.0000 0.98992  0.44378  0.77874  Biso   1.000  H
  H12      1.0000 0.51008  0.55622  0.27874  Biso   1.000  H
  H13      1.0000 0.51008  0.94378  0.27874  Biso   1.000  H
  H14      1.0000 0.98992  0.05622  0.77874  Biso   1.000  H
  H15      1.0000 0.01008  0.55622  0.22126  Biso   1.000  H
  H16      1.0000 0.48992  0.44378  0.72126  Biso   1.000  H
  H17      1.0000 0.60630  0.19138  0.01343  Biso   1.000  H
  H18      1.0000 0.89370  0.80862  0.51343  Biso   1.000  H
  H19      1.0000 0.10630  0.30862  0.48657  Biso   1.000  H
  H20      1.0000 0.39370  0.69138  0.98657  Biso   1.000  H
  H21      1.0000 0.39370  0.80862  0.98657  Biso   1.000  H
  H22      1.0000 0.10630  0.19138  0.48657  Biso   1.000  H
  H23      1.0000 0.89370  0.69138  0.51343  Biso   1.000  H
  H24      1.0000 0.60630  0.30862  0.01343  Biso   1.000  H
  H25      1.0000 0.58907  0.12050  0.72598  Biso   1.000  H
  H26      1.0000 0.91093  0.87950  0.22598  Biso   1.000  H
  H27      1.0000 0.08907  0.37950  0.77402  Biso   1.000  H
  H28      1.0000 0.41093  0.62050  0.27402  Biso   1.000  H
  H29      1.0000 0.41093  0.87950  0.27402  Biso   1.000  H
  H30      1.0000 0.08907  0.12050  0.77402  Biso   1.000  H
  H31      1.0000 0.91093  0.62050  0.22598  Biso   1.000  H
  H32      1.0000 0.58907  0.37950  0.72598  Biso   1.000  H
  H33      1.0000 0.31804  0.95048  0.95591  Biso   1.000  H
  H34      1.0000 0.18196  0.04952  0.45591  Biso   1.000  H
  H35      1.0000 0.81804  0.54952  0.54409  Biso   1.000  H
  H36      1.0000 0.68196  0.45048  0.04409  Biso   1.000  H
  H37      1.0000 0.68196  0.04952  0.04409  Biso   1.000  H
  H38      1.0000 0.81804  0.95048  0.54409  Biso   1.000  H
  H39      1.0000 0.18196  0.45048  0.45591  Biso   1.000  H
  H40      1.0000 0.31804  0.54952  0.95591  Biso   1.000  H
  H41      1.0000 0.28225  0.00508  0.82042  Biso   1.000  H
  H42      1.0000 0.21775  0.99492  0.32042  Biso   1.000  H
  H43      1.0000 0.78225  0.49492  0.67958  Biso   1.000  H
  H44      1.0000 0.71775  0.50508  0.17958  Biso   1.000  H
  H45      1.0000 0.71775  0.99492  0.17958  Biso   1.000  H
  H46      1.0000 0.78225  0.00508  0.67958  Biso   1.000  H
  H47      1.0000 0.21775  0.50508  0.32042  Biso   1.000  H
  H48      1.0000 0.28225  0.49492  0.82042  Biso   1.000  H
  H49      1.0000 0.28812  0.90728  0.61954  Biso   1.000  H
  H50      1.0000 0.21188  0.09272  0.11954  Biso   1.000  H
  H51      1.0000 0.78812  0.59272  0.88046  Biso   1.000  H
  H52      1.0000 0.71188  0.40728  0.38046  Biso   1.000  H
  H53      1.0000 0.71188  0.09272  0.38046  Biso   1.000  H
  H54      1.0000 0.78812  0.90728  0.88046  Biso   1.000  H
  H55      1.0000 0.21188  0.40728  0.11954  Biso   1.000  H
  H56      1.0000 0.28812  0.59272  0.61954  Biso   1.000  H
  H57      1.0000 0.36662  0.90757  0.64418  Biso   1.000  H
  H58      1.0000 0.13338  0.09243  0.14418  Biso   1.000  H
  H59      1.0000 0.86662  0.59243  0.85582  Biso   1.000  H
  H60      1.0000 0.63338  0.40757  0.35582  Biso   1.000  H
  H61      1.0000 0.63338  0.09243  0.35582  Biso   1.000  H
  H62      1.0000 0.86662  0.90757  0.85582  Biso   1.000  H
  H63      1.0000 0.13338  0.40757  0.14418  Biso   1.000  H
  H64      1.0000 0.36662  0.59243  0.64418  Biso   1.000  H
  H65      1.0000 0.33084  0.96217  0.50869  Biso   1.000  H
  H66      1.0000 0.16916  0.03783  0.00869  Biso   1.000  H
  H67      1.0000 0.83084  0.53783  0.99131  Biso   1.000  H
  H68      1.0000 0.66916  0.46217  0.49131  Biso   1.000  H
  H69      1.0000 0.66916  0.03783  0.49131  Biso   1.000  H
  H70      1.0000 0.83084  0.96217  0.99131  Biso   1.000  H
  H71      1.0000 0.16916  0.46217  0.00869  Biso   1.000  H
  H72      1.0000 0.33084  0.53783  0.50869  Biso   1.000  H
  H73      1.0000 0.22643  0.14782  0.66507  Biso   1.000  H
  H74      1.0000 0.27357  0.85218  0.16507  Biso   1.000  H
  H75      1.0000 0.72643  0.35218  0.83493  Biso   1.000  H
  H76      1.0000 0.77357  0.64782  0.33493  Biso   1.000  H
  H77      1.0000 0.77357  0.85218  0.33493  Biso   1.000  H
  H78      1.0000 0.72643  0.14782  0.83493  Biso   1.000  H
  H79      1.0000 0.27357  0.64782  0.16507  Biso   1.000  H
  H80      1.0000 0.22643  0.35218  0.66507  Biso   1.000  H
  H81      1.0000 0.30198  0.12734  0.69116  Biso   1.000  H
  H82      1.0000 0.19802  0.87266  0.19116  Biso   1.000  H
  H83      1.0000 0.80198  0.37266  0.80884  Biso   1.000  H
  H84      1.0000 0.69802  0.62734  0.30884  Biso   1.000  H
  H85      1.0000 0.69802  0.87266  0.30884  Biso   1.000  H
  H86      1.0000 0.80198  0.12734  0.80884  Biso   1.000  H
  H87      1.0000 0.19802  0.62734  0.19116  Biso   1.000  H
  H88      1.0000 0.30198  0.37266  0.69116  Biso   1.000  H
  H89      1.0000 0.27863  0.16515  0.48275  Biso   1.000  H
  H90      1.0000 0.22137  0.83485  0.98275  Biso   1.000  H
  H91      1.0000 0.77863  0.33485  0.01725  Biso   1.000  H
  H92      1.0000 0.72137  0.66515  0.51725  Biso   1.000  H
  H93      1.0000 0.72137  0.83485  0.51725  Biso   1.000  H
  H94      1.0000 0.77863  0.16515  0.01725  Biso   1.000  H
  H95      1.0000 0.22137  0.66515  0.98275  Biso   1.000  H
  H96      1.0000 0.27863  0.33485  0.48275  Biso   1.000  H
  H97      1.0000 0.29173  0.25000  0.21165  Biso   1.000  H
  H98      1.0000 0.20827  0.75000  0.71165  Biso   1.000  H
  H99      1.0000 0.79173  0.25000  0.28835  Biso   1.000  H
  H100     1.0000 0.70827  0.75000  0.78835  Biso   1.000  H
  H101     1.0000 0.35565  0.28814  0.13370  Biso   1.000  H
  H102     1.0000 0.14435  0.71186  0.63370  Biso   1.000  H
  H103     1.0000 0.85565  0.21186  0.36630  Biso   1.000  H
  H104     1.0000 0.64435  0.78814  0.86630  Biso   1.000  H
  H105     1.0000 0.64435  0.71186  0.86630  Biso   1.000  H
  H106     1.0000 0.85565  0.28814  0.36630  Biso   1.000  H
  H107     1.0000 0.14435  0.78814  0.63370  Biso   1.000  H
  H108     1.0000 0.35565  0.21186  0.13370  Biso   1.000  H
