data_image0
_cell_length_a       10.9272
_cell_length_b       19.0165
_cell_length_c       14.0948
_cell_angle_alpha    90
_cell_angle_beta     90
_cell_angle_gamma    90

_symmetry_space_group_name_H-M    "P 1"
_symmetry_int_tables_number       1

loop_
  _symmetry_equiv_pos_as_xyz
  'x, y, z'

loop_
  _atom_site_label
  _atom_site_occupancy
  _atom_site_fract_x
  _atom_site_fract_y
  _atom_site_fract_z
  _atom_site_thermal_displace_type
  _atom_site_B_iso_or_equiv
  _atom_site_type_symbol
  Sn1      1.0000 0.25000  0.00000  0.21020  Biso   1.000  Sn
  Sn2      1.0000 0.25000  0.50000  0.28980  Biso   1.000  Sn
  Sn3      1.0000 0.75000  0.00000  0.78980  Biso   1.000  Sn
  Sn4      1.0000 0.75000  0.50000  0.71020  Biso   1.000  Sn
  Cu1      1.0000 0.47290  0.25000  0.25000  Biso   1.000  Cu
  Cu2      1.0000 0.02710  0.75000  0.25000  Biso   1.000  Cu
  Cu3      1.0000 0.52710  0.75000  0.75000  Biso   1.000  Cu
  Cu4      1.0000 0.97290  0.25000  0.75000  Biso   1.000  Cu
  C1       1.0000 0.25000  0.00000  0.05910  Biso   1.000  C
  C2       1.0000 0.25000  0.50000  0.44090  Biso   1.000  C
  C3       1.0000 0.75000  0.00000  0.94090  Biso   1.000  C
  C4       1.0000 0.75000  0.50000  0.55910  Biso   1.000  C
  N1       1.0000 0.60030  0.26430  0.13630  Biso   1.000  N
  N2       1.0000 0.89970  0.73570  0.13630  Biso   1.000  N
  N3       1.0000 0.60030  0.23570  0.36370  Biso   1.000  N
  N4       1.0000 0.89970  0.76430  0.36370  Biso   1.000  N
  N5       1.0000 0.39970  0.73570  0.86370  Biso   1.000  N
  N6       1.0000 0.10030  0.26430  0.86370  Biso   1.000  N
  N7       1.0000 0.39970  0.76430  0.63630  Biso   1.000  N
  N8       1.0000 0.10030  0.23570  0.63630  Biso   1.000  N
  C5       1.0000 0.69520  0.22080  0.12280  Biso   1.000  C
  C6       1.0000 0.80480  0.77920  0.12280  Biso   1.000  C
  C7       1.0000 0.69520  0.27920  0.37720  Biso   1.000  C
  C8       1.0000 0.80480  0.72080  0.37720  Biso   1.000  C
  C9       1.0000 0.30480  0.77920  0.87720  Biso   1.000  C
  C10      1.0000 0.19520  0.22080  0.87720  Biso   1.000  C
  C11      1.0000 0.30480  0.72080  0.62280  Biso   1.000  C
  C12      1.0000 0.19520  0.27920  0.62280  Biso   1.000  C
  N9       1.0000 0.34330  0.10850  0.21900  Biso   1.000  N
  N10      1.0000 0.15670  0.89150  0.21900  Biso   1.000  N
  N11      1.0000 0.34330  0.39150  0.28100  Biso   1.000  N
  N12      1.0000 0.15670  0.60850  0.28100  Biso   1.000  N
  N13      1.0000 0.65670  0.89150  0.78100  Biso   1.000  N
  N14      1.0000 0.84330  0.10850  0.78100  Biso   1.000  N
  N15      1.0000 0.65670  0.60850  0.71900  Biso   1.000  N
  N16      1.0000 0.84330  0.39150  0.71900  Biso   1.000  N
  C13      1.0000 0.39200  0.16090  0.23060  Biso   1.000  C
  C14      1.0000 0.10800  0.83910  0.23060  Biso   1.000  C
  C15      1.0000 0.39200  0.33910  0.26940  Biso   1.000  C
  C16      1.0000 0.10800  0.66090  0.26940  Biso   1.000  C
  C17      1.0000 0.60800  0.83910  0.76940  Biso   1.000  C
  C18      1.0000 0.89200  0.16090  0.76940  Biso   1.000  C
  C19      1.0000 0.60800  0.66090  0.73060  Biso   1.000  C
  C20      1.0000 0.89200  0.33910  0.73060  Biso   1.000  C
  C21      1.0000 0.77050  0.22100  0.04310  Biso   1.000  C
  C22      1.0000 0.72950  0.77900  0.04310  Biso   1.000  C
  C23      1.0000 0.77050  0.27900  0.45690  Biso   1.000  C
  C24      1.0000 0.72950  0.72100  0.45690  Biso   1.000  C
  C25      1.0000 0.22950  0.77900  0.95690  Biso   1.000  C
  C26      1.0000 0.27050  0.22100  0.95690  Biso   1.000  C
  C27      1.0000 0.22950  0.72100  0.54310  Biso   1.000  C
  C28      1.0000 0.27050  0.27900  0.54310  Biso   1.000  C
  C29      1.0000 0.74320  0.26950  0.97310  Biso   1.000  C
  C30      1.0000 0.75680  0.73050  0.97310  Biso   1.000  C
  C31      1.0000 0.74320  0.23050  0.52690  Biso   1.000  C
  C32      1.0000 0.75680  0.76950  0.52690  Biso   1.000  C
  C33      1.0000 0.25680  0.73050  0.02690  Biso   1.000  C
  C34      1.0000 0.24320  0.26950  0.02690  Biso   1.000  C
  C35      1.0000 0.25680  0.76950  0.47310  Biso   1.000  C
  C36      1.0000 0.24320  0.23050  0.47310  Biso   1.000  C
  C37      1.0000 0.44700  0.88910  0.25310  Biso   1.000  C
  C38      1.0000 0.05300  0.11090  0.25310  Biso   1.000  C
  C39      1.0000 0.44700  0.61090  0.24690  Biso   1.000  C
  C40      1.0000 0.05300  0.38910  0.24690  Biso   1.000  C
  C41      1.0000 0.55300  0.11090  0.74690  Biso   1.000  C
  C42      1.0000 0.94700  0.88910  0.74690  Biso   1.000  C
  C43      1.0000 0.55300  0.38910  0.75310  Biso   1.000  C
  C44      1.0000 0.94700  0.61090  0.75310  Biso   1.000  C
  C45      1.0000 0.57900  0.31140  0.06760  Biso   1.000  C
  C46      1.0000 0.92100  0.68860  0.06760  Biso   1.000  C
  C47      1.0000 0.57900  0.18860  0.43240  Biso   1.000  C
  C48      1.0000 0.92100  0.81140  0.43240  Biso   1.000  C
  C49      1.0000 0.42100  0.68860  0.93240  Biso   1.000  C
  C50      1.0000 0.07900  0.31140  0.93240  Biso   1.000  C
  C51      1.0000 0.42100  0.81140  0.56760  Biso   1.000  C
  C52      1.0000 0.07900  0.18860  0.56760  Biso   1.000  C
  C53      1.0000 0.64720  0.31570  0.98550  Biso   1.000  C
  C54      1.0000 0.85280  0.68430  0.98550  Biso   1.000  C
  C55      1.0000 0.64720  0.18430  0.51450  Biso   1.000  C
  C56      1.0000 0.85280  0.81570  0.51450  Biso   1.000  C
  C57      1.0000 0.35280  0.68430  0.01450  Biso   1.000  C
  C58      1.0000 0.14720  0.31570  0.01450  Biso   1.000  C
  C59      1.0000 0.35280  0.81570  0.48550  Biso   1.000  C
  C60      1.0000 0.14720  0.18430  0.48550  Biso   1.000  C
  C61      1.0000 0.55330  0.86150  0.29380  Biso   1.000  C
  C62      1.0000 0.94670  0.13850  0.29380  Biso   1.000  C
  C63      1.0000 0.55330  0.63850  0.20620  Biso   1.000  C
  C64      1.0000 0.94670  0.36150  0.20620  Biso   1.000  C
  C65      1.0000 0.44670  0.13850  0.70620  Biso   1.000  C
  C66      1.0000 0.05330  0.86150  0.70620  Biso   1.000  C
  C67      1.0000 0.44670  0.36150  0.79380  Biso   1.000  C
  C68      1.0000 0.05330  0.63850  0.79380  Biso   1.000  C
  C69      1.0000 0.25000  0.00000  0.86110  Biso   1.000  C
  C70      1.0000 0.25000  0.50000  0.63890  Biso   1.000  C
  C71      1.0000 0.75000  0.00000  0.13890  Biso   1.000  C
  C72      1.0000 0.75000  0.50000  0.36110  Biso   1.000  C
  C73      1.0000 0.40610  0.95570  0.27820  Biso   1.000  C
  C74      1.0000 0.09390  0.04430  0.27820  Biso   1.000  C
  C75      1.0000 0.40610  0.54430  0.22180  Biso   1.000  C
  C76      1.0000 0.09390  0.45570  0.22180  Biso   1.000  C
  C77      1.0000 0.59390  0.04430  0.72180  Biso   1.000  C
  C78      1.0000 0.90610  0.95570  0.72180  Biso   1.000  C
  C79      1.0000 0.59390  0.45570  0.77820  Biso   1.000  C
  C80      1.0000 0.90610  0.54430  0.77820  Biso   1.000  C
  C81      1.0000 0.87720  0.17150  0.03580  Biso   1.000  C
  C82      1.0000 0.62280  0.82850  0.03580  Biso   1.000  C
  C83      1.0000 0.87720  0.32850  0.46420  Biso   1.000  C
  C84      1.0000 0.62280  0.67150  0.46420  Biso   1.000  C
  C85      1.0000 0.12280  0.82850  0.96420  Biso   1.000  C
  C86      1.0000 0.37720  0.17150  0.96420  Biso   1.000  C
  C87      1.0000 0.12280  0.67150  0.53580  Biso   1.000  C
  C88      1.0000 0.37720  0.32850  0.53580  Biso   1.000  C
  C89      1.0000 0.15520  0.03040  0.90960  Biso   1.000  C
  C90      1.0000 0.34480  0.96960  0.90960  Biso   1.000  C
  C91      1.0000 0.15520  0.46960  0.59040  Biso   1.000  C
  C92      1.0000 0.34480  0.53040  0.59040  Biso   1.000  C
  C93      1.0000 0.84480  0.96960  0.09040  Biso   1.000  C
  C94      1.0000 0.65520  0.03040  0.09040  Biso   1.000  C
  C95      1.0000 0.84480  0.53040  0.40960  Biso   1.000  C
  C96      1.0000 0.65520  0.46960  0.40960  Biso   1.000  C
  C97      1.0000 0.15490  0.03060  0.00900  Biso   1.000  C
  C98      1.0000 0.34510  0.96940  0.00900  Biso   1.000  C
  C99      1.0000 0.15490  0.46940  0.49100  Biso   1.000  C
  C100     1.0000 0.34510  0.53060  0.49100  Biso   1.000  C
  C101     1.0000 0.84510  0.96940  0.99100  Biso   1.000  C
  C102     1.0000 0.65490  0.03060  0.99100  Biso   1.000  C
  C103     1.0000 0.84510  0.53060  0.50900  Biso   1.000  C
  C104     1.0000 0.65490  0.46940  0.50900  Biso   1.000  C
  C105     1.0000 0.47260  0.99280  0.34490  Biso   1.000  C
  C106     1.0000 0.02740  0.00720  0.34490  Biso   1.000  C
  C107     1.0000 0.47260  0.50720  0.15510  Biso   1.000  C
  C108     1.0000 0.02740  0.49280  0.15510  Biso   1.000  C
  C109     1.0000 0.52740  0.00720  0.65510  Biso   1.000  C
  C110     1.0000 0.97260  0.99280  0.65510  Biso   1.000  C
  C111     1.0000 0.52740  0.49280  0.84490  Biso   1.000  C
  C112     1.0000 0.97260  0.50720  0.84490  Biso   1.000  C
  C113     1.0000 0.61790  0.89950  0.35810  Biso   1.000  C
  C114     1.0000 0.88210  0.10050  0.35810  Biso   1.000  C
  C115     1.0000 0.61790  0.60050  0.14190  Biso   1.000  C
  C116     1.0000 0.88210  0.39950  0.14190  Biso   1.000  C
  C117     1.0000 0.38210  0.10050  0.64190  Biso   1.000  C
  C118     1.0000 0.11790  0.89950  0.64190  Biso   1.000  C
  C119     1.0000 0.38210  0.39950  0.85810  Biso   1.000  C
  C120     1.0000 0.11790  0.60050  0.85810  Biso   1.000  C
  C121     1.0000 0.57720  0.96400  0.38510  Biso   1.000  C
  C122     1.0000 0.92280  0.03600  0.38510  Biso   1.000  C
  C123     1.0000 0.57720  0.53600  0.11490  Biso   1.000  C
  C124     1.0000 0.92280  0.46400  0.11490  Biso   1.000  C
  C125     1.0000 0.42280  0.03600  0.61490  Biso   1.000  C
  C126     1.0000 0.07720  0.96400  0.61490  Biso   1.000  C
  C127     1.0000 0.42280  0.46400  0.88510  Biso   1.000  C
  C128     1.0000 0.07720  0.53600  0.88510  Biso   1.000  C
  H1       1.0000 0.71433  0.18633  0.17037  Biso   1.000  H
  H2       1.0000 0.78567  0.81367  0.17037  Biso   1.000  H
  H3       1.0000 0.71433  0.31367  0.32963  Biso   1.000  H
  H4       1.0000 0.78567  0.68633  0.32963  Biso   1.000  H
  H5       1.0000 0.28567  0.81367  0.82963  Biso   1.000  H
  H6       1.0000 0.21433  0.18633  0.82963  Biso   1.000  H
  H7       1.0000 0.28567  0.68633  0.67037  Biso   1.000  H
  H8       1.0000 0.21433  0.31367  0.67037  Biso   1.000  H
  H9       1.0000 0.79333  0.27088  0.91720  Biso   1.000  H
  H10      1.0000 0.70667  0.72912  0.91720  Biso   1.000  H
  H11      1.0000 0.79333  0.22912  0.58280  Biso   1.000  H
  H12      1.0000 0.70667  0.77088  0.58280  Biso   1.000  H
  H13      1.0000 0.20667  0.72912  0.08280  Biso   1.000  H
  H14      1.0000 0.29333  0.27088  0.08280  Biso   1.000  H
  H15      1.0000 0.20667  0.77088  0.41720  Biso   1.000  H
  H16      1.0000 0.29333  0.22912  0.41720  Biso   1.000  H
  H17      1.0000 0.40288  0.86139  0.20754  Biso   1.000  H
  H18      1.0000 0.09712  0.13861  0.20754  Biso   1.000  H
  H19      1.0000 0.40288  0.63861  0.29246  Biso   1.000  H
  H20      1.0000 0.09712  0.36139  0.29246  Biso   1.000  H
  H21      1.0000 0.59712  0.13861  0.79246  Biso   1.000  H
  H22      1.0000 0.90288  0.86139  0.79246  Biso   1.000  H
  H23      1.0000 0.59712  0.36139  0.70754  Biso   1.000  H
  H24      1.0000 0.90288  0.63861  0.70754  Biso   1.000  H
  H25      1.0000 0.51217  0.34374  0.07434  Biso   1.000  H
  H26      1.0000 0.98783  0.65626  0.07434  Biso   1.000  H
  H27      1.0000 0.51217  0.15626  0.42566  Biso   1.000  H
  H28      1.0000 0.98783  0.84374  0.42566  Biso   1.000  H
  H29      1.0000 0.48783  0.65626  0.92566  Biso   1.000  H
  H30      1.0000 0.01217  0.34374  0.92566  Biso   1.000  H
  H31      1.0000 0.48783  0.84374  0.57434  Biso   1.000  H
  H32      1.0000 0.01217  0.15626  0.57434  Biso   1.000  H
  H33      1.0000 0.62906  0.34993  0.93745  Biso   1.000  H
  H34      1.0000 0.87094  0.65007  0.93745  Biso   1.000  H
  H35      1.0000 0.62906  0.15007  0.56255  Biso   1.000  H
  H36      1.0000 0.87094  0.84993  0.56255  Biso   1.000  H
  H37      1.0000 0.37094  0.65007  0.06255  Biso   1.000  H
  H38      1.0000 0.12906  0.34993  0.06255  Biso   1.000  H
  H39      1.0000 0.37094  0.84993  0.43745  Biso   1.000  H
  H40      1.0000 0.12906  0.15007  0.43745  Biso   1.000  H
  H41      1.0000 0.58238  0.81559  0.27675  Biso   1.000  H
  H42      1.0000 0.91762  0.18441  0.27675  Biso   1.000  H
  H43      1.0000 0.58238  0.68441  0.22325  Biso   1.000  H
  H44      1.0000 0.91762  0.31559  0.22325  Biso   1.000  H
  H45      1.0000 0.41762  0.18441  0.72325  Biso   1.000  H
  H46      1.0000 0.08238  0.81559  0.72325  Biso   1.000  H
  H47      1.0000 0.41762  0.31559  0.77675  Biso   1.000  H
  H48      1.0000 0.08238  0.68441  0.77675  Biso   1.000  H
  H49      1.0000 0.25000  0.00000  0.79296  Biso   1.000  H
  H50      1.0000 0.25000  0.50000  0.70704  Biso   1.000  H
  H51      1.0000 0.75000  0.00000  0.20704  Biso   1.000  H
  H52      1.0000 0.75000  0.50000  0.29296  Biso   1.000  H
  H53      1.0000 0.91901  0.17916  0.97680  Biso   1.000  H
  H54      1.0000 0.58099  0.82084  0.97680  Biso   1.000  H
  H55      1.0000 0.91901  0.32084  0.52320  Biso   1.000  H
  H56      1.0000 0.58099  0.67916  0.52320  Biso   1.000  H
  H57      1.0000 0.08099  0.82084  0.02320  Biso   1.000  H
  H58      1.0000 0.41901  0.17916  0.02320  Biso   1.000  H
  H59      1.0000 0.08099  0.67916  0.47680  Biso   1.000  H
  H60      1.0000 0.41901  0.32084  0.47680  Biso   1.000  H
  H61      1.0000 0.84900  0.12379  0.03879  Biso   1.000  H
  H62      1.0000 0.65100  0.87621  0.03879  Biso   1.000  H
  H63      1.0000 0.84900  0.37621  0.46121  Biso   1.000  H
  H64      1.0000 0.65100  0.62379  0.46121  Biso   1.000  H
  H65      1.0000 0.15100  0.87621  0.96121  Biso   1.000  H
  H66      1.0000 0.34900  0.12379  0.96121  Biso   1.000  H
  H67      1.0000 0.15100  0.62379  0.53879  Biso   1.000  H
  H68      1.0000 0.34900  0.37621  0.53879  Biso   1.000  H
  H69      1.0000 0.93232  0.18034  0.08753  Biso   1.000  H
  H70      1.0000 0.56768  0.81966  0.08753  Biso   1.000  H
  H71      1.0000 0.93232  0.31966  0.41247  Biso   1.000  H
  H72      1.0000 0.56768  0.68034  0.41247  Biso   1.000  H
  H73      1.0000 0.06768  0.81966  0.91247  Biso   1.000  H
  H74      1.0000 0.43232  0.18034  0.91247  Biso   1.000  H
  H75      1.0000 0.06768  0.68034  0.58753  Biso   1.000  H
  H76      1.0000 0.43232  0.31966  0.58753  Biso   1.000  H
  H77      1.0000 0.08841  0.05059  0.87473  Biso   1.000  H
  H78      1.0000 0.41159  0.94941  0.87473  Biso   1.000  H
  H79      1.0000 0.08841  0.44941  0.62527  Biso   1.000  H
  H80      1.0000 0.41159  0.55059  0.62527  Biso   1.000  H
  H81      1.0000 0.91159  0.94941  0.12527  Biso   1.000  H
  H82      1.0000 0.58841  0.05059  0.12527  Biso   1.000  H
  H83      1.0000 0.91159  0.55059  0.37473  Biso   1.000  H
  H84      1.0000 0.58841  0.44941  0.37473  Biso   1.000  H
  H85      1.0000 0.08911  0.05257  0.04315  Biso   1.000  H
  H86      1.0000 0.41089  0.94743  0.04315  Biso   1.000  H
  H87      1.0000 0.08911  0.44743  0.45685  Biso   1.000  H
  H88      1.0000 0.41089  0.55257  0.45685  Biso   1.000  H
  H89      1.0000 0.91089  0.94743  0.95685  Biso   1.000  H
  H90      1.0000 0.58911  0.05257  0.95685  Biso   1.000  H
  H91      1.0000 0.91089  0.55257  0.54315  Biso   1.000  H
  H92      1.0000 0.58911  0.44743  0.54315  Biso   1.000  H
  H93      1.0000 0.44536  0.03887  0.36300  Biso   1.000  H
  H94      1.0000 0.05464  0.96113  0.36300  Biso   1.000  H
  H95      1.0000 0.44536  0.46113  0.13700  Biso   1.000  H
  H96      1.0000 0.05464  0.53887  0.13700  Biso   1.000  H
  H97      1.0000 0.55464  0.96113  0.63700  Biso   1.000  H
  H98      1.0000 0.94536  0.03887  0.63700  Biso   1.000  H
  H99      1.0000 0.55464  0.53887  0.86300  Biso   1.000  H
  H100     1.0000 0.94536  0.46113  0.86300  Biso   1.000  H
  H101     1.0000 0.69197  0.88089  0.38482  Biso   1.000  H
  H102     1.0000 0.80803  0.11911  0.38482  Biso   1.000  H
  H103     1.0000 0.69197  0.61911  0.11518  Biso   1.000  H
  H104     1.0000 0.80803  0.38089  0.11518  Biso   1.000  H
  H105     1.0000 0.30803  0.11911  0.61518  Biso   1.000  H
  H106     1.0000 0.19197  0.88089  0.61518  Biso   1.000  H
  H107     1.0000 0.30803  0.38089  0.88482  Biso   1.000  H
  H108     1.0000 0.19197  0.61911  0.88482  Biso   1.000  H
  H109     1.0000 0.62380  0.98853  0.43247  Biso   1.000  H
  H110     1.0000 0.87620  0.01147  0.43247  Biso   1.000  H
  H111     1.0000 0.62380  0.51147  0.06753  Biso   1.000  H
  H112     1.0000 0.87620  0.48853  0.06753  Biso   1.000  H
  H113     1.0000 0.37620  0.01147  0.56753  Biso   1.000  H
  H114     1.0000 0.12380  0.98853  0.56753  Biso   1.000  H
  H115     1.0000 0.37620  0.48853  0.93247  Biso   1.000  H
  H116     1.0000 0.12380  0.51147  0.93247  Biso   1.000  H
