data_image0
_cell_length_a       15.7005
_cell_length_b       8.0099
_cell_length_c       10.3633
_cell_angle_alpha    90
_cell_angle_beta     94.374
_cell_angle_gamma    90

_symmetry_space_group_name_H-M    "P 1"
_symmetry_int_tables_number       1

loop_
  _symmetry_equiv_pos_as_xyz
  'x, y, z'

loop_
  _atom_site_label
  _atom_site_occupancy
  _atom_site_fract_x
  _atom_site_fract_y
  _atom_site_fract_z
  _atom_site_thermal_displace_type
  _atom_site_B_iso_or_equiv
  _atom_site_type_symbol
  Cu1      1.0000 0.80092  0.32620  0.22590  Biso   1.000  Cu
  Cu2      1.0000 0.19908  0.82620  0.27410  Biso   1.000  Cu
  Cu3      1.0000 0.19908  0.67380  0.77410  Biso   1.000  Cu
  Cu4      1.0000 0.80092  0.17380  0.72590  Biso   1.000  Cu
  S1       1.0000 0.83249  0.44373  0.67184  Biso   1.000  S
  S2       1.0000 0.16751  0.94373  0.82816  Biso   1.000  S
  S3       1.0000 0.16751  0.55627  0.32816  Biso   1.000  S
  S4       1.0000 0.83249  0.05627  0.17184  Biso   1.000  S
  O1       1.0000 0.61640  0.23290  0.24560  Biso   1.000  O
  O2       1.0000 0.38360  0.73290  0.25440  Biso   1.000  O
  O3       1.0000 0.38360  0.76710  0.75440  Biso   1.000  O
  O4       1.0000 0.61640  0.26710  0.74560  Biso   1.000  O
  O5       1.0000 0.45645  0.11390  0.17070  Biso   1.000  O
  O6       1.0000 0.54355  0.61390  0.32930  Biso   1.000  O
  O7       1.0000 0.54355  0.88610  0.82930  Biso   1.000  O
  O8       1.0000 0.45645  0.38610  0.67070  Biso   1.000  O
  N1       1.0000 0.87037  0.49960  0.12310  Biso   1.000  N
  N2       1.0000 0.12963  0.99960  0.37690  Biso   1.000  N
  N3       1.0000 0.12963  0.50040  0.87690  Biso   1.000  N
  N4       1.0000 0.87037  0.00040  0.62310  Biso   1.000  N
  N5       1.0000 0.70938  0.40130  0.07460  Biso   1.000  N
  N6       1.0000 0.29062  0.90130  0.42540  Biso   1.000  N
  N7       1.0000 0.29062  0.59870  0.92540  Biso   1.000  N
  N8       1.0000 0.70938  0.09870  0.57460  Biso   1.000  N
  N9       1.0000 0.63115  0.33190  0.04140  Biso   1.000  N
  N10      1.0000 0.36885  0.83190  0.45860  Biso   1.000  N
  N11      1.0000 0.36885  0.66810  0.95860  Biso   1.000  N
  N12      1.0000 0.63115  0.16810  0.54140  Biso   1.000  N
  H1       1.0000 0.60880  0.33740  0.96100  Biso   1.000  H
  H2       1.0000 0.39120  0.83740  0.53900  Biso   1.000  H
  H3       1.0000 0.39120  0.66260  0.03900  Biso   1.000  H
  H4       1.0000 0.60880  0.16260  0.46100  Biso   1.000  H
  N13      1.0000 0.80970  0.38330  0.40500  Biso   1.000  N
  N14      1.0000 0.19030  0.88330  0.09500  Biso   1.000  N
  N15      1.0000 0.19030  0.61670  0.59500  Biso   1.000  N
  N16      1.0000 0.80970  0.11670  0.90500  Biso   1.000  N
  C1       1.0000 0.94805  0.56100  0.15620  Biso   1.000  C
  C2       1.0000 0.05195  0.06100  0.34380  Biso   1.000  C
  C3       1.0000 0.05195  0.43900  0.84380  Biso   1.000  C
  C4       1.0000 0.94805  0.93900  0.65620  Biso   1.000  C
  H5       1.0000 0.97940  0.51660  0.23040  Biso   1.000  H
  H6       1.0000 0.02060  0.01660  0.26960  Biso   1.000  H
  H7       1.0000 0.02060  0.48340  0.76960  Biso   1.000  H
  H8       1.0000 0.97940  0.98340  0.73040  Biso   1.000  H
  C5       1.0000 0.98505  0.68630  0.08720  Biso   1.000  C
  C6       1.0000 0.01495  0.18630  0.41280  Biso   1.000  C
  C7       1.0000 0.01495  0.31370  0.91280  Biso   1.000  C
  C8       1.0000 0.98505  0.81370  0.58720  Biso   1.000  C
  H9       1.0000 0.04030  0.72770  0.11410  Biso   1.000  H
  H10      1.0000 0.95970  0.22770  0.38590  Biso   1.000  H
  H11      1.0000 0.95970  0.27230  0.88590  Biso   1.000  H
  H12      1.0000 0.04030  0.77230  0.61410  Biso   1.000  H
  C9       1.0000 0.94010  0.74960  0.97870  Biso   1.000  C
  C10      1.0000 0.05990  0.24960  0.52130  Biso   1.000  C
  C11      1.0000 0.05990  0.25040  0.02130  Biso   1.000  C
  C12      1.0000 0.94010  0.75040  0.47870  Biso   1.000  C
  H13      1.0000 0.96410  0.83550  0.92970  Biso   1.000  H
  H14      1.0000 0.03590  0.33550  0.57030  Biso   1.000  H
  H15      1.0000 0.03590  0.16450  0.07030  Biso   1.000  H
  H16      1.0000 0.96410  0.66450  0.42970  Biso   1.000  H
  C13      1.0000 0.85960  0.68710  0.94160  Biso   1.000  C
  C14      1.0000 0.14040  0.18710  0.55840  Biso   1.000  C
  C15      1.0000 0.14040  0.31290  0.05840  Biso   1.000  C
  C16      1.0000 0.85960  0.81290  0.44160  Biso   1.000  C
  H17      1.0000 0.82770  0.72850  0.86670  Biso   1.000  H
  H18      1.0000 0.17230  0.22850  0.63330  Biso   1.000  H
  H19      1.0000 0.17230  0.27150  0.13330  Biso   1.000  H
  H20      1.0000 0.82770  0.77150  0.36670  Biso   1.000  H
  C17      1.0000 0.82656  0.56180  0.01670  Biso   1.000  C
  C18      1.0000 0.17344  0.06180  0.48330  Biso   1.000  C
  C19      1.0000 0.17344  0.43820  0.98330  Biso   1.000  C
  C20      1.0000 0.82656  0.93820  0.51670  Biso   1.000  C
  C21      1.0000 0.74158  0.49060  0.98680  Biso   1.000  C
  C22      1.0000 0.25842  0.99060  0.51320  Biso   1.000  C
  C23      1.0000 0.25842  0.50940  0.01320  Biso   1.000  C
  C24      1.0000 0.74158  0.00940  0.48680  Biso   1.000  C
  H21      1.0000 0.71110  0.50940  0.90540  Biso   1.000  H
  H22      1.0000 0.28890  0.00940  0.59460  Biso   1.000  H
  H23      1.0000 0.28890  0.49060  0.09460  Biso   1.000  H
  H24      1.0000 0.71110  0.99060  0.40540  Biso   1.000  H
  C25      1.0000 0.58784  0.25420  0.13380  Biso   1.000  C
  C26      1.0000 0.41216  0.75420  0.36620  Biso   1.000  C
  C27      1.0000 0.41216  0.74580  0.86620  Biso   1.000  C
  C28      1.0000 0.58784  0.24580  0.63380  Biso   1.000  C
  C29      1.0000 0.50146  0.20180  0.08540  Biso   1.000  C
  C30      1.0000 0.49854  0.70180  0.41460  Biso   1.000  C
  C31      1.0000 0.49854  0.79820  0.91460  Biso   1.000  C
  C32      1.0000 0.50146  0.29820  0.58540  Biso   1.000  C
  C33      1.0000 0.45299  0.22460  0.97300  Biso   1.000  C
  C34      1.0000 0.54701  0.72460  0.52700  Biso   1.000  C
  C35      1.0000 0.54701  0.77540  0.02700  Biso   1.000  C
  C36      1.0000 0.45299  0.27540  0.47300  Biso   1.000  C
  H25      1.0000 0.46920  0.28190  0.89840  Biso   1.000  H
  H26      1.0000 0.53080  0.78190  0.60160  Biso   1.000  H
  H27      1.0000 0.53080  0.71810  0.10160  Biso   1.000  H
  H28      1.0000 0.46920  0.21810  0.39840  Biso   1.000  H
  C37      1.0000 0.37350  0.14660  0.98850  Biso   1.000  C
  C38      1.0000 0.62650  0.64660  0.51150  Biso   1.000  C
  C39      1.0000 0.62650  0.85340  0.01150  Biso   1.000  C
  C40      1.0000 0.37350  0.35340  0.48850  Biso   1.000  C
  H29      1.0000 0.32610  0.14050  0.92600  Biso   1.000  H
  H30      1.0000 0.67390  0.64050  0.57400  Biso   1.000  H
  H31      1.0000 0.67390  0.85950  0.07400  Biso   1.000  H
  H32      1.0000 0.32610  0.35950  0.42600  Biso   1.000  H
  C41      1.0000 0.37810  0.08290  0.10860  Biso   1.000  C
  C42      1.0000 0.62190  0.58290  0.39140  Biso   1.000  C
  C43      1.0000 0.62190  0.91710  0.89140  Biso   1.000  C
  C44      1.0000 0.37810  0.41710  0.60860  Biso   1.000  C
  H33      1.0000 0.33320  0.02450  0.14540  Biso   1.000  H
  H34      1.0000 0.66680  0.52450  0.35460  Biso   1.000  H
  H35      1.0000 0.66680  0.97550  0.85460  Biso   1.000  H
  H36      1.0000 0.33320  0.47550  0.64540  Biso   1.000  H
  C45      1.0000 0.81961  0.40840  0.51440  Biso   1.000  C
  C46      1.0000 0.18039  0.90840  0.98560  Biso   1.000  C
  C47      1.0000 0.18039  0.59160  0.48560  Biso   1.000  C
  C48      1.0000 0.81961  0.09160  0.01440  Biso   1.000  C
