data_image0
_cell_length_a       17.889
_cell_length_b       31.835
_cell_length_c       24.831
_cell_angle_alpha    90
_cell_angle_beta     90
_cell_angle_gamma    90

_symmetry_space_group_name_H-M    "P 1"
_symmetry_int_tables_number       1

loop_
  _symmetry_equiv_pos_as_xyz
  'x, y, z'

loop_
  _atom_site_label
  _atom_site_occupancy
  _atom_site_fract_x
  _atom_site_fract_y
  _atom_site_fract_z
  _atom_site_thermal_displace_type
  _atom_site_B_iso_or_equiv
  _atom_site_type_symbol
  Nd1      1.0000 0.68555  0.89305  0.54507  Biso   1.000  Nd
  Nd2      1.0000 0.31445  0.10695  0.04507  Biso   1.000  Nd
  Nd3      1.0000 0.68555  0.10695  0.45493  Biso   1.000  Nd
  Nd4      1.0000 0.31445  0.89305  0.95493  Biso   1.000  Nd
  Nd5      1.0000 0.18555  0.39305  0.54507  Biso   1.000  Nd
  Nd6      1.0000 0.81445  0.60695  0.04507  Biso   1.000  Nd
  Nd7      1.0000 0.18555  0.60695  0.45493  Biso   1.000  Nd
  Nd8      1.0000 0.81445  0.39305  0.95493  Biso   1.000  Nd
  I1       1.0000 0.20926  0.98154  0.66492  Biso   1.000  I
  I2       1.0000 0.79074  0.01846  0.16492  Biso   1.000  I
  I3       1.0000 0.20926  0.01846  0.33508  Biso   1.000  I
  I4       1.0000 0.79074  0.98154  0.83508  Biso   1.000  I
  I5       1.0000 0.70926  0.48154  0.66492  Biso   1.000  I
  I6       1.0000 0.29074  0.51846  0.16492  Biso   1.000  I
  I7       1.0000 0.70926  0.51846  0.33508  Biso   1.000  I
  I8       1.0000 0.29074  0.48154  0.83508  Biso   1.000  I
  I9       1.0000 0.30618  0.11143  0.67267  Biso   1.000  I
  I10      1.0000 0.69382  0.88857  0.17267  Biso   1.000  I
  I11      1.0000 0.30618  0.88857  0.32733  Biso   1.000  I
  I12      1.0000 0.69382  0.11143  0.82733  Biso   1.000  I
  I13      1.0000 0.80618  0.61143  0.67267  Biso   1.000  I
  I14      1.0000 0.19382  0.38857  0.17267  Biso   1.000  I
  I15      1.0000 0.80618  0.38857  0.32733  Biso   1.000  I
  I16      1.0000 0.19382  0.61143  0.82733  Biso   1.000  I
  I17      1.0000 0.18472  0.07032  0.52058  Biso   1.000  I
  I18      1.0000 0.81528  0.92968  0.02058  Biso   1.000  I
  I19      1.0000 0.18472  0.92968  0.47942  Biso   1.000  I
  I20      1.0000 0.81528  0.07032  0.97942  Biso   1.000  I
  I21      1.0000 0.68472  0.57032  0.52058  Biso   1.000  I
  I22      1.0000 0.31528  0.42968  0.02058  Biso   1.000  I
  I23      1.0000 0.68472  0.42968  0.47942  Biso   1.000  I
  I24      1.0000 0.31528  0.57032  0.97942  Biso   1.000  I
  I25      1.0000 0.05507  0.09470  0.67307  Biso   1.000  I
  I26      1.0000 0.94493  0.90530  0.17307  Biso   1.000  I
  I27      1.0000 0.05507  0.90530  0.32693  Biso   1.000  I
  I28      1.0000 0.94493  0.09470  0.82693  Biso   1.000  I
  I29      1.0000 0.55507  0.59470  0.67307  Biso   1.000  I
  I30      1.0000 0.44493  0.40530  0.17307  Biso   1.000  I
  I31      1.0000 0.55507  0.40530  0.32693  Biso   1.000  I
  I32      1.0000 0.44493  0.59470  0.82693  Biso   1.000  I
  Cu1      1.0000 0.26790  0.05164  0.60623  Biso   1.000  Cu
  Cu2      1.0000 0.73210  0.94836  0.10623  Biso   1.000  Cu
  Cu3      1.0000 0.26790  0.94836  0.39377  Biso   1.000  Cu
  Cu4      1.0000 0.73210  0.05164  0.89377  Biso   1.000  Cu
  Cu5      1.0000 0.76790  0.55164  0.60623  Biso   1.000  Cu
  Cu6      1.0000 0.23210  0.44836  0.10623  Biso   1.000  Cu
  Cu7      1.0000 0.76790  0.44836  0.39377  Biso   1.000  Cu
  Cu8      1.0000 0.23210  0.55164  0.89377  Biso   1.000  Cu
  Cu9      1.0000 0.18508  0.05902  0.69508  Biso   1.000  Cu
  Cu10     1.0000 0.81492  0.94098  0.19508  Biso   1.000  Cu
  Cu11     1.0000 0.18508  0.94098  0.30492  Biso   1.000  Cu
  Cu12     1.0000 0.81492  0.05902  0.80492  Biso   1.000  Cu
  Cu13     1.0000 0.68508  0.55902  0.69508  Biso   1.000  Cu
  Cu14     1.0000 0.31492  0.44098  0.19508  Biso   1.000  Cu
  Cu15     1.0000 0.68508  0.44098  0.30492  Biso   1.000  Cu
  Cu16     1.0000 0.31492  0.55902  0.80492  Biso   1.000  Cu
  Cu17     1.0000 0.12662  0.03364  0.60614  Biso   1.000  Cu
  Cu18     1.0000 0.87338  0.96636  0.10614  Biso   1.000  Cu
  Cu19     1.0000 0.12662  0.96636  0.39386  Biso   1.000  Cu
  Cu20     1.0000 0.87338  0.03364  0.89386  Biso   1.000  Cu
  Cu21     1.0000 0.62662  0.53364  0.60614  Biso   1.000  Cu
  Cu22     1.0000 0.37338  0.46636  0.10614  Biso   1.000  Cu
  Cu23     1.0000 0.62662  0.46636  0.39386  Biso   1.000  Cu
  Cu24     1.0000 0.37338  0.53364  0.89386  Biso   1.000  Cu
  Cu25     1.0000 0.17187  0.11162  0.61376  Biso   1.000  Cu
  Cu26     1.0000 0.82813  0.88838  0.11376  Biso   1.000  Cu
  Cu27     1.0000 0.17187  0.88838  0.38624  Biso   1.000  Cu
  Cu28     1.0000 0.82813  0.11162  0.88624  Biso   1.000  Cu
  Cu29     1.0000 0.67187  0.61162  0.61376  Biso   1.000  Cu
  Cu30     1.0000 0.32813  0.38838  0.11376  Biso   1.000  Cu
  Cu31     1.0000 0.67187  0.38838  0.38624  Biso   1.000  Cu
  Cu32     1.0000 0.32813  0.61162  0.88624  Biso   1.000  Cu
  O1       1.0000 0.76640  0.88580  0.46340  Biso   1.000  O
  O2       1.0000 0.23360  0.11420  0.96340  Biso   1.000  O
  O3       1.0000 0.76640  0.11420  0.53660  Biso   1.000  O
  O4       1.0000 0.23360  0.88580  0.03660  Biso   1.000  O
  O5       1.0000 0.26640  0.38580  0.46340  Biso   1.000  O
  O6       1.0000 0.73360  0.61420  0.96340  Biso   1.000  O
  O7       1.0000 0.26640  0.61420  0.53660  Biso   1.000  O
  O8       1.0000 0.73360  0.38580  0.03660  Biso   1.000  O
  O9       1.0000 0.67920  0.93480  0.45730  Biso   1.000  O
  O10      1.0000 0.32080  0.06520  0.95730  Biso   1.000  O
  O11      1.0000 0.67920  0.06520  0.54270  Biso   1.000  O
  O12      1.0000 0.32080  0.93480  0.04270  Biso   1.000  O
  O13      1.0000 0.17920  0.43480  0.45730  Biso   1.000  O
  O14      1.0000 0.82080  0.56520  0.95730  Biso   1.000  O
  O15      1.0000 0.17920  0.56520  0.54270  Biso   1.000  O
  O16      1.0000 0.82080  0.43480  0.04270  Biso   1.000  O
  O17      1.0000 0.77260  0.95500  0.54650  Biso   1.000  O
  O18      1.0000 0.22740  0.04500  0.04650  Biso   1.000  O
  O19      1.0000 0.77260  0.04500  0.45350  Biso   1.000  O
  O20      1.0000 0.22740  0.95500  0.95350  Biso   1.000  O
  O21      1.0000 0.27260  0.45500  0.54650  Biso   1.000  O
  O22      1.0000 0.72740  0.54500  0.04650  Biso   1.000  O
  O23      1.0000 0.27260  0.54500  0.45350  Biso   1.000  O
  O24      1.0000 0.72740  0.45500  0.95350  Biso   1.000  O
  O25      1.0000 0.82210  0.89790  0.57620  Biso   1.000  O
  O26      1.0000 0.17790  0.10210  0.07620  Biso   1.000  O
  O27      1.0000 0.82210  0.10210  0.42380  Biso   1.000  O
  O28      1.0000 0.17790  0.89790  0.92380  Biso   1.000  O
  O29      1.0000 0.32210  0.39790  0.57620  Biso   1.000  O
  O30      1.0000 0.67790  0.60210  0.07620  Biso   1.000  O
  O31      1.0000 0.32210  0.60210  0.42380  Biso   1.000  O
  O32      1.0000 0.67790  0.39790  0.92380  Biso   1.000  O
  O33      1.0000 0.61770  0.96300  0.55780  Biso   1.000  O
  O34      1.0000 0.38230  0.03700  0.05780  Biso   1.000  O
  O35      1.0000 0.61770  0.03700  0.44220  Biso   1.000  O
  O36      1.0000 0.38230  0.96300  0.94220  Biso   1.000  O
  O37      1.0000 0.11770  0.46300  0.55780  Biso   1.000  O
  O38      1.0000 0.88230  0.53700  0.05780  Biso   1.000  O
  O39      1.0000 0.11770  0.53700  0.44220  Biso   1.000  O
  O40      1.0000 0.88230  0.46300  0.94220  Biso   1.000  O
  O41      1.0000 0.54720  0.90700  0.55130  Biso   1.000  O
  O42      1.0000 0.45280  0.09300  0.05130  Biso   1.000  O
  O43      1.0000 0.54720  0.09300  0.44870  Biso   1.000  O
  O44      1.0000 0.45280  0.90700  0.94870  Biso   1.000  O
  O45      1.0000 0.04720  0.40700  0.55130  Biso   1.000  O
  O46      1.0000 0.95280  0.59300  0.05130  Biso   1.000  O
  O47      1.0000 0.04720  0.59300  0.44870  Biso   1.000  O
  O48      1.0000 0.95280  0.40700  0.94870  Biso   1.000  O
  O49      1.0000 0.73790  0.82140  0.54900  Biso   1.000  O
  O50      1.0000 0.26210  0.17860  0.04900  Biso   1.000  O
  O51      1.0000 0.73790  0.17860  0.45100  Biso   1.000  O
  O52      1.0000 0.26210  0.82140  0.95100  Biso   1.000  O
  O53      1.0000 0.23790  0.32140  0.54900  Biso   1.000  O
  O54      1.0000 0.76210  0.67860  0.04900  Biso   1.000  O
  O55      1.0000 0.23790  0.67860  0.45100  Biso   1.000  O
  O56      1.0000 0.76210  0.32140  0.95100  Biso   1.000  O
  O57      1.0000 0.63070  0.83010  0.59370  Biso   1.000  O
  O58      1.0000 0.36930  0.16990  0.09370  Biso   1.000  O
  O59      1.0000 0.63070  0.16990  0.40630  Biso   1.000  O
  O60      1.0000 0.36930  0.83010  0.90630  Biso   1.000  O
  O61      1.0000 0.13070  0.33010  0.59370  Biso   1.000  O
  O62      1.0000 0.86930  0.66990  0.09370  Biso   1.000  O
  O63      1.0000 0.13070  0.66990  0.40630  Biso   1.000  O
  O64      1.0000 0.86930  0.33010  0.90630  Biso   1.000  O
  O65      1.0000 0.68940  0.90570  0.64030  Biso   1.000  O
  O66      1.0000 0.31060  0.09430  0.14030  Biso   1.000  O
  O67      1.0000 0.68940  0.09430  0.35970  Biso   1.000  O
  O68      1.0000 0.31060  0.90570  0.85970  Biso   1.000  O
  O69      1.0000 0.18940  0.40570  0.64030  Biso   1.000  O
  O70      1.0000 0.81060  0.59430  0.14030  Biso   1.000  O
  O71      1.0000 0.18940  0.59430  0.35970  Biso   1.000  O
  O72      1.0000 0.81060  0.40570  0.85970  Biso   1.000  O
  H1       1.0000 0.73030  0.91780  0.64840  Biso   1.000  H
  H2       1.0000 0.26970  0.08220  0.14840  Biso   1.000  H
  H3       1.0000 0.73030  0.08220  0.35160  Biso   1.000  H
  H4       1.0000 0.26970  0.91780  0.85160  Biso   1.000  H
  H5       1.0000 0.23030  0.41780  0.64840  Biso   1.000  H
  H6       1.0000 0.76970  0.58220  0.14840  Biso   1.000  H
  H7       1.0000 0.23030  0.58220  0.35160  Biso   1.000  H
  H8       1.0000 0.76970  0.41780  0.85160  Biso   1.000  H
  H9       1.0000 0.65290  0.92140  0.64900  Biso   1.000  H
  H10      1.0000 0.34710  0.07860  0.14900  Biso   1.000  H
  H11      1.0000 0.65290  0.07860  0.35100  Biso   1.000  H
  H12      1.0000 0.34710  0.92140  0.85100  Biso   1.000  H
  H13      1.0000 0.15290  0.42140  0.64900  Biso   1.000  H
  H14      1.0000 0.84710  0.57860  0.14900  Biso   1.000  H
  H15      1.0000 0.15290  0.57860  0.35100  Biso   1.000  H
  H16      1.0000 0.84710  0.42140  0.85100  Biso   1.000  H
  O73      1.0000 0.61830  0.84850  0.47570  Biso   1.000  O
  O74      1.0000 0.38170  0.15150  0.97570  Biso   1.000  O
  O75      1.0000 0.61830  0.15150  0.52430  Biso   1.000  O
  O76      1.0000 0.38170  0.84850  0.02430  Biso   1.000  O
  O77      1.0000 0.11830  0.34850  0.47570  Biso   1.000  O
  O78      1.0000 0.88170  0.65150  0.97570  Biso   1.000  O
  O79      1.0000 0.11830  0.65150  0.52430  Biso   1.000  O
  O80      1.0000 0.88170  0.34850  0.02430  Biso   1.000  O
  H17      1.0000 0.64350  0.84790  0.44670  Biso   1.000  H
  H18      1.0000 0.35650  0.15210  0.94670  Biso   1.000  H
  H19      1.0000 0.64350  0.15210  0.55330  Biso   1.000  H
  H20      1.0000 0.35650  0.84790  0.05330  Biso   1.000  H
  H21      1.0000 0.14350  0.34790  0.44670  Biso   1.000  H
  H22      1.0000 0.85650  0.65210  0.94670  Biso   1.000  H
  H23      1.0000 0.14350  0.65210  0.55330  Biso   1.000  H
  H24      1.0000 0.85650  0.34790  0.05330  Biso   1.000  H
  H25      1.0000 0.57550  0.85900  0.46950  Biso   1.000  H
  H26      1.0000 0.42450  0.14100  0.96950  Biso   1.000  H
  H27      1.0000 0.57550  0.14100  0.53050  Biso   1.000  H
  H28      1.0000 0.42450  0.85900  0.03050  Biso   1.000  H
  H29      1.0000 0.07550  0.35900  0.46950  Biso   1.000  H
  H30      1.0000 0.92450  0.64100  0.96950  Biso   1.000  H
  H31      1.0000 0.07550  0.64100  0.53050  Biso   1.000  H
  H32      1.0000 0.92450  0.35900  0.03050  Biso   1.000  H
  N1       1.0000 0.80460  0.94010  0.27480  Biso   1.000  N
  N2       1.0000 0.19540  0.05990  0.77480  Biso   1.000  N
  N3       1.0000 0.80460  0.05990  0.72520  Biso   1.000  N
  N4       1.0000 0.19540  0.94010  0.22520  Biso   1.000  N
  N5       1.0000 0.30460  0.44010  0.27480  Biso   1.000  N
  N6       1.0000 0.69540  0.55990  0.77480  Biso   1.000  N
  N7       1.0000 0.30460  0.55990  0.72520  Biso   1.000  N
  N8       1.0000 0.69540  0.44010  0.22520  Biso   1.000  N
  C1       1.0000 0.83540  0.90680  0.30330  Biso   1.000  C
  C2       1.0000 0.16460  0.09320  0.80330  Biso   1.000  C
  C3       1.0000 0.83540  0.09320  0.69670  Biso   1.000  C
  C4       1.0000 0.16460  0.90680  0.19670  Biso   1.000  C
  C5       1.0000 0.33540  0.40680  0.30330  Biso   1.000  C
  C6       1.0000 0.66460  0.59320  0.80330  Biso   1.000  C
  C7       1.0000 0.33540  0.59320  0.69670  Biso   1.000  C
  C8       1.0000 0.66460  0.40680  0.19670  Biso   1.000  C
  H33      1.0000 0.87160  0.88920  0.28670  Biso   1.000  H
  H34      1.0000 0.12840  0.11080  0.78670  Biso   1.000  H
  H35      1.0000 0.87160  0.11080  0.71330  Biso   1.000  H
  H36      1.0000 0.12840  0.88920  0.21330  Biso   1.000  H
  H37      1.0000 0.37160  0.38920  0.28670  Biso   1.000  H
  H38      1.0000 0.62840  0.61080  0.78670  Biso   1.000  H
  H39      1.0000 0.37160  0.61080  0.71330  Biso   1.000  H
  H40      1.0000 0.62840  0.38920  0.21330  Biso   1.000  H
  C9       1.0000 0.81340  0.89910  0.35610  Biso   1.000  C
  C10      1.0000 0.18660  0.10090  0.85610  Biso   1.000  C
  C11      1.0000 0.81340  0.10090  0.64390  Biso   1.000  C
  C12      1.0000 0.18660  0.89910  0.14390  Biso   1.000  C
  C13      1.0000 0.31340  0.39910  0.35610  Biso   1.000  C
  C14      1.0000 0.68660  0.60090  0.85610  Biso   1.000  C
  C15      1.0000 0.31340  0.60090  0.64390  Biso   1.000  C
  C16      1.0000 0.68660  0.39910  0.14390  Biso   1.000  C
  H41      1.0000 0.83450  0.87640  0.37550  Biso   1.000  H
  H42      1.0000 0.16550  0.12360  0.87550  Biso   1.000  H
  H43      1.0000 0.83450  0.12360  0.62450  Biso   1.000  H
  H44      1.0000 0.16550  0.87640  0.12450  Biso   1.000  H
  H45      1.0000 0.33450  0.37640  0.37550  Biso   1.000  H
  H46      1.0000 0.66550  0.62360  0.87550  Biso   1.000  H
  H47      1.0000 0.33450  0.62360  0.62450  Biso   1.000  H
  H48      1.0000 0.66550  0.37640  0.12450  Biso   1.000  H
  C17      1.0000 0.76040  0.92490  0.38040  Biso   1.000  C
  C18      1.0000 0.23960  0.07510  0.88040  Biso   1.000  C
  C19      1.0000 0.76040  0.07510  0.61960  Biso   1.000  C
  C20      1.0000 0.23960  0.92490  0.11960  Biso   1.000  C
  C21      1.0000 0.26040  0.42490  0.38040  Biso   1.000  C
  C22      1.0000 0.73960  0.57510  0.88040  Biso   1.000  C
  C23      1.0000 0.26040  0.57510  0.61960  Biso   1.000  C
  C24      1.0000 0.73960  0.42490  0.11960  Biso   1.000  C
  C25      1.0000 0.72950  0.95820  0.35190  Biso   1.000  C
  C26      1.0000 0.27050  0.04180  0.85190  Biso   1.000  C
  C27      1.0000 0.72950  0.04180  0.64810  Biso   1.000  C
  C28      1.0000 0.27050  0.95820  0.14810  Biso   1.000  C
  C29      1.0000 0.22950  0.45820  0.35190  Biso   1.000  C
  C30      1.0000 0.77050  0.54180  0.85190  Biso   1.000  C
  C31      1.0000 0.22950  0.54180  0.64810  Biso   1.000  C
  C32      1.0000 0.77050  0.45820  0.14810  Biso   1.000  C
  H49      1.0000 0.69340  0.97580  0.36850  Biso   1.000  H
  H50      1.0000 0.30660  0.02420  0.86850  Biso   1.000  H
  H51      1.0000 0.69340  0.02420  0.63150  Biso   1.000  H
  H52      1.0000 0.30660  0.97580  0.13150  Biso   1.000  H
  H53      1.0000 0.19340  0.47580  0.36850  Biso   1.000  H
  H54      1.0000 0.80660  0.52420  0.86850  Biso   1.000  H
  H55      1.0000 0.19340  0.52420  0.63150  Biso   1.000  H
  H56      1.0000 0.80660  0.47580  0.13150  Biso   1.000  H
  C33      1.0000 0.75160  0.96590  0.29910  Biso   1.000  C
  C34      1.0000 0.24840  0.03410  0.79910  Biso   1.000  C
  C35      1.0000 0.75160  0.03410  0.70090  Biso   1.000  C
  C36      1.0000 0.24840  0.96590  0.20090  Biso   1.000  C
  C37      1.0000 0.25160  0.46590  0.29910  Biso   1.000  C
  C38      1.0000 0.74840  0.53410  0.79910  Biso   1.000  C
  C39      1.0000 0.25160  0.53410  0.70090  Biso   1.000  C
  C40      1.0000 0.74840  0.46590  0.20090  Biso   1.000  C
  H57      1.0000 0.73050  0.98860  0.27970  Biso   1.000  H
  H58      1.0000 0.26950  0.01140  0.77970  Biso   1.000  H
  H59      1.0000 0.73050  0.01140  0.72030  Biso   1.000  H
  H60      1.0000 0.26950  0.98860  0.22030  Biso   1.000  H
  H61      1.0000 0.23050  0.48860  0.27970  Biso   1.000  H
  H62      1.0000 0.76950  0.51140  0.77970  Biso   1.000  H
  H63      1.0000 0.23050  0.51140  0.72030  Biso   1.000  H
  H64      1.0000 0.76950  0.48860  0.22030  Biso   1.000  H
  N9       1.0000 0.03570  0.00130  0.58420  Biso   1.000  N
  N10      1.0000 0.96430  0.99870  0.08420  Biso   1.000  N
  N11      1.0000 0.03570  0.99870  0.41580  Biso   1.000  N
  N12      1.0000 0.96430  0.00130  0.91580  Biso   1.000  N
  N13      1.0000 0.53570  0.50130  0.58420  Biso   1.000  N
  N14      1.0000 0.46430  0.49870  0.08420  Biso   1.000  N
  N15      1.0000 0.53570  0.49870  0.41580  Biso   1.000  N
  N16      1.0000 0.46430  0.50130  0.91580  Biso   1.000  N
  C41      1.0000 0.97170  0.02330  0.56950  Biso   1.000  C
  C42      1.0000 0.02830  0.97670  0.06950  Biso   1.000  C
  C43      1.0000 0.97170  0.97670  0.43050  Biso   1.000  C
  C44      1.0000 0.02830  0.02330  0.93050  Biso   1.000  C
  C45      1.0000 0.47170  0.52330  0.56950  Biso   1.000  C
  C46      1.0000 0.52830  0.47670  0.06950  Biso   1.000  C
  C47      1.0000 0.47170  0.47670  0.43050  Biso   1.000  C
  C48      1.0000 0.52830  0.52330  0.93050  Biso   1.000  C
  H65      1.0000 0.97410  0.05280  0.56410  Biso   1.000  H
  H66      1.0000 0.02590  0.94720  0.06410  Biso   1.000  H
  H67      1.0000 0.97410  0.94720  0.43590  Biso   1.000  H
  H68      1.0000 0.02590  0.05280  0.93590  Biso   1.000  H
  H69      1.0000 0.47410  0.55280  0.56410  Biso   1.000  H
  H70      1.0000 0.52590  0.44720  0.06410  Biso   1.000  H
  H71      1.0000 0.47410  0.44720  0.43590  Biso   1.000  H
  H72      1.0000 0.52590  0.55280  0.93590  Biso   1.000  H
  C49      1.0000 0.90440  0.00220  0.56280  Biso   1.000  C
  C50      1.0000 0.09560  0.99780  0.06280  Biso   1.000  C
  C51      1.0000 0.90440  0.99780  0.43720  Biso   1.000  C
  C52      1.0000 0.09560  0.00220  0.93720  Biso   1.000  C
  C53      1.0000 0.40440  0.50220  0.56280  Biso   1.000  C
  C54      1.0000 0.59560  0.49780  0.06280  Biso   1.000  C
  C55      1.0000 0.40440  0.49780  0.43720  Biso   1.000  C
  C56      1.0000 0.59560  0.50220  0.93720  Biso   1.000  C
  H73      1.0000 0.86070  0.01720  0.55270  Biso   1.000  H
  H74      1.0000 0.13930  0.98280  0.05270  Biso   1.000  H
  H75      1.0000 0.86070  0.98280  0.44730  Biso   1.000  H
  H76      1.0000 0.13930  0.01720  0.94730  Biso   1.000  H
  H77      1.0000 0.36070  0.51720  0.55270  Biso   1.000  H
  H78      1.0000 0.63930  0.48280  0.05270  Biso   1.000  H
  H79      1.0000 0.36070  0.48280  0.44730  Biso   1.000  H
  H80      1.0000 0.63930  0.51720  0.94730  Biso   1.000  H
  C57      1.0000 0.90100  0.95900  0.57070  Biso   1.000  C
  C58      1.0000 0.09900  0.04100  0.07070  Biso   1.000  C
  C59      1.0000 0.90100  0.04100  0.42930  Biso   1.000  C
  C60      1.0000 0.09900  0.95900  0.92930  Biso   1.000  C
  C61      1.0000 0.40100  0.45900  0.57070  Biso   1.000  C
  C62      1.0000 0.59900  0.54100  0.07070  Biso   1.000  C
  C63      1.0000 0.40100  0.54100  0.42930  Biso   1.000  C
  C64      1.0000 0.59900  0.45900  0.92930  Biso   1.000  C
  C65      1.0000 0.96490  0.93700  0.58530  Biso   1.000  C
  C66      1.0000 0.03510  0.06300  0.08530  Biso   1.000  C
  C67      1.0000 0.96490  0.06300  0.41470  Biso   1.000  C
  C68      1.0000 0.03510  0.93700  0.91470  Biso   1.000  C
  C69      1.0000 0.46490  0.43700  0.58530  Biso   1.000  C
  C70      1.0000 0.53510  0.56300  0.08530  Biso   1.000  C
  C71      1.0000 0.46490  0.56300  0.41470  Biso   1.000  C
  C72      1.0000 0.53510  0.43700  0.91470  Biso   1.000  C
  H81      1.0000 0.96260  0.90740  0.59080  Biso   1.000  H
  H82      1.0000 0.03740  0.09260  0.09080  Biso   1.000  H
  H83      1.0000 0.96260  0.09260  0.40920  Biso   1.000  H
  H84      1.0000 0.03740  0.90740  0.90920  Biso   1.000  H
  H85      1.0000 0.46260  0.40740  0.59080  Biso   1.000  H
  H86      1.0000 0.53740  0.59260  0.09080  Biso   1.000  H
  H87      1.0000 0.46260  0.59260  0.40920  Biso   1.000  H
  H88      1.0000 0.53740  0.40740  0.90920  Biso   1.000  H
  C73      1.0000 0.03230  0.95810  0.59210  Biso   1.000  C
  C74      1.0000 0.96770  0.04190  0.09210  Biso   1.000  C
  C75      1.0000 0.03230  0.04190  0.40790  Biso   1.000  C
  C76      1.0000 0.96770  0.95810  0.90790  Biso   1.000  C
  C77      1.0000 0.53230  0.45810  0.59210  Biso   1.000  C
  C78      1.0000 0.46770  0.54190  0.09210  Biso   1.000  C
  C79      1.0000 0.53230  0.54190  0.40790  Biso   1.000  C
  C80      1.0000 0.46770  0.45810  0.90790  Biso   1.000  C
  H89      1.0000 0.07600  0.94310  0.60210  Biso   1.000  H
  H90      1.0000 0.92400  0.05690  0.10210  Biso   1.000  H
  H91      1.0000 0.07600  0.05690  0.39790  Biso   1.000  H
  H92      1.0000 0.92400  0.94310  0.89790  Biso   1.000  H
  H93      1.0000 0.57600  0.44310  0.60210  Biso   1.000  H
  H94      1.0000 0.42400  0.55690  0.10210  Biso   1.000  H
  H95      1.0000 0.57600  0.55690  0.39790  Biso   1.000  H
  H96      1.0000 0.42400  0.44310  0.89790  Biso   1.000  H
  N17      1.0000 0.36010  0.02120  0.58320  Biso   1.000  N
  N18      1.0000 0.63990  0.97880  0.08320  Biso   1.000  N
  N19      1.0000 0.36010  0.97880  0.41680  Biso   1.000  N
  N20      1.0000 0.63990  0.02120  0.91680  Biso   1.000  N
  N21      1.0000 0.86010  0.52120  0.58320  Biso   1.000  N
  N22      1.0000 0.13990  0.47880  0.08320  Biso   1.000  N
  N23      1.0000 0.86010  0.47880  0.41680  Biso   1.000  N
  N24      1.0000 0.13990  0.52120  0.91680  Biso   1.000  N
  C81      1.0000 0.43050  0.03870  0.59070  Biso   1.000  C
  C82      1.0000 0.56950  0.96130  0.09070  Biso   1.000  C
  C83      1.0000 0.43050  0.96130  0.40930  Biso   1.000  C
  C84      1.0000 0.56950  0.03870  0.90930  Biso   1.000  C
  C85      1.0000 0.93050  0.53870  0.59070  Biso   1.000  C
  C86      1.0000 0.06950  0.46130  0.09070  Biso   1.000  C
  C87      1.0000 0.93050  0.46130  0.40930  Biso   1.000  C
  C88      1.0000 0.06950  0.53870  0.90930  Biso   1.000  C
  H97      1.0000 0.43510  0.06710  0.60200  Biso   1.000  H
  H98      1.0000 0.56490  0.93290  0.10200  Biso   1.000  H
  H99      1.0000 0.43510  0.93290  0.39800  Biso   1.000  H
  H100     1.0000 0.56490  0.06710  0.89800  Biso   1.000  H
  H101     1.0000 0.93510  0.56710  0.60200  Biso   1.000  H
  H102     1.0000 0.06490  0.43290  0.10200  Biso   1.000  H
  H103     1.0000 0.93510  0.43290  0.39800  Biso   1.000  H
  H104     1.0000 0.06490  0.56710  0.89800  Biso   1.000  H
  C89      1.0000 0.49420  0.01470  0.58170  Biso   1.000  C
  C90      1.0000 0.50580  0.98530  0.08170  Biso   1.000  C
  C91      1.0000 0.49420  0.98530  0.41830  Biso   1.000  C
  C92      1.0000 0.50580  0.01470  0.91830  Biso   1.000  C
  C93      1.0000 0.99420  0.51470  0.58170  Biso   1.000  C
  C94      1.0000 0.00580  0.48530  0.08170  Biso   1.000  C
  C95      1.0000 0.99420  0.48530  0.41830  Biso   1.000  C
  C96      1.0000 0.00580  0.51470  0.91830  Biso   1.000  C
  H105     1.0000 0.54230  0.02670  0.58690  Biso   1.000  H
  H106     1.0000 0.45770  0.97330  0.08690  Biso   1.000  H
  H107     1.0000 0.54230  0.97330  0.41310  Biso   1.000  H
  H108     1.0000 0.45770  0.02670  0.91310  Biso   1.000  H
  H109     1.0000 0.04230  0.52670  0.58690  Biso   1.000  H
  H110     1.0000 0.95770  0.47330  0.08690  Biso   1.000  H
  H111     1.0000 0.04230  0.47330  0.41310  Biso   1.000  H
  H112     1.0000 0.95770  0.52670  0.91310  Biso   1.000  H
  C97      1.0000 0.48750  0.97320  0.56510  Biso   1.000  C
  C98      1.0000 0.51250  0.02680  0.06510  Biso   1.000  C
  C99      1.0000 0.48750  0.02680  0.43490  Biso   1.000  C
  C100     1.0000 0.51250  0.97320  0.93490  Biso   1.000  C
  C101     1.0000 0.98750  0.47320  0.56510  Biso   1.000  C
  C102     1.0000 0.01250  0.52680  0.06510  Biso   1.000  C
  C103     1.0000 0.98750  0.52680  0.43490  Biso   1.000  C
  C104     1.0000 0.01250  0.47320  0.93490  Biso   1.000  C
  C105     1.0000 0.41710  0.95560  0.55760  Biso   1.000  C
  C106     1.0000 0.58290  0.04440  0.05760  Biso   1.000  C
  C107     1.0000 0.41710  0.04440  0.44240  Biso   1.000  C
  C108     1.0000 0.58290  0.95560  0.94240  Biso   1.000  C
  C109     1.0000 0.91710  0.45560  0.55760  Biso   1.000  C
  C110     1.0000 0.08290  0.54440  0.05760  Biso   1.000  C
  C111     1.0000 0.91710  0.54440  0.44240  Biso   1.000  C
  C112     1.0000 0.08290  0.45560  0.94240  Biso   1.000  C
  H113     1.0000 0.41250  0.92720  0.54630  Biso   1.000  H
  H114     1.0000 0.58750  0.07280  0.04630  Biso   1.000  H
  H115     1.0000 0.41250  0.07280  0.45370  Biso   1.000  H
  H116     1.0000 0.58750  0.92720  0.95370  Biso   1.000  H
  H117     1.0000 0.91250  0.42720  0.54630  Biso   1.000  H
  H118     1.0000 0.08750  0.57280  0.04630  Biso   1.000  H
  H119     1.0000 0.91250  0.57280  0.45370  Biso   1.000  H
  H120     1.0000 0.08750  0.42720  0.95370  Biso   1.000  H
  C113     1.0000 0.35340  0.97960  0.56660  Biso   1.000  C
  C114     1.0000 0.64660  0.02040  0.06660  Biso   1.000  C
  C115     1.0000 0.35340  0.02040  0.43340  Biso   1.000  C
  C116     1.0000 0.64660  0.97960  0.93340  Biso   1.000  C
  C117     1.0000 0.85340  0.47960  0.56660  Biso   1.000  C
  C118     1.0000 0.14660  0.52040  0.06660  Biso   1.000  C
  C119     1.0000 0.85340  0.52040  0.43340  Biso   1.000  C
  C120     1.0000 0.14660  0.47960  0.93340  Biso   1.000  C
  H121     1.0000 0.30530  0.96770  0.56150  Biso   1.000  H
  H122     1.0000 0.69470  0.03230  0.06150  Biso   1.000  H
  H123     1.0000 0.30530  0.03230  0.43850  Biso   1.000  H
  H124     1.0000 0.69470  0.96770  0.93850  Biso   1.000  H
  H125     1.0000 0.80530  0.46770  0.56150  Biso   1.000  H
  H126     1.0000 0.19470  0.53230  0.06150  Biso   1.000  H
  H127     1.0000 0.80530  0.53230  0.43850  Biso   1.000  H
  H128     1.0000 0.19470  0.46770  0.93850  Biso   1.000  H
  N25      1.0000 0.66700  0.67300  0.59480  Biso   1.000  N
  N26      1.0000 0.33300  0.32700  0.09480  Biso   1.000  N
  N27      1.0000 0.66700  0.32700  0.40520  Biso   1.000  N
  N28      1.0000 0.33300  0.67300  0.90520  Biso   1.000  N
  N29      1.0000 0.16700  0.17300  0.59480  Biso   1.000  N
  N30      1.0000 0.83300  0.82700  0.09480  Biso   1.000  N
  N31      1.0000 0.16700  0.82700  0.40520  Biso   1.000  N
  N32      1.0000 0.83300  0.17300  0.90520  Biso   1.000  N
  C121     1.0000 0.72360  0.68980  0.56310  Biso   1.000  C
  C122     1.0000 0.27640  0.31020  0.06310  Biso   1.000  C
  C123     1.0000 0.72360  0.31020  0.43690  Biso   1.000  C
  C124     1.0000 0.27640  0.68980  0.93690  Biso   1.000  C
  C125     1.0000 0.22360  0.18980  0.56310  Biso   1.000  C
  C126     1.0000 0.77640  0.81020  0.06310  Biso   1.000  C
  C127     1.0000 0.22360  0.81020  0.43690  Biso   1.000  C
  C128     1.0000 0.77640  0.18980  0.93690  Biso   1.000  C
  H129     1.0000 0.75880  0.67180  0.54630  Biso   1.000  H
  H130     1.0000 0.24120  0.32820  0.04630  Biso   1.000  H
  H131     1.0000 0.75880  0.32820  0.45370  Biso   1.000  H
  H132     1.0000 0.24120  0.67180  0.95370  Biso   1.000  H
  H133     1.0000 0.25880  0.17180  0.54630  Biso   1.000  H
  H134     1.0000 0.74120  0.82820  0.04630  Biso   1.000  H
  H135     1.0000 0.25880  0.82820  0.45370  Biso   1.000  H
  H136     1.0000 0.74120  0.17180  0.95370  Biso   1.000  H
  C129     1.0000 0.72870  0.73300  0.55610  Biso   1.000  C
  C130     1.0000 0.27130  0.26700  0.05610  Biso   1.000  C
  C131     1.0000 0.72870  0.26700  0.44390  Biso   1.000  C
  C132     1.0000 0.27130  0.73300  0.94390  Biso   1.000  C
  C133     1.0000 0.22870  0.23300  0.55610  Biso   1.000  C
  C134     1.0000 0.77130  0.76700  0.05610  Biso   1.000  C
  C135     1.0000 0.22870  0.76700  0.44390  Biso   1.000  C
  C136     1.0000 0.77130  0.23300  0.94390  Biso   1.000  C
  H137     1.0000 0.76740  0.74450  0.53450  Biso   1.000  H
  H138     1.0000 0.23260  0.25550  0.03450  Biso   1.000  H
  H139     1.0000 0.76740  0.25550  0.46550  Biso   1.000  H
  H140     1.0000 0.23260  0.74450  0.96550  Biso   1.000  H
  H141     1.0000 0.26740  0.24450  0.53450  Biso   1.000  H
  H142     1.0000 0.73260  0.75550  0.03450  Biso   1.000  H
  H143     1.0000 0.26740  0.75550  0.46550  Biso   1.000  H
  H144     1.0000 0.73260  0.24450  0.96550  Biso   1.000  H
  C137     1.0000 0.67720  0.75950  0.58080  Biso   1.000  C
  C138     1.0000 0.32280  0.24050  0.08080  Biso   1.000  C
  C139     1.0000 0.67720  0.24050  0.41920  Biso   1.000  C
  C140     1.0000 0.32280  0.75950  0.91920  Biso   1.000  C
  C141     1.0000 0.17720  0.25950  0.58080  Biso   1.000  C
  C142     1.0000 0.82280  0.74050  0.08080  Biso   1.000  C
  C143     1.0000 0.17720  0.74050  0.41920  Biso   1.000  C
  C144     1.0000 0.82280  0.25950  0.91920  Biso   1.000  C
  C145     1.0000 0.62050  0.74260  0.61250  Biso   1.000  C
  C146     1.0000 0.37950  0.25740  0.11250  Biso   1.000  C
  C147     1.0000 0.62050  0.25740  0.38750  Biso   1.000  C
  C148     1.0000 0.37950  0.74260  0.88750  Biso   1.000  C
  C149     1.0000 0.12050  0.24260  0.61250  Biso   1.000  C
  C150     1.0000 0.87950  0.75740  0.11250  Biso   1.000  C
  C151     1.0000 0.12050  0.75740  0.38750  Biso   1.000  C
  C152     1.0000 0.87950  0.24260  0.88750  Biso   1.000  C
  H145     1.0000 0.58530  0.76070  0.62930  Biso   1.000  H
  H146     1.0000 0.41470  0.23930  0.12930  Biso   1.000  H
  H147     1.0000 0.58530  0.23930  0.37070  Biso   1.000  H
  H148     1.0000 0.41470  0.76070  0.87070  Biso   1.000  H
  H149     1.0000 0.08530  0.26070  0.62930  Biso   1.000  H
  H150     1.0000 0.91470  0.73930  0.12930  Biso   1.000  H
  H151     1.0000 0.08530  0.73930  0.37070  Biso   1.000  H
  H152     1.0000 0.91470  0.26070  0.87070  Biso   1.000  H
  C153     1.0000 0.61540  0.69940  0.61950  Biso   1.000  C
  C154     1.0000 0.38460  0.30060  0.11950  Biso   1.000  C
  C155     1.0000 0.61540  0.30060  0.38050  Biso   1.000  C
  C156     1.0000 0.38460  0.69940  0.88050  Biso   1.000  C
  C157     1.0000 0.11540  0.19940  0.61950  Biso   1.000  C
  C158     1.0000 0.88460  0.80060  0.11950  Biso   1.000  C
  C159     1.0000 0.11540  0.80060  0.38050  Biso   1.000  C
  C160     1.0000 0.88460  0.19940  0.88050  Biso   1.000  C
  H153     1.0000 0.57670  0.68790  0.64120  Biso   1.000  H
  H154     1.0000 0.42330  0.31210  0.14120  Biso   1.000  H
  H155     1.0000 0.57670  0.31210  0.35880  Biso   1.000  H
  H156     1.0000 0.42330  0.68790  0.85880  Biso   1.000  H
  H157     1.0000 0.07670  0.18790  0.64120  Biso   1.000  H
  H158     1.0000 0.92330  0.81210  0.14120  Biso   1.000  H
  H159     1.0000 0.07670  0.81210  0.35880  Biso   1.000  H
  H160     1.0000 0.92330  0.18790  0.85880  Biso   1.000  H
  C161     1.0000 0.73540  0.91420  0.43340  Biso   1.000  C
  C162     1.0000 0.26460  0.08580  0.93340  Biso   1.000  C
  C163     1.0000 0.73540  0.08580  0.56660  Biso   1.000  C
  C164     1.0000 0.26460  0.91420  0.06660  Biso   1.000  C
  C165     1.0000 0.23540  0.41420  0.43340  Biso   1.000  C
  C166     1.0000 0.76460  0.58580  0.93340  Biso   1.000  C
  C167     1.0000 0.23540  0.58580  0.56660  Biso   1.000  C
  C168     1.0000 0.76460  0.41420  0.06660  Biso   1.000  C
  C169     1.0000 0.82660  0.93390  0.56500  Biso   1.000  C
  C170     1.0000 0.17340  0.06610  0.06500  Biso   1.000  C
  C171     1.0000 0.82660  0.06610  0.43500  Biso   1.000  C
  C172     1.0000 0.17340  0.93390  0.93500  Biso   1.000  C
  C173     1.0000 0.32660  0.43390  0.56500  Biso   1.000  C
  C174     1.0000 0.67340  0.56610  0.06500  Biso   1.000  C
  C175     1.0000 0.32660  0.56610  0.43500  Biso   1.000  C
  C176     1.0000 0.67340  0.43390  0.93500  Biso   1.000  C
  C177     1.0000 0.55520  0.94400  0.55880  Biso   1.000  C
  C178     1.0000 0.44480  0.05600  0.05880  Biso   1.000  C
  C179     1.0000 0.55520  0.05600  0.44120  Biso   1.000  C
  C180     1.0000 0.44480  0.94400  0.94120  Biso   1.000  C
  C181     1.0000 0.05520  0.44400  0.55880  Biso   1.000  C
  C182     1.0000 0.94480  0.55600  0.05880  Biso   1.000  C
  C183     1.0000 0.05520  0.55600  0.44120  Biso   1.000  C
  C184     1.0000 0.94480  0.44400  0.94120  Biso   1.000  C
  C185     1.0000 0.68440  0.80760  0.57600  Biso   1.000  C
  C186     1.0000 0.31560  0.19240  0.07600  Biso   1.000  C
  C187     1.0000 0.68440  0.19240  0.42400  Biso   1.000  C
  C188     1.0000 0.31560  0.80760  0.92400  Biso   1.000  C
  C189     1.0000 0.18440  0.30760  0.57600  Biso   1.000  C
  C190     1.0000 0.81560  0.69240  0.07600  Biso   1.000  C
  C191     1.0000 0.18440  0.69240  0.42400  Biso   1.000  C
  C192     1.0000 0.81560  0.30760  0.92400  Biso   1.000  C
  Na1      1.0000 0.69280  0.00000  0.50000  Biso   1.000  Na
  Na2      1.0000 0.30720  0.00000  0.00000  Biso   1.000  Na
  Na3      1.0000 0.19280  0.50000  0.50000  Biso   1.000  Na
  Na4      1.0000 0.80720  0.50000  0.00000  Biso   1.000  Na
  Na5      1.0000 0.49130  0.84960  0.61450  Biso   1.000  Na
  Na6      1.0000 0.50870  0.15040  0.11450  Biso   1.000  Na
  Na7      1.0000 0.49130  0.15040  0.38550  Biso   1.000  Na
  Na8      1.0000 0.50870  0.84960  0.88550  Biso   1.000  Na
  Na9      1.0000 0.99130  0.34960  0.61450  Biso   1.000  Na
  Na10     1.0000 0.00870  0.65040  0.11450  Biso   1.000  Na
  Na11     1.0000 0.99130  0.65040  0.38550  Biso   1.000  Na
  Na12     1.0000 0.00870  0.34960  0.88550  Biso   1.000  Na
  O81      1.0000 0.55700  0.13400  0.62200  Biso   1.000  O
  O82      1.0000 0.44300  0.86600  0.12200  Biso   1.000  O
  O83      1.0000 0.55700  0.86600  0.37800  Biso   1.000  O
  O84      1.0000 0.44300  0.13400  0.87800  Biso   1.000  O
  O85      1.0000 0.05700  0.63400  0.62200  Biso   1.000  O
  O86      1.0000 0.94300  0.36600  0.12200  Biso   1.000  O
  O87      1.0000 0.05700  0.36600  0.37800  Biso   1.000  O
  O88      1.0000 0.94300  0.63400  0.87800  Biso   1.000  O
  O89      1.0000 0.50000  0.01400  0.75000  Biso   1.000  O
  O90      1.0000 0.50000  0.98600  0.25000  Biso   1.000  O
  O91      1.0000 0.00000  0.51400  0.75000  Biso   1.000  O
  O92      1.0000 0.00000  0.48600  0.25000  Biso   1.000  O
  O93      1.0000 0.00000  0.02400  0.25000  Biso   1.000  O
  O94      1.0000 0.00000  0.97600  0.75000  Biso   1.000  O
  O95      1.0000 0.50000  0.52400  0.25000  Biso   1.000  O
  O96      1.0000 0.50000  0.47600  0.75000  Biso   1.000  O
  O97      1.0000 0.40900  0.15200  0.52400  Biso   1.000  O
  O98      1.0000 0.59100  0.84800  0.02400  Biso   1.000  O
  O99      1.0000 0.40900  0.84800  0.47600  Biso   1.000  O
  O100     1.0000 0.59100  0.15200  0.97600  Biso   1.000  O
  O101     1.0000 0.90900  0.65200  0.52400  Biso   1.000  O
  O102     1.0000 0.09100  0.34800  0.02400  Biso   1.000  O
  O103     1.0000 0.90900  0.34800  0.47600  Biso   1.000  O
  O104     1.0000 0.09100  0.65200  0.97600  Biso   1.000  O
  O105     1.0000 0.55800  0.13280  0.66800  Biso   1.000  O
  O106     1.0000 0.44200  0.86720  0.16800  Biso   1.000  O
  O107     1.0000 0.55800  0.86720  0.33200  Biso   1.000  O
  O108     1.0000 0.44200  0.13280  0.83200  Biso   1.000  O
  O109     1.0000 0.05800  0.63280  0.66800  Biso   1.000  O
  O110     1.0000 0.94200  0.36720  0.16800  Biso   1.000  O
  O111     1.0000 0.05800  0.36720  0.33200  Biso   1.000  O
  O112     1.0000 0.94200  0.63280  0.83200  Biso   1.000  O
