data_image0
_cell_length_a       17.8961
_cell_length_b       31.932
_cell_length_c       25.078
_cell_angle_alpha    90
_cell_angle_beta     90
_cell_angle_gamma    90

_symmetry_space_group_name_H-M    "P 1"
_symmetry_int_tables_number       1

loop_
  _symmetry_equiv_pos_as_xyz
  'x, y, z'

loop_
  _atom_site_label
  _atom_site_occupancy
  _atom_site_fract_x
  _atom_site_fract_y
  _atom_site_fract_z
  _atom_site_thermal_displace_type
  _atom_site_B_iso_or_equiv
  _atom_site_type_symbol
  Pr1      1.0000 0.31542  0.89231  0.04219  Biso   1.000  Pr
  Pr2      1.0000 0.68458  0.10769  0.54219  Biso   1.000  Pr
  Pr3      1.0000 0.68458  0.89231  0.45781  Biso   1.000  Pr
  Pr4      1.0000 0.31542  0.10769  0.95781  Biso   1.000  Pr
  Pr5      1.0000 0.81542  0.39231  0.04219  Biso   1.000  Pr
  Pr6      1.0000 0.18458  0.60769  0.54219  Biso   1.000  Pr
  Pr7      1.0000 0.18458  0.39231  0.45781  Biso   1.000  Pr
  Pr8      1.0000 0.81542  0.60769  0.95781  Biso   1.000  Pr
  Cu1      1.0000 0.82951  0.11097  0.11373  Biso   1.000  Cu
  Cu2      1.0000 0.17049  0.88903  0.61373  Biso   1.000  Cu
  Cu3      1.0000 0.17049  0.11097  0.38627  Biso   1.000  Cu
  Cu4      1.0000 0.82951  0.88903  0.88627  Biso   1.000  Cu
  Cu5      1.0000 0.32951  0.61097  0.11373  Biso   1.000  Cu
  Cu6      1.0000 0.67049  0.38903  0.61373  Biso   1.000  Cu
  Cu7      1.0000 0.67049  0.61097  0.38627  Biso   1.000  Cu
  Cu8      1.0000 0.32951  0.38903  0.88627  Biso   1.000  Cu
  Cu9      1.0000 0.81403  0.05872  0.19474  Biso   1.000  Cu
  Cu10     1.0000 0.18597  0.94128  0.69474  Biso   1.000  Cu
  Cu11     1.0000 0.18597  0.05872  0.30526  Biso   1.000  Cu
  Cu12     1.0000 0.81403  0.94128  0.80526  Biso   1.000  Cu
  Cu13     1.0000 0.31403  0.55872  0.19474  Biso   1.000  Cu
  Cu14     1.0000 0.68597  0.44128  0.69474  Biso   1.000  Cu
  Cu15     1.0000 0.68597  0.55872  0.30526  Biso   1.000  Cu
  Cu16     1.0000 0.31403  0.44128  0.80526  Biso   1.000  Cu
  Cu17     1.0000 0.87351  0.03256  0.10675  Biso   1.000  Cu
  Cu18     1.0000 0.12649  0.96744  0.60675  Biso   1.000  Cu
  Cu19     1.0000 0.12649  0.03256  0.39325  Biso   1.000  Cu
  Cu20     1.0000 0.87351  0.96744  0.89325  Biso   1.000  Cu
  Cu21     1.0000 0.37351  0.53256  0.10675  Biso   1.000  Cu
  Cu22     1.0000 0.62649  0.46744  0.60675  Biso   1.000  Cu
  Cu23     1.0000 0.62649  0.53256  0.39325  Biso   1.000  Cu
  Cu24     1.0000 0.37351  0.46744  0.89325  Biso   1.000  Cu
  Cu25     1.0000 0.73259  0.05158  0.10636  Biso   1.000  Cu
  Cu26     1.0000 0.26741  0.94842  0.60636  Biso   1.000  Cu
  Cu27     1.0000 0.26741  0.05158  0.39364  Biso   1.000  Cu
  Cu28     1.0000 0.73259  0.94842  0.89364  Biso   1.000  Cu
  Cu29     1.0000 0.23259  0.55158  0.10636  Biso   1.000  Cu
  Cu30     1.0000 0.76741  0.44842  0.60636  Biso   1.000  Cu
  Cu31     1.0000 0.76741  0.55158  0.39364  Biso   1.000  Cu
  Cu32     1.0000 0.23259  0.44842  0.89364  Biso   1.000  Cu
  I1       1.0000 0.81692  0.06941  0.02141  Biso   1.000  I
  I2       1.0000 0.18308  0.93059  0.52141  Biso   1.000  I
  I3       1.0000 0.18308  0.06941  0.47859  Biso   1.000  I
  I4       1.0000 0.81692  0.93059  0.97859  Biso   1.000  I
  I5       1.0000 0.31692  0.56941  0.02141  Biso   1.000  I
  I6       1.0000 0.68308  0.43059  0.52141  Biso   1.000  I
  I7       1.0000 0.68308  0.56941  0.47859  Biso   1.000  I
  I8       1.0000 0.31692  0.43059  0.97859  Biso   1.000  I
  I9       1.0000 0.94519  0.09365  0.17325  Biso   1.000  I
  I10      1.0000 0.05481  0.90635  0.67325  Biso   1.000  I
  I11      1.0000 0.05481  0.09365  0.32675  Biso   1.000  I
  I12      1.0000 0.94519  0.90635  0.82675  Biso   1.000  I
  I13      1.0000 0.44519  0.59365  0.17325  Biso   1.000  I
  I14      1.0000 0.55481  0.40635  0.67325  Biso   1.000  I
  I15      1.0000 0.55481  0.59365  0.32675  Biso   1.000  I
  I16      1.0000 0.44519  0.40635  0.82675  Biso   1.000  I
  I17      1.0000 0.69434  0.11157  0.17179  Biso   1.000  I
  I18      1.0000 0.30566  0.88843  0.67179  Biso   1.000  I
  I19      1.0000 0.30566  0.11157  0.32821  Biso   1.000  I
  I20      1.0000 0.69434  0.88843  0.82821  Biso   1.000  I
  I21      1.0000 0.19434  0.61157  0.17179  Biso   1.000  I
  I22      1.0000 0.80566  0.38843  0.67179  Biso   1.000  I
  I23      1.0000 0.80566  0.61157  0.32821  Biso   1.000  I
  I24      1.0000 0.19434  0.38843  0.82821  Biso   1.000  I
  I25      1.0000 0.78992  0.98112  0.16465  Biso   1.000  I
  I26      1.0000 0.21008  0.01888  0.66465  Biso   1.000  I
  I27      1.0000 0.21008  0.98112  0.33535  Biso   1.000  I
  I28      1.0000 0.78992  0.01888  0.83535  Biso   1.000  I
  I29      1.0000 0.28992  0.48112  0.16465  Biso   1.000  I
  I30      1.0000 0.71008  0.51888  0.66465  Biso   1.000  I
  I31      1.0000 0.71008  0.48112  0.33535  Biso   1.000  I
  I32      1.0000 0.28992  0.51888  0.83535  Biso   1.000  I
  O1       1.0000 0.17580  0.89600  0.07320  Biso   1.000  O
  O2       1.0000 0.82420  0.10400  0.57320  Biso   1.000  O
  O3       1.0000 0.82420  0.89600  0.42680  Biso   1.000  O
  O4       1.0000 0.17580  0.10400  0.92680  Biso   1.000  O
  O5       1.0000 0.67580  0.39600  0.07320  Biso   1.000  O
  O6       1.0000 0.32420  0.60400  0.57320  Biso   1.000  O
  O7       1.0000 0.32420  0.39600  0.42680  Biso   1.000  O
  O8       1.0000 0.67580  0.60400  0.92680  Biso   1.000  O
  O9       1.0000 0.22560  0.95460  0.04530  Biso   1.000  O
  O10      1.0000 0.77440  0.04540  0.54530  Biso   1.000  O
  O11      1.0000 0.77440  0.95460  0.45470  Biso   1.000  O
  O12      1.0000 0.22560  0.04540  0.95470  Biso   1.000  O
  O13      1.0000 0.72560  0.45460  0.04530  Biso   1.000  O
  O14      1.0000 0.27440  0.54540  0.54530  Biso   1.000  O
  O15      1.0000 0.27440  0.45460  0.45470  Biso   1.000  O
  O16      1.0000 0.72560  0.54540  0.95470  Biso   1.000  O
  O17      1.0000 0.32130  0.93520  0.95440  Biso   1.000  O
  O18      1.0000 0.67870  0.06480  0.45440  Biso   1.000  O
  O19      1.0000 0.67870  0.93520  0.54560  Biso   1.000  O
  O20      1.0000 0.32130  0.06480  0.04560  Biso   1.000  O
  O21      1.0000 0.82130  0.43520  0.95440  Biso   1.000  O
  O22      1.0000 0.17870  0.56480  0.45440  Biso   1.000  O
  O23      1.0000 0.17870  0.43520  0.54560  Biso   1.000  O
  O24      1.0000 0.82130  0.56480  0.04560  Biso   1.000  O
  O25      1.0000 0.23210  0.88690  0.96080  Biso   1.000  O
  O26      1.0000 0.76790  0.11310  0.46080  Biso   1.000  O
  O27      1.0000 0.76790  0.88690  0.53920  Biso   1.000  O
  O28      1.0000 0.23210  0.11310  0.03920  Biso   1.000  O
  O29      1.0000 0.73210  0.38690  0.96080  Biso   1.000  O
  O30      1.0000 0.26790  0.61310  0.46080  Biso   1.000  O
  O31      1.0000 0.26790  0.38690  0.53920  Biso   1.000  O
  O32      1.0000 0.73210  0.61310  0.03920  Biso   1.000  O
  O33      1.0000 0.38350  0.96240  0.05530  Biso   1.000  O
  O34      1.0000 0.61650  0.03760  0.55530  Biso   1.000  O
  O35      1.0000 0.61650  0.96240  0.44470  Biso   1.000  O
  O36      1.0000 0.38350  0.03760  0.94470  Biso   1.000  O
  O37      1.0000 0.88350  0.46240  0.05530  Biso   1.000  O
  O38      1.0000 0.11650  0.53760  0.55530  Biso   1.000  O
  O39      1.0000 0.11650  0.46240  0.44470  Biso   1.000  O
  O40      1.0000 0.88350  0.53760  0.94470  Biso   1.000  O
  O41      1.0000 0.45420  0.90770  0.04870  Biso   1.000  O
  O42      1.0000 0.54580  0.09230  0.54870  Biso   1.000  O
  O43      1.0000 0.54580  0.90770  0.45130  Biso   1.000  O
  O44      1.0000 0.45420  0.09230  0.95130  Biso   1.000  O
  O45      1.0000 0.95420  0.40770  0.04870  Biso   1.000  O
  O46      1.0000 0.04580  0.59230  0.54870  Biso   1.000  O
  O47      1.0000 0.04580  0.40770  0.45130  Biso   1.000  O
  O48      1.0000 0.95420  0.59230  0.95130  Biso   1.000  O
  O49      1.0000 0.26370  0.81950  0.04520  Biso   1.000  O
  O50      1.0000 0.73630  0.18050  0.54520  Biso   1.000  O
  O51      1.0000 0.73630  0.81950  0.45480  Biso   1.000  O
  O52      1.0000 0.26370  0.18050  0.95480  Biso   1.000  O
  O53      1.0000 0.76370  0.31950  0.04520  Biso   1.000  O
  O54      1.0000 0.23630  0.68050  0.54520  Biso   1.000  O
  O55      1.0000 0.23630  0.31950  0.45480  Biso   1.000  O
  O56      1.0000 0.76370  0.68050  0.95480  Biso   1.000  O
  O57      1.0000 0.36900  0.82880  0.08920  Biso   1.000  O
  O58      1.0000 0.63100  0.17120  0.58920  Biso   1.000  O
  O59      1.0000 0.63100  0.82880  0.41080  Biso   1.000  O
  O60      1.0000 0.36900  0.17120  0.91080  Biso   1.000  O
  O61      1.0000 0.86900  0.32880  0.08920  Biso   1.000  O
  O62      1.0000 0.13100  0.67120  0.58920  Biso   1.000  O
  O63      1.0000 0.13100  0.32880  0.41080  Biso   1.000  O
  O64      1.0000 0.86900  0.67120  0.91080  Biso   1.000  O
  O65      1.0000 0.38230  0.84960  0.97200  Biso   1.000  O
  O66      1.0000 0.61770  0.15040  0.47200  Biso   1.000  O
  O67      1.0000 0.61770  0.84960  0.52800  Biso   1.000  O
  O68      1.0000 0.38230  0.15040  0.02800  Biso   1.000  O
  O69      1.0000 0.88230  0.34960  0.97200  Biso   1.000  O
  O70      1.0000 0.11770  0.65040  0.47200  Biso   1.000  O
  O71      1.0000 0.11770  0.34960  0.52800  Biso   1.000  O
  O72      1.0000 0.88230  0.65040  0.02800  Biso   1.000  O
  H1       1.0000 0.38430  0.82420  0.98190  Biso   1.000  H
  H2       1.0000 0.61570  0.17580  0.48190  Biso   1.000  H
  H3       1.0000 0.61570  0.82420  0.51810  Biso   1.000  H
  H4       1.0000 0.38430  0.17580  0.01810  Biso   1.000  H
  H5       1.0000 0.88430  0.32420  0.98190  Biso   1.000  H
  H6       1.0000 0.11570  0.67580  0.48190  Biso   1.000  H
  H7       1.0000 0.11570  0.32420  0.51810  Biso   1.000  H
  H8       1.0000 0.88430  0.67580  0.01810  Biso   1.000  H
  H9       1.0000 0.35860  0.85120  0.94270  Biso   1.000  H
  H10      1.0000 0.64140  0.14880  0.44270  Biso   1.000  H
  H11      1.0000 0.64140  0.85120  0.55730  Biso   1.000  H
  H12      1.0000 0.35860  0.14880  0.05730  Biso   1.000  H
  H13      1.0000 0.85860  0.35120  0.94270  Biso   1.000  H
  H14      1.0000 0.14140  0.64880  0.44270  Biso   1.000  H
  H15      1.0000 0.14140  0.35120  0.55730  Biso   1.000  H
  H16      1.0000 0.85860  0.64880  0.05730  Biso   1.000  H
  O73      1.0000 0.31290  0.90680  0.13940  Biso   1.000  O
  O74      1.0000 0.68710  0.09320  0.63940  Biso   1.000  O
  O75      1.0000 0.68710  0.90680  0.36060  Biso   1.000  O
  O76      1.0000 0.31290  0.09320  0.86060  Biso   1.000  O
  O77      1.0000 0.81290  0.40680  0.13940  Biso   1.000  O
  O78      1.0000 0.18710  0.59320  0.63940  Biso   1.000  O
  O79      1.0000 0.18710  0.40680  0.36060  Biso   1.000  O
  O80      1.0000 0.81290  0.59320  0.86060  Biso   1.000  O
  H17      1.0000 0.31470  0.88380  0.15640  Biso   1.000  H
  H18      1.0000 0.68530  0.11620  0.65640  Biso   1.000  H
  H19      1.0000 0.68530  0.88380  0.34360  Biso   1.000  H
  H20      1.0000 0.31470  0.11620  0.84360  Biso   1.000  H
  H21      1.0000 0.81470  0.38380  0.15640  Biso   1.000  H
  H22      1.0000 0.18530  0.61620  0.65640  Biso   1.000  H
  H23      1.0000 0.18530  0.38380  0.34360  Biso   1.000  H
  H24      1.0000 0.81470  0.61620  0.84360  Biso   1.000  H
  H25      1.0000 0.35050  0.92180  0.14750  Biso   1.000  H
  H26      1.0000 0.64950  0.07820  0.64750  Biso   1.000  H
  H27      1.0000 0.64950  0.92180  0.35250  Biso   1.000  H
  H28      1.0000 0.35050  0.07820  0.85250  Biso   1.000  H
  H29      1.0000 0.85050  0.42180  0.14750  Biso   1.000  H
  H30      1.0000 0.14950  0.57820  0.64750  Biso   1.000  H
  H31      1.0000 0.14950  0.42180  0.35250  Biso   1.000  H
  H32      1.0000 0.85050  0.57820  0.85250  Biso   1.000  H
  N1       1.0000 0.96550  0.00010  0.08660  Biso   1.000  N
  N2       1.0000 0.03450  0.99990  0.58660  Biso   1.000  N
  N3       1.0000 0.03450  0.00010  0.41340  Biso   1.000  N
  N4       1.0000 0.96550  0.99990  0.91340  Biso   1.000  N
  N5       1.0000 0.46550  0.50010  0.08660  Biso   1.000  N
  N6       1.0000 0.53450  0.49990  0.58660  Biso   1.000  N
  N7       1.0000 0.53450  0.50010  0.41340  Biso   1.000  N
  N8       1.0000 0.46550  0.49990  0.91340  Biso   1.000  N
  C1       1.0000 0.96920  0.95710  0.09430  Biso   1.000  C
  C2       1.0000 0.03080  0.04290  0.59430  Biso   1.000  C
  C3       1.0000 0.03080  0.95710  0.40570  Biso   1.000  C
  C4       1.0000 0.96920  0.04290  0.90570  Biso   1.000  C
  C5       1.0000 0.46920  0.45710  0.09430  Biso   1.000  C
  C6       1.0000 0.53080  0.54290  0.59430  Biso   1.000  C
  C7       1.0000 0.53080  0.45710  0.40570  Biso   1.000  C
  C8       1.0000 0.46920  0.54290  0.90570  Biso   1.000  C
  H33      1.0000 0.92580  0.94200  0.10480  Biso   1.000  H
  H34      1.0000 0.07420  0.05800  0.60480  Biso   1.000  H
  H35      1.0000 0.07420  0.94200  0.39520  Biso   1.000  H
  H36      1.0000 0.92580  0.05800  0.89520  Biso   1.000  H
  H37      1.0000 0.42580  0.44200  0.10480  Biso   1.000  H
  H38      1.0000 0.57420  0.55800  0.60480  Biso   1.000  H
  H39      1.0000 0.57420  0.44200  0.39520  Biso   1.000  H
  H40      1.0000 0.42580  0.55800  0.89520  Biso   1.000  H
  C9       1.0000 0.03640  0.93600  0.08690  Biso   1.000  C
  C10      1.0000 0.96360  0.06400  0.58690  Biso   1.000  C
  C11      1.0000 0.96360  0.93600  0.41310  Biso   1.000  C
  C12      1.0000 0.03640  0.06400  0.91310  Biso   1.000  C
  C13      1.0000 0.53640  0.43600  0.08690  Biso   1.000  C
  C14      1.0000 0.46360  0.56400  0.58690  Biso   1.000  C
  C15      1.0000 0.46360  0.43600  0.41310  Biso   1.000  C
  C16      1.0000 0.53640  0.56400  0.91310  Biso   1.000  C
  H41      1.0000 0.03890  0.90660  0.09220  Biso   1.000  H
  H42      1.0000 0.96110  0.09340  0.59220  Biso   1.000  H
  H43      1.0000 0.96110  0.90660  0.40780  Biso   1.000  H
  H44      1.0000 0.03890  0.09340  0.90780  Biso   1.000  H
  H45      1.0000 0.53890  0.40660  0.09220  Biso   1.000  H
  H46      1.0000 0.46110  0.59340  0.59220  Biso   1.000  H
  H47      1.0000 0.46110  0.40660  0.40780  Biso   1.000  H
  H48      1.0000 0.53890  0.59340  0.90780  Biso   1.000  H
  C17      1.0000 0.09990  0.95810  0.07160  Biso   1.000  C
  C18      1.0000 0.90010  0.04190  0.57160  Biso   1.000  C
  C19      1.0000 0.90010  0.95810  0.42840  Biso   1.000  C
  C20      1.0000 0.09990  0.04190  0.92840  Biso   1.000  C
  C21      1.0000 0.59990  0.45810  0.07160  Biso   1.000  C
  C22      1.0000 0.40010  0.54190  0.57160  Biso   1.000  C
  C23      1.0000 0.40010  0.45810  0.42840  Biso   1.000  C
  C24      1.0000 0.59990  0.54190  0.92840  Biso   1.000  C
  C25      1.0000 0.09620  0.00110  0.06380  Biso   1.000  C
  C26      1.0000 0.90380  0.99890  0.56380  Biso   1.000  C
  C27      1.0000 0.90380  0.00110  0.43620  Biso   1.000  C
  C28      1.0000 0.09620  0.99890  0.93620  Biso   1.000  C
  C29      1.0000 0.59620  0.50110  0.06380  Biso   1.000  C
  C30      1.0000 0.40380  0.49890  0.56380  Biso   1.000  C
  C31      1.0000 0.40380  0.50110  0.43620  Biso   1.000  C
  C32      1.0000 0.59620  0.49890  0.93620  Biso   1.000  C
  H49      1.0000 0.13950  0.01620  0.05340  Biso   1.000  H
  H50      1.0000 0.86050  0.98380  0.55340  Biso   1.000  H
  H51      1.0000 0.86050  0.01620  0.44660  Biso   1.000  H
  H52      1.0000 0.13950  0.98380  0.94660  Biso   1.000  H
  H53      1.0000 0.63950  0.51620  0.05340  Biso   1.000  H
  H54      1.0000 0.36050  0.48380  0.55340  Biso   1.000  H
  H55      1.0000 0.36050  0.51620  0.44660  Biso   1.000  H
  H56      1.0000 0.63950  0.48380  0.94660  Biso   1.000  H
  C33      1.0000 0.02890  0.02210  0.07130  Biso   1.000  C
  C34      1.0000 0.97110  0.97790  0.57130  Biso   1.000  C
  C35      1.0000 0.97110  0.02210  0.42870  Biso   1.000  C
  C36      1.0000 0.02890  0.97790  0.92870  Biso   1.000  C
  C37      1.0000 0.52890  0.52210  0.07130  Biso   1.000  C
  C38      1.0000 0.47110  0.47790  0.57130  Biso   1.000  C
  C39      1.0000 0.47110  0.52210  0.42870  Biso   1.000  C
  C40      1.0000 0.52890  0.47790  0.92870  Biso   1.000  C
  H57      1.0000 0.02640  0.05160  0.06600  Biso   1.000  H
  H58      1.0000 0.97360  0.94840  0.56600  Biso   1.000  H
  H59      1.0000 0.97360  0.05160  0.43400  Biso   1.000  H
  H60      1.0000 0.02640  0.94840  0.93400  Biso   1.000  H
  H61      1.0000 0.52640  0.55160  0.06600  Biso   1.000  H
  H62      1.0000 0.47360  0.44840  0.56600  Biso   1.000  H
  H63      1.0000 0.47360  0.55160  0.43400  Biso   1.000  H
  H64      1.0000 0.52640  0.44840  0.93400  Biso   1.000  H
  C41      1.0000 0.17330  0.93280  0.06290  Biso   1.000  C
  C42      1.0000 0.82670  0.06720  0.56290  Biso   1.000  C
  C43      1.0000 0.82670  0.93280  0.43710  Biso   1.000  C
  C44      1.0000 0.17330  0.06720  0.93710  Biso   1.000  C
  C45      1.0000 0.67330  0.43280  0.06290  Biso   1.000  C
  C46      1.0000 0.32670  0.56720  0.56290  Biso   1.000  C
  C47      1.0000 0.32670  0.43280  0.43710  Biso   1.000  C
  C48      1.0000 0.67330  0.56720  0.93710  Biso   1.000  C
  N9       1.0000 0.19730  0.94020  0.77480  Biso   1.000  N
  N10      1.0000 0.80270  0.05980  0.27480  Biso   1.000  N
  N11      1.0000 0.80270  0.94020  0.72520  Biso   1.000  N
  N12      1.0000 0.19730  0.05980  0.22520  Biso   1.000  N
  N13      1.0000 0.69730  0.44020  0.77480  Biso   1.000  N
  N14      1.0000 0.30270  0.55980  0.27480  Biso   1.000  N
  N15      1.0000 0.30270  0.44020  0.72520  Biso   1.000  N
  N16      1.0000 0.69730  0.55980  0.22520  Biso   1.000  N
  C49      1.0000 0.25030  0.96590  0.79870  Biso   1.000  C
  C50      1.0000 0.74970  0.03410  0.29870  Biso   1.000  C
  C51      1.0000 0.74970  0.96590  0.70130  Biso   1.000  C
  C52      1.0000 0.25030  0.03410  0.20130  Biso   1.000  C
  C53      1.0000 0.75030  0.46590  0.79870  Biso   1.000  C
  C54      1.0000 0.24970  0.53410  0.29870  Biso   1.000  C
  C55      1.0000 0.24970  0.46590  0.70130  Biso   1.000  C
  C56      1.0000 0.75030  0.53410  0.20130  Biso   1.000  C
  H65      1.0000 0.27200  0.98830  0.77910  Biso   1.000  H
  H66      1.0000 0.72800  0.01170  0.27910  Biso   1.000  H
  H67      1.0000 0.72800  0.98830  0.72090  Biso   1.000  H
  H68      1.0000 0.27200  0.01170  0.22090  Biso   1.000  H
  H69      1.0000 0.77200  0.48830  0.77910  Biso   1.000  H
  H70      1.0000 0.22800  0.51170  0.27910  Biso   1.000  H
  H71      1.0000 0.22800  0.48830  0.72090  Biso   1.000  H
  H72      1.0000 0.77200  0.51170  0.22090  Biso   1.000  H
  C57      1.0000 0.27170  0.95880  0.85120  Biso   1.000  C
  C58      1.0000 0.72830  0.04120  0.35120  Biso   1.000  C
  C59      1.0000 0.72830  0.95880  0.64880  Biso   1.000  C
  C60      1.0000 0.27170  0.04120  0.14880  Biso   1.000  C
  C61      1.0000 0.77170  0.45880  0.85120  Biso   1.000  C
  C62      1.0000 0.22830  0.54120  0.35120  Biso   1.000  C
  C63      1.0000 0.22830  0.45880  0.64880  Biso   1.000  C
  C64      1.0000 0.77170  0.54120  0.14880  Biso   1.000  C
  H73      1.0000 0.30800  0.97630  0.86750  Biso   1.000  H
  H74      1.0000 0.69200  0.02370  0.36750  Biso   1.000  H
  H75      1.0000 0.69200  0.97630  0.63250  Biso   1.000  H
  H76      1.0000 0.30800  0.02370  0.13250  Biso   1.000  H
  H77      1.0000 0.80800  0.47630  0.86750  Biso   1.000  H
  H78      1.0000 0.19200  0.52370  0.36750  Biso   1.000  H
  H79      1.0000 0.19200  0.47630  0.63250  Biso   1.000  H
  H80      1.0000 0.80800  0.52370  0.13250  Biso   1.000  H
  C65      1.0000 0.24000  0.92600  0.87980  Biso   1.000  C
  C66      1.0000 0.76000  0.07400  0.37980  Biso   1.000  C
  C67      1.0000 0.76000  0.92600  0.62020  Biso   1.000  C
  C68      1.0000 0.24000  0.07400  0.12020  Biso   1.000  C
  C69      1.0000 0.74000  0.42600  0.87980  Biso   1.000  C
  C70      1.0000 0.26000  0.57400  0.37980  Biso   1.000  C
  C71      1.0000 0.26000  0.42600  0.62020  Biso   1.000  C
  C72      1.0000 0.74000  0.57400  0.12020  Biso   1.000  C
  C73      1.0000 0.18690  0.90040  0.85600  Biso   1.000  C
  C74      1.0000 0.81310  0.09960  0.35600  Biso   1.000  C
  C75      1.0000 0.81310  0.90040  0.64400  Biso   1.000  C
  C76      1.0000 0.18690  0.09960  0.14400  Biso   1.000  C
  C77      1.0000 0.68690  0.40040  0.85600  Biso   1.000  C
  C78      1.0000 0.31310  0.59960  0.35600  Biso   1.000  C
  C79      1.0000 0.31310  0.40040  0.64400  Biso   1.000  C
  C80      1.0000 0.68690  0.59960  0.14400  Biso   1.000  C
  H81      1.0000 0.16520  0.87800  0.87550  Biso   1.000  H
  H82      1.0000 0.83480  0.12200  0.37550  Biso   1.000  H
  H83      1.0000 0.83480  0.87800  0.62450  Biso   1.000  H
  H84      1.0000 0.16520  0.12200  0.12450  Biso   1.000  H
  H85      1.0000 0.66520  0.37800  0.87550  Biso   1.000  H
  H86      1.0000 0.33480  0.62200  0.37550  Biso   1.000  H
  H87      1.0000 0.33480  0.37800  0.62450  Biso   1.000  H
  H88      1.0000 0.66520  0.62200  0.12450  Biso   1.000  H
  C81      1.0000 0.16550  0.90750  0.80340  Biso   1.000  C
  C82      1.0000 0.83450  0.09250  0.30340  Biso   1.000  C
  C83      1.0000 0.83450  0.90750  0.69660  Biso   1.000  C
  C84      1.0000 0.16550  0.09250  0.19660  Biso   1.000  C
  C85      1.0000 0.66550  0.40750  0.80340  Biso   1.000  C
  C86      1.0000 0.33450  0.59250  0.30340  Biso   1.000  C
  C87      1.0000 0.33450  0.40750  0.69660  Biso   1.000  C
  C88      1.0000 0.66550  0.59250  0.19660  Biso   1.000  C
  H89      1.0000 0.12930  0.88990  0.78710  Biso   1.000  H
  H90      1.0000 0.87070  0.11010  0.28710  Biso   1.000  H
  H91      1.0000 0.87070  0.88990  0.71290  Biso   1.000  H
  H92      1.0000 0.12930  0.11010  0.21290  Biso   1.000  H
  H93      1.0000 0.62930  0.38990  0.78710  Biso   1.000  H
  H94      1.0000 0.37070  0.61010  0.28710  Biso   1.000  H
  H95      1.0000 0.37070  0.38990  0.71290  Biso   1.000  H
  H96      1.0000 0.62930  0.61010  0.21290  Biso   1.000  H
  C89      1.0000 0.26240  0.91570  0.93550  Biso   1.000  C
  C90      1.0000 0.73760  0.08430  0.43550  Biso   1.000  C
  C91      1.0000 0.73760  0.91570  0.56450  Biso   1.000  C
  C92      1.0000 0.26240  0.08430  0.06450  Biso   1.000  C
  C93      1.0000 0.76240  0.41570  0.93550  Biso   1.000  C
  C94      1.0000 0.23760  0.58430  0.43550  Biso   1.000  C
  C95      1.0000 0.23760  0.41570  0.56450  Biso   1.000  C
  C96      1.0000 0.76240  0.58430  0.06450  Biso   1.000  C
  N17      1.0000 0.63950  0.02160  0.08210  Biso   1.000  N
  N18      1.0000 0.36050  0.97840  0.58210  Biso   1.000  N
  N19      1.0000 0.36050  0.02160  0.41790  Biso   1.000  N
  N20      1.0000 0.63950  0.97840  0.91790  Biso   1.000  N
  N21      1.0000 0.13950  0.52160  0.08210  Biso   1.000  N
  N22      1.0000 0.86050  0.47840  0.58210  Biso   1.000  N
  N23      1.0000 0.86050  0.52160  0.41790  Biso   1.000  N
  N24      1.0000 0.13950  0.47840  0.91790  Biso   1.000  N
  C97      1.0000 0.56870  0.03810  0.09050  Biso   1.000  C
  C98      1.0000 0.43130  0.96190  0.59050  Biso   1.000  C
  C99      1.0000 0.43130  0.03810  0.40950  Biso   1.000  C
  C100     1.0000 0.56870  0.96190  0.90950  Biso   1.000  C
  C101     1.0000 0.06870  0.53810  0.09050  Biso   1.000  C
  C102     1.0000 0.93130  0.46190  0.59050  Biso   1.000  C
  C103     1.0000 0.93130  0.53810  0.40950  Biso   1.000  C
  C104     1.0000 0.06870  0.46190  0.90950  Biso   1.000  C
  H97      1.0000 0.56330  0.06610  0.10290  Biso   1.000  H
  H98      1.0000 0.43670  0.93390  0.60290  Biso   1.000  H
  H99      1.0000 0.43670  0.06610  0.39710  Biso   1.000  H
  H100     1.0000 0.56330  0.93390  0.89710  Biso   1.000  H
  H101     1.0000 0.06330  0.56610  0.10290  Biso   1.000  H
  H102     1.0000 0.93670  0.43390  0.60290  Biso   1.000  H
  H103     1.0000 0.93670  0.56610  0.39710  Biso   1.000  H
  H104     1.0000 0.06330  0.43390  0.89710  Biso   1.000  H
  C105     1.0000 0.50570  0.01380  0.08080  Biso   1.000  C
  C106     1.0000 0.49430  0.98620  0.58080  Biso   1.000  C
  C107     1.0000 0.49430  0.01380  0.41920  Biso   1.000  C
  C108     1.0000 0.50570  0.98620  0.91920  Biso   1.000  C
  C109     1.0000 0.00570  0.51380  0.08080  Biso   1.000  C
  C110     1.0000 0.99430  0.48620  0.58080  Biso   1.000  C
  C111     1.0000 0.99430  0.51380  0.41920  Biso   1.000  C
  C112     1.0000 0.00570  0.48620  0.91920  Biso   1.000  C
  H105     1.0000 0.45730  0.02510  0.08660  Biso   1.000  H
  H106     1.0000 0.54270  0.97490  0.58660  Biso   1.000  H
  H107     1.0000 0.54270  0.02510  0.41340  Biso   1.000  H
  H108     1.0000 0.45730  0.97490  0.91340  Biso   1.000  H
  H109     1.0000 0.95730  0.52510  0.08660  Biso   1.000  H
  H110     1.0000 0.04270  0.47490  0.58660  Biso   1.000  H
  H111     1.0000 0.04270  0.52510  0.41340  Biso   1.000  H
  H112     1.0000 0.95730  0.47490  0.91340  Biso   1.000  H
  C113     1.0000 0.51360  0.97290  0.06270  Biso   1.000  C
  C114     1.0000 0.48640  0.02710  0.56270  Biso   1.000  C
  C115     1.0000 0.48640  0.97290  0.43730  Biso   1.000  C
  C116     1.0000 0.51360  0.02710  0.93730  Biso   1.000  C
  C117     1.0000 0.01360  0.47290  0.06270  Biso   1.000  C
  C118     1.0000 0.98640  0.52710  0.56270  Biso   1.000  C
  C119     1.0000 0.98640  0.47290  0.43730  Biso   1.000  C
  C120     1.0000 0.01360  0.52710  0.93730  Biso   1.000  C
  C121     1.0000 0.58450  0.95630  0.05430  Biso   1.000  C
  C122     1.0000 0.41550  0.04370  0.55430  Biso   1.000  C
  C123     1.0000 0.41550  0.95630  0.44570  Biso   1.000  C
  C124     1.0000 0.58450  0.04370  0.94570  Biso   1.000  C
  C125     1.0000 0.08450  0.45630  0.05430  Biso   1.000  C
  C126     1.0000 0.91550  0.54370  0.55430  Biso   1.000  C
  C127     1.0000 0.91550  0.45630  0.44570  Biso   1.000  C
  C128     1.0000 0.08450  0.54370  0.94570  Biso   1.000  C
  H113     1.0000 0.58990  0.92840  0.04190  Biso   1.000  H
  H114     1.0000 0.41010  0.07160  0.54190  Biso   1.000  H
  H115     1.0000 0.41010  0.92840  0.45810  Biso   1.000  H
  H116     1.0000 0.58990  0.07160  0.95810  Biso   1.000  H
  H117     1.0000 0.08990  0.42840  0.04190  Biso   1.000  H
  H118     1.0000 0.91010  0.57160  0.54190  Biso   1.000  H
  H119     1.0000 0.91010  0.42840  0.45810  Biso   1.000  H
  H120     1.0000 0.08990  0.57160  0.95810  Biso   1.000  H
  C129     1.0000 0.64740  0.98070  0.06400  Biso   1.000  C
  C130     1.0000 0.35260  0.01930  0.56400  Biso   1.000  C
  C131     1.0000 0.35260  0.98070  0.43600  Biso   1.000  C
  C132     1.0000 0.64740  0.01930  0.93600  Biso   1.000  C
  C133     1.0000 0.14740  0.48070  0.06400  Biso   1.000  C
  C134     1.0000 0.85260  0.51930  0.56400  Biso   1.000  C
  C135     1.0000 0.85260  0.48070  0.43600  Biso   1.000  C
  C136     1.0000 0.14740  0.51930  0.93600  Biso   1.000  C
  H121     1.0000 0.69590  0.96940  0.05820  Biso   1.000  H
  H122     1.0000 0.30410  0.03060  0.55820  Biso   1.000  H
  H123     1.0000 0.30410  0.96940  0.44180  Biso   1.000  H
  H124     1.0000 0.69590  0.03060  0.94180  Biso   1.000  H
  H125     1.0000 0.19590  0.46940  0.05820  Biso   1.000  H
  H126     1.0000 0.80410  0.53060  0.55820  Biso   1.000  H
  H127     1.0000 0.80410  0.46940  0.44180  Biso   1.000  H
  H128     1.0000 0.19590  0.53060  0.94180  Biso   1.000  H
  C137     1.0000 0.44580  0.94440  0.05880  Biso   1.000  C
  C138     1.0000 0.55420  0.05560  0.55880  Biso   1.000  C
  C139     1.0000 0.55420  0.94440  0.44120  Biso   1.000  C
  C140     1.0000 0.44580  0.05560  0.94120  Biso   1.000  C
  C141     1.0000 0.94580  0.44440  0.05880  Biso   1.000  C
  C142     1.0000 0.05420  0.55560  0.55880  Biso   1.000  C
  C143     1.0000 0.05420  0.44440  0.44120  Biso   1.000  C
  C144     1.0000 0.94580  0.55560  0.94120  Biso   1.000  C
  N25      1.0000 0.33530  0.67220  0.09390  Biso   1.000  N
  N26      1.0000 0.66470  0.32780  0.59390  Biso   1.000  N
  N27      1.0000 0.66470  0.67220  0.40610  Biso   1.000  N
  N28      1.0000 0.33530  0.32780  0.90610  Biso   1.000  N
  N29      1.0000 0.83530  0.17220  0.09390  Biso   1.000  N
  N30      1.0000 0.16470  0.82780  0.59390  Biso   1.000  N
  N31      1.0000 0.16470  0.17220  0.40610  Biso   1.000  N
  N32      1.0000 0.83530  0.82780  0.90610  Biso   1.000  N
  C145     1.0000 0.28020  0.68820  0.06050  Biso   1.000  C
  C146     1.0000 0.71980  0.31180  0.56050  Biso   1.000  C
  C147     1.0000 0.71980  0.68820  0.43950  Biso   1.000  C
  C148     1.0000 0.28020  0.31180  0.93950  Biso   1.000  C
  C149     1.0000 0.78020  0.18820  0.06050  Biso   1.000  C
  C150     1.0000 0.21980  0.81180  0.56050  Biso   1.000  C
  C151     1.0000 0.21980  0.18820  0.43950  Biso   1.000  C
  C152     1.0000 0.78020  0.81180  0.93950  Biso   1.000  C
  H129     1.0000 0.24680  0.66970  0.04290  Biso   1.000  H
  H130     1.0000 0.75320  0.33030  0.54290  Biso   1.000  H
  H131     1.0000 0.75320  0.66970  0.45710  Biso   1.000  H
  H132     1.0000 0.24680  0.33030  0.95710  Biso   1.000  H
  H133     1.0000 0.74680  0.16970  0.04290  Biso   1.000  H
  H134     1.0000 0.25320  0.83030  0.54290  Biso   1.000  H
  H135     1.0000 0.25320  0.16970  0.45710  Biso   1.000  H
  H136     1.0000 0.74680  0.83030  0.95710  Biso   1.000  H
  C153     1.0000 0.27420  0.73120  0.05290  Biso   1.000  C
  C154     1.0000 0.72580  0.26880  0.55290  Biso   1.000  C
  C155     1.0000 0.72580  0.73120  0.44710  Biso   1.000  C
  C156     1.0000 0.27420  0.26880  0.94710  Biso   1.000  C
  C157     1.0000 0.77420  0.23120  0.05290  Biso   1.000  C
  C158     1.0000 0.22580  0.76880  0.55290  Biso   1.000  C
  C159     1.0000 0.22580  0.23120  0.44710  Biso   1.000  C
  C160     1.0000 0.77420  0.76880  0.94710  Biso   1.000  C
  H137     1.0000 0.23650  0.74210  0.03010  Biso   1.000  H
  H138     1.0000 0.76350  0.25790  0.53010  Biso   1.000  H
  H139     1.0000 0.76350  0.74210  0.46990  Biso   1.000  H
  H140     1.0000 0.23650  0.25790  0.96990  Biso   1.000  H
  H141     1.0000 0.73650  0.24210  0.03010  Biso   1.000  H
  H142     1.0000 0.26350  0.75790  0.53010  Biso   1.000  H
  H143     1.0000 0.26350  0.24210  0.46990  Biso   1.000  H
  H144     1.0000 0.73650  0.75790  0.96990  Biso   1.000  H
  C161     1.0000 0.32310  0.75820  0.07880  Biso   1.000  C
  C162     1.0000 0.67690  0.24180  0.57880  Biso   1.000  C
  C163     1.0000 0.67690  0.75820  0.42120  Biso   1.000  C
  C164     1.0000 0.32310  0.24180  0.92120  Biso   1.000  C
  C165     1.0000 0.82310  0.25820  0.07880  Biso   1.000  C
  C166     1.0000 0.17690  0.74180  0.57880  Biso   1.000  C
  C167     1.0000 0.17690  0.25820  0.42120  Biso   1.000  C
  C168     1.0000 0.82310  0.74180  0.92120  Biso   1.000  C
  C169     1.0000 0.37820  0.74220  0.11220  Biso   1.000  C
  C170     1.0000 0.62180  0.25780  0.61220  Biso   1.000  C
  C171     1.0000 0.62180  0.74220  0.38780  Biso   1.000  C
  C172     1.0000 0.37820  0.25780  0.88780  Biso   1.000  C
  C173     1.0000 0.87820  0.24220  0.11220  Biso   1.000  C
  C174     1.0000 0.12180  0.75780  0.61220  Biso   1.000  C
  C175     1.0000 0.12180  0.24220  0.38780  Biso   1.000  C
  C176     1.0000 0.87820  0.75780  0.88780  Biso   1.000  C
  H145     1.0000 0.41170  0.76070  0.12980  Biso   1.000  H
  H146     1.0000 0.58830  0.23930  0.62980  Biso   1.000  H
  H147     1.0000 0.58830  0.76070  0.37020  Biso   1.000  H
  H148     1.0000 0.41170  0.23930  0.87020  Biso   1.000  H
  H149     1.0000 0.91170  0.26070  0.12980  Biso   1.000  H
  H150     1.0000 0.08830  0.73930  0.62980  Biso   1.000  H
  H151     1.0000 0.08830  0.26070  0.37020  Biso   1.000  H
  H152     1.0000 0.91170  0.73930  0.87020  Biso   1.000  H
  C177     1.0000 0.38430  0.69920  0.11970  Biso   1.000  C
  C178     1.0000 0.61570  0.30080  0.61970  Biso   1.000  C
  C179     1.0000 0.61570  0.69920  0.38030  Biso   1.000  C
  C180     1.0000 0.38430  0.30080  0.88030  Biso   1.000  C
  C181     1.0000 0.88430  0.19920  0.11970  Biso   1.000  C
  C182     1.0000 0.11570  0.80080  0.61970  Biso   1.000  C
  C183     1.0000 0.11570  0.19920  0.38030  Biso   1.000  C
  C184     1.0000 0.88430  0.80080  0.88030  Biso   1.000  C
  H153     1.0000 0.42190  0.68830  0.14250  Biso   1.000  H
  H154     1.0000 0.57810  0.31170  0.64250  Biso   1.000  H
  H155     1.0000 0.57810  0.68830  0.35750  Biso   1.000  H
  H156     1.0000 0.42190  0.31170  0.85750  Biso   1.000  H
  H157     1.0000 0.92190  0.18830  0.14250  Biso   1.000  H
  H158     1.0000 0.07810  0.81170  0.64250  Biso   1.000  H
  H159     1.0000 0.07810  0.18830  0.35750  Biso   1.000  H
  H160     1.0000 0.92190  0.81170  0.85750  Biso   1.000  H
  C185     1.0000 0.31570  0.80500  0.07070  Biso   1.000  C
  C186     1.0000 0.68430  0.19500  0.57070  Biso   1.000  C
  C187     1.0000 0.68430  0.80500  0.42930  Biso   1.000  C
  C188     1.0000 0.31570  0.19500  0.92930  Biso   1.000  C
  C189     1.0000 0.81570  0.30500  0.07070  Biso   1.000  C
  C190     1.0000 0.18430  0.69500  0.57070  Biso   1.000  C
  C191     1.0000 0.18430  0.30500  0.42930  Biso   1.000  C
  C192     1.0000 0.81570  0.69500  0.92930  Biso   1.000  C
  Na1      1.0000 0.30700  0.00000  0.00000  Biso   1.000  Na
  Na2      1.0000 0.69300  0.00000  0.50000  Biso   1.000  Na
  Na3      1.0000 0.80700  0.50000  0.00000  Biso   1.000  Na
  Na4      1.0000 0.19300  0.50000  0.50000  Biso   1.000  Na
  O81      1.0000 0.43800  0.87100  0.87200  Biso   1.000  O
  O82      1.0000 0.56200  0.12900  0.37200  Biso   1.000  O
  O83      1.0000 0.56200  0.87100  0.62800  Biso   1.000  O
  O84      1.0000 0.43800  0.12900  0.12800  Biso   1.000  O
  O85      1.0000 0.93800  0.37100  0.87200  Biso   1.000  O
  O86      1.0000 0.06200  0.62900  0.37200  Biso   1.000  O
  O87      1.0000 0.06200  0.37100  0.62800  Biso   1.000  O
  O88      1.0000 0.93800  0.62900  0.12800  Biso   1.000  O
  O89      1.0000 0.51100  0.84800  0.11800  Biso   1.000  O
  O90      1.0000 0.48900  0.15200  0.61800  Biso   1.000  O
  O91      1.0000 0.48900  0.84800  0.38200  Biso   1.000  O
  O92      1.0000 0.51100  0.15200  0.88200  Biso   1.000  O
  O93      1.0000 0.01100  0.34800  0.11800  Biso   1.000  O
  O94      1.0000 0.98900  0.65200  0.61800  Biso   1.000  O
  O95      1.0000 0.98900  0.34800  0.38200  Biso   1.000  O
  O96      1.0000 0.01100  0.65200  0.88200  Biso   1.000  O
  O97      1.0000 0.18400  0.78400  0.92200  Biso   1.000  O
  O98      1.0000 0.81600  0.21600  0.42200  Biso   1.000  O
  O99      1.0000 0.81600  0.78400  0.57800  Biso   1.000  O
  O100     1.0000 0.18400  0.21600  0.07800  Biso   1.000  O
  O101     1.0000 0.68400  0.28400  0.92200  Biso   1.000  O
  O102     1.0000 0.31600  0.71600  0.42200  Biso   1.000  O
  O103     1.0000 0.31600  0.28400  0.57800  Biso   1.000  O
  O104     1.0000 0.68400  0.71600  0.07800  Biso   1.000  O
  O105     1.0000 0.00000  0.97300  0.25000  Biso   1.000  O
  O106     1.0000 0.00000  0.02700  0.75000  Biso   1.000  O
  O107     1.0000 0.50000  0.47300  0.25000  Biso   1.000  O
  O108     1.0000 0.50000  0.52700  0.75000  Biso   1.000  O
  Na5      1.0000 0.05700  0.84500  0.97400  Biso   1.000  Na
  Na6      1.0000 0.94300  0.15500  0.47400  Biso   1.000  Na
  Na7      1.0000 0.94300  0.84500  0.52600  Biso   1.000  Na
  Na8      1.0000 0.05700  0.15500  0.02600  Biso   1.000  Na
  Na9      1.0000 0.55700  0.34500  0.97400  Biso   1.000  Na
  Na10     1.0000 0.44300  0.65500  0.47400  Biso   1.000  Na
  Na11     1.0000 0.44300  0.34500  0.52600  Biso   1.000  Na
  Na12     1.0000 0.55700  0.65500  0.02600  Biso   1.000  Na
  O109     1.0000 0.36200  0.83900  0.88500  Biso   1.000  O
  O110     1.0000 0.63800  0.16100  0.38500  Biso   1.000  O
  O111     1.0000 0.63800  0.83900  0.61500  Biso   1.000  O
  O112     1.0000 0.36200  0.16100  0.11500  Biso   1.000  O
  O113     1.0000 0.86200  0.33900  0.88500  Biso   1.000  O
  O114     1.0000 0.13800  0.66100  0.38500  Biso   1.000  O
  O115     1.0000 0.13800  0.33900  0.61500  Biso   1.000  O
  O116     1.0000 0.86200  0.66100  0.11500  Biso   1.000  O
  Na13     1.0000 0.03000  0.82600  0.02000  Biso   1.000  Na
  Na14     1.0000 0.97000  0.17400  0.52000  Biso   1.000  Na
  Na15     1.0000 0.97000  0.82600  0.48000  Biso   1.000  Na
  Na16     1.0000 0.03000  0.17400  0.98000  Biso   1.000  Na
  Na17     1.0000 0.53000  0.32600  0.02000  Biso   1.000  Na
  Na18     1.0000 0.47000  0.67400  0.52000  Biso   1.000  Na
  Na19     1.0000 0.47000  0.32600  0.48000  Biso   1.000  Na
  Na20     1.0000 0.53000  0.67400  0.98000  Biso   1.000  Na
