data_image0
_cell_length_a       20.889
_cell_length_b       18.004
_cell_length_c       10.913
_cell_angle_alpha    90
_cell_angle_beta     91.36
_cell_angle_gamma    90

_symmetry_space_group_name_H-M    "P 1"
_symmetry_int_tables_number       1

loop_
  _symmetry_equiv_pos_as_xyz
  'x, y, z'

loop_
  _atom_site_label
  _atom_site_occupancy
  _atom_site_fract_x
  _atom_site_fract_y
  _atom_site_fract_z
  _atom_site_thermal_displace_type
  _atom_site_B_iso_or_equiv
  _atom_site_type_symbol
  Zn1      1.0000 0.75490  0.66837  0.97752  Biso   1.000  Zn
  Zn2      1.0000 0.24510  0.66837  0.02248  Biso   1.000  Zn
  Zn3      1.0000 0.25490  0.16837  0.97752  Biso   1.000  Zn
  Zn4      1.0000 0.74510  0.16837  0.02248  Biso   1.000  Zn
  Zn5      1.0000 0.24510  0.33163  0.02248  Biso   1.000  Zn
  Zn6      1.0000 0.75490  0.33163  0.97752  Biso   1.000  Zn
  Zn7      1.0000 0.74510  0.83163  0.02248  Biso   1.000  Zn
  Zn8      1.0000 0.25490  0.83163  0.97752  Biso   1.000  Zn
  N1       1.0000 0.46493  0.55980  0.16690  Biso   1.000  N
  N2       1.0000 0.53507  0.55980  0.83310  Biso   1.000  N
  N3       1.0000 0.96493  0.05980  0.16690  Biso   1.000  N
  N4       1.0000 0.03507  0.05980  0.83310  Biso   1.000  N
  N5       1.0000 0.53507  0.44020  0.83310  Biso   1.000  N
  N6       1.0000 0.46493  0.44020  0.16690  Biso   1.000  N
  N7       1.0000 0.03507  0.94020  0.83310  Biso   1.000  N
  N8       1.0000 0.96493  0.94020  0.16690  Biso   1.000  N
  C1       1.0000 0.50350  0.50000  0.18340  Biso   1.000  C
  C2       1.0000 0.49650  0.50000  0.81660  Biso   1.000  C
  C3       1.0000 0.00350  0.00000  0.18340  Biso   1.000  C
  C4       1.0000 0.99650  0.00000  0.81660  Biso   1.000  C
  C5       1.0000 0.40193  0.53730  0.14180  Biso   1.000  C
  C6       1.0000 0.59807  0.53730  0.85820  Biso   1.000  C
  C7       1.0000 0.90193  0.03730  0.14180  Biso   1.000  C
  C8       1.0000 0.09807  0.03730  0.85820  Biso   1.000  C
  C9       1.0000 0.59807  0.46270  0.85820  Biso   1.000  C
  C10      1.0000 0.40193  0.46270  0.14180  Biso   1.000  C
  C11      1.0000 0.09807  0.96270  0.85820  Biso   1.000  C
  C12      1.0000 0.90193  0.96270  0.14180  Biso   1.000  C
  H1       1.0000 0.36600  0.56880  0.12740  Biso   1.000  H
  H2       1.0000 0.63400  0.56880  0.87260  Biso   1.000  H
  H3       1.0000 0.86600  0.06880  0.12740  Biso   1.000  H
  H4       1.0000 0.13400  0.06880  0.87260  Biso   1.000  H
  H5       1.0000 0.63400  0.43120  0.87260  Biso   1.000  H
  H6       1.0000 0.36600  0.43120  0.12740  Biso   1.000  H
  H7       1.0000 0.13400  0.93120  0.87260  Biso   1.000  H
  H8       1.0000 0.86600  0.93120  0.12740  Biso   1.000  H
  C13      1.0000 0.48735  0.63490  0.17070  Biso   1.000  C
  C14      1.0000 0.51265  0.63490  0.82930  Biso   1.000  C
  C15      1.0000 0.98735  0.13490  0.17070  Biso   1.000  C
  C16      1.0000 0.01265  0.13490  0.82930  Biso   1.000  C
  C17      1.0000 0.51265  0.36510  0.82930  Biso   1.000  C
  C18      1.0000 0.48735  0.36510  0.17070  Biso   1.000  C
  C19      1.0000 0.01265  0.86510  0.82930  Biso   1.000  C
  C20      1.0000 0.98735  0.86510  0.17070  Biso   1.000  C
  C21      1.0000 0.54754  0.65050  0.12670  Biso   1.000  C
  C22      1.0000 0.45246  0.65050  0.87330  Biso   1.000  C
  C23      1.0000 0.04754  0.15050  0.12670  Biso   1.000  C
  C24      1.0000 0.95246  0.15050  0.87330  Biso   1.000  C
  C25      1.0000 0.45246  0.34950  0.87330  Biso   1.000  C
  C26      1.0000 0.54754  0.34950  0.12670  Biso   1.000  C
  C27      1.0000 0.95246  0.84950  0.87330  Biso   1.000  C
  C28      1.0000 0.04754  0.84950  0.12670  Biso   1.000  C
  H9       1.0000 0.57350  0.61180  0.09600  Biso   1.000  H
  H10      1.0000 0.42650  0.61180  0.90400  Biso   1.000  H
  H11      1.0000 0.07350  0.11180  0.09600  Biso   1.000  H
  H12      1.0000 0.92650  0.11180  0.90400  Biso   1.000  H
  H13      1.0000 0.42650  0.38820  0.90400  Biso   1.000  H
  H14      1.0000 0.57350  0.38820  0.09600  Biso   1.000  H
  H15      1.0000 0.92650  0.88820  0.90400  Biso   1.000  H
  H16      1.0000 0.07350  0.88820  0.09600  Biso   1.000  H
  C29      1.0000 0.56969  0.72340  0.12780  Biso   1.000  C
  C30      1.0000 0.43031  0.72340  0.87220  Biso   1.000  C
  C31      1.0000 0.06969  0.22340  0.12780  Biso   1.000  C
  C32      1.0000 0.93031  0.22340  0.87220  Biso   1.000  C
  C33      1.0000 0.43031  0.27660  0.87220  Biso   1.000  C
  C34      1.0000 0.56969  0.27660  0.12780  Biso   1.000  C
  C35      1.0000 0.93031  0.77660  0.87220  Biso   1.000  C
  C36      1.0000 0.06969  0.77660  0.12780  Biso   1.000  C
  C37      1.0000 0.53152  0.78000  0.17360  Biso   1.000  C
  C38      1.0000 0.46848  0.78000  0.82640  Biso   1.000  C
  C39      1.0000 0.03152  0.28000  0.17360  Biso   1.000  C
  C40      1.0000 0.96848  0.28000  0.82640  Biso   1.000  C
  C41      1.0000 0.46848  0.22000  0.82640  Biso   1.000  C
  C42      1.0000 0.53152  0.22000  0.17360  Biso   1.000  C
  C43      1.0000 0.96848  0.72000  0.82640  Biso   1.000  C
  C44      1.0000 0.03152  0.72000  0.17360  Biso   1.000  C
  H17      1.0000 0.54640  0.82980  0.17390  Biso   1.000  H
  H18      1.0000 0.45360  0.82980  0.82610  Biso   1.000  H
  H19      1.0000 0.04640  0.32980  0.17390  Biso   1.000  H
  H20      1.0000 0.95360  0.32980  0.82610  Biso   1.000  H
  H21      1.0000 0.45360  0.17020  0.82610  Biso   1.000  H
  H22      1.0000 0.54640  0.17020  0.17390  Biso   1.000  H
  H23      1.0000 0.95360  0.67020  0.82610  Biso   1.000  H
  H24      1.0000 0.04640  0.67020  0.17390  Biso   1.000  H
  C45      1.0000 0.47140  0.76290  0.21880  Biso   1.000  C
  C46      1.0000 0.52860  0.76290  0.78120  Biso   1.000  C
  C47      1.0000 0.97140  0.26290  0.21880  Biso   1.000  C
  C48      1.0000 0.02860  0.26290  0.78120  Biso   1.000  C
  C49      1.0000 0.52860  0.23710  0.78120  Biso   1.000  C
  C50      1.0000 0.47140  0.23710  0.21880  Biso   1.000  C
  C51      1.0000 0.02860  0.73710  0.78120  Biso   1.000  C
  C52      1.0000 0.97140  0.73710  0.21880  Biso   1.000  C
  H25      1.0000 0.44560  0.80140  0.25100  Biso   1.000  H
  H26      1.0000 0.55440  0.80140  0.74900  Biso   1.000  H
  H27      1.0000 0.94560  0.30140  0.25100  Biso   1.000  H
  H28      1.0000 0.05440  0.30140  0.74900  Biso   1.000  H
  H29      1.0000 0.55440  0.19860  0.74900  Biso   1.000  H
  H30      1.0000 0.44560  0.19860  0.25100  Biso   1.000  H
  H31      1.0000 0.05440  0.69860  0.74900  Biso   1.000  H
  H32      1.0000 0.94560  0.69860  0.25100  Biso   1.000  H
  C53      1.0000 0.44877  0.69030  0.21740  Biso   1.000  C
  C54      1.0000 0.55123  0.69030  0.78260  Biso   1.000  C
  C55      1.0000 0.94877  0.19030  0.21740  Biso   1.000  C
  C56      1.0000 0.05123  0.19030  0.78260  Biso   1.000  C
  C57      1.0000 0.55123  0.30970  0.78260  Biso   1.000  C
  C58      1.0000 0.44877  0.30970  0.21740  Biso   1.000  C
  C59      1.0000 0.05123  0.80970  0.78260  Biso   1.000  C
  C60      1.0000 0.94877  0.80970  0.21740  Biso   1.000  C
  H33      1.0000 0.40770  0.67890  0.24780  Biso   1.000  H
  H34      1.0000 0.59230  0.67890  0.75220  Biso   1.000  H
  H35      1.0000 0.90770  0.17890  0.24780  Biso   1.000  H
  H36      1.0000 0.09230  0.17890  0.75220  Biso   1.000  H
  H37      1.0000 0.59230  0.32110  0.75220  Biso   1.000  H
  H38      1.0000 0.40770  0.32110  0.24780  Biso   1.000  H
  H39      1.0000 0.09230  0.82110  0.75220  Biso   1.000  H
  H40      1.0000 0.90770  0.82110  0.24780  Biso   1.000  H
  C61      1.0000 0.63506  0.73860  0.07790  Biso   1.000  C
  C62      1.0000 0.36494  0.73860  0.92210  Biso   1.000  C
  C63      1.0000 0.13506  0.23860  0.07790  Biso   1.000  C
  C64      1.0000 0.86494  0.23860  0.92210  Biso   1.000  C
  C65      1.0000 0.36494  0.26140  0.92210  Biso   1.000  C
  C66      1.0000 0.63506  0.26140  0.07790  Biso   1.000  C
  C67      1.0000 0.86494  0.76140  0.92210  Biso   1.000  C
  C68      1.0000 0.13506  0.76140  0.07790  Biso   1.000  C
  O1       1.0000 0.66353  0.68352  0.03350  Biso   1.000  O
  O2       1.0000 0.33647  0.68352  0.96650  Biso   1.000  O
  O3       1.0000 0.16353  0.18352  0.03350  Biso   1.000  O
  O4       1.0000 0.83647  0.18352  0.96650  Biso   1.000  O
  O5       1.0000 0.33647  0.31648  0.96650  Biso   1.000  O
  O6       1.0000 0.66353  0.31648  0.03350  Biso   1.000  O
  O7       1.0000 0.83647  0.81648  0.96650  Biso   1.000  O
  O8       1.0000 0.16353  0.81648  0.03350  Biso   1.000  O
  O9       1.0000 0.65608  0.80402  0.08450  Biso   1.000  O
  O10      1.0000 0.34392  0.80402  0.91550  Biso   1.000  O
  O11      1.0000 0.15608  0.30402  0.08450  Biso   1.000  O
  O12      1.0000 0.84392  0.30402  0.91550  Biso   1.000  O
  O13      1.0000 0.34392  0.19598  0.91550  Biso   1.000  O
  O14      1.0000 0.65608  0.19598  0.08450  Biso   1.000  O
  O15      1.0000 0.84392  0.69598  0.91550  Biso   1.000  O
  O16      1.0000 0.15608  0.69598  0.08450  Biso   1.000  O
  N9       1.0000 0.81694  0.56004  0.55580  Biso   1.000  N
  N10      1.0000 0.18306  0.56004  0.44420  Biso   1.000  N
  N11      1.0000 0.31694  0.06004  0.55580  Biso   1.000  N
  N12      1.0000 0.68306  0.06004  0.44420  Biso   1.000  N
  N13      1.0000 0.18306  0.43996  0.44420  Biso   1.000  N
  N14      1.0000 0.81694  0.43996  0.55580  Biso   1.000  N
  N15      1.0000 0.68306  0.93996  0.44420  Biso   1.000  N
  N16      1.0000 0.31694  0.93996  0.55580  Biso   1.000  N
  C69      1.0000 0.83190  0.50000  0.48940  Biso   1.000  C
  C70      1.0000 0.16810  0.50000  0.51060  Biso   1.000  C
  C71      1.0000 0.33190  0.00000  0.48940  Biso   1.000  C
  C72      1.0000 0.66810  0.00000  0.51060  Biso   1.000  C
  H41      1.0000 0.84980  0.50000  0.41010  Biso   1.000  H
  H42      1.0000 0.15020  0.50000  0.58990  Biso   1.000  H
  H43      1.0000 0.34980  0.00000  0.41010  Biso   1.000  H
  H44      1.0000 0.65020  0.00000  0.58990  Biso   1.000  H
  C73      1.0000 0.79150  0.53760  0.66700  Biso   1.000  C
  C74      1.0000 0.20850  0.53760  0.33300  Biso   1.000  C
  C75      1.0000 0.29150  0.03760  0.66700  Biso   1.000  C
  C76      1.0000 0.70850  0.03760  0.33300  Biso   1.000  C
  C77      1.0000 0.20850  0.46240  0.33300  Biso   1.000  C
  C78      1.0000 0.79150  0.46240  0.66700  Biso   1.000  C
  C79      1.0000 0.70850  0.96240  0.33300  Biso   1.000  C
  C80      1.0000 0.29150  0.96240  0.66700  Biso   1.000  C
  H45      1.0000 0.77690  0.56900  0.73050  Biso   1.000  H
  H46      1.0000 0.22310  0.56900  0.26950  Biso   1.000  H
  H47      1.0000 0.27690  0.06900  0.73050  Biso   1.000  H
  H48      1.0000 0.72310  0.06900  0.26950  Biso   1.000  H
  H49      1.0000 0.22310  0.43100  0.26950  Biso   1.000  H
  H50      1.0000 0.77690  0.43100  0.73050  Biso   1.000  H
  H51      1.0000 0.72310  0.93100  0.26950  Biso   1.000  H
  H52      1.0000 0.27690  0.93100  0.73050  Biso   1.000  H
  C81      1.0000 0.82276  0.63500  0.51480  Biso   1.000  C
  C82      1.0000 0.17724  0.63500  0.48520  Biso   1.000  C
  C83      1.0000 0.32276  0.13500  0.51480  Biso   1.000  C
  C84      1.0000 0.67724  0.13500  0.48520  Biso   1.000  C
  C85      1.0000 0.17724  0.36500  0.48520  Biso   1.000  C
  C86      1.0000 0.82276  0.36500  0.51480  Biso   1.000  C
  C87      1.0000 0.67724  0.86500  0.48520  Biso   1.000  C
  C88      1.0000 0.32276  0.86500  0.51480  Biso   1.000  C
  C89      1.0000 0.80785  0.65120  0.39360  Biso   1.000  C
  C90      1.0000 0.19215  0.65120  0.60640  Biso   1.000  C
  C91      1.0000 0.30785  0.15120  0.39360  Biso   1.000  C
  C92      1.0000 0.69215  0.15120  0.60640  Biso   1.000  C
  C93      1.0000 0.19215  0.34880  0.60640  Biso   1.000  C
  C94      1.0000 0.80785  0.34880  0.39360  Biso   1.000  C
  C95      1.0000 0.69215  0.84880  0.60640  Biso   1.000  C
  C96      1.0000 0.30785  0.84880  0.39360  Biso   1.000  C
  H53      1.0000 0.79620  0.61260  0.33800  Biso   1.000  H
  H54      1.0000 0.20380  0.61260  0.66200  Biso   1.000  H
  H55      1.0000 0.29620  0.11260  0.33800  Biso   1.000  H
  H56      1.0000 0.70380  0.11260  0.66200  Biso   1.000  H
  H57      1.0000 0.20380  0.38740  0.66200  Biso   1.000  H
  H58      1.0000 0.79620  0.38740  0.33800  Biso   1.000  H
  H59      1.0000 0.70380  0.88740  0.66200  Biso   1.000  H
  H60      1.0000 0.29620  0.88740  0.33800  Biso   1.000  H
  C97      1.0000 0.81011  0.72470  0.35420  Biso   1.000  C
  C98      1.0000 0.18989  0.72470  0.64580  Biso   1.000  C
  C99      1.0000 0.31011  0.22470  0.35420  Biso   1.000  C
  C100     1.0000 0.68989  0.22470  0.64580  Biso   1.000  C
  C101     1.0000 0.18989  0.27530  0.64580  Biso   1.000  C
  C102     1.0000 0.81011  0.27530  0.35420  Biso   1.000  C
  C103     1.0000 0.68989  0.77530  0.64580  Biso   1.000  C
  C104     1.0000 0.31011  0.77530  0.35420  Biso   1.000  C
  C105     1.0000 0.82722  0.78100  0.43710  Biso   1.000  C
  C106     1.0000 0.17278  0.78100  0.56290  Biso   1.000  C
  C107     1.0000 0.32722  0.28100  0.43710  Biso   1.000  C
  C108     1.0000 0.67278  0.28100  0.56290  Biso   1.000  C
  C109     1.0000 0.17278  0.21900  0.56290  Biso   1.000  C
  C110     1.0000 0.82722  0.21900  0.43710  Biso   1.000  C
  C111     1.0000 0.67278  0.71900  0.56290  Biso   1.000  C
  C112     1.0000 0.32722  0.71900  0.43710  Biso   1.000  C
  H61      1.0000 0.82760  0.83130  0.41070  Biso   1.000  H
  H62      1.0000 0.17240  0.83130  0.58930  Biso   1.000  H
  H63      1.0000 0.32760  0.33130  0.41070  Biso   1.000  H
  H64      1.0000 0.67240  0.33130  0.58930  Biso   1.000  H
  H65      1.0000 0.17240  0.16870  0.58930  Biso   1.000  H
  H66      1.0000 0.82760  0.16870  0.41070  Biso   1.000  H
  H67      1.0000 0.67240  0.66870  0.58930  Biso   1.000  H
  H68      1.0000 0.32760  0.66870  0.41070  Biso   1.000  H
  C113     1.0000 0.84360  0.76350  0.55790  Biso   1.000  C
  C114     1.0000 0.15640  0.76350  0.44210  Biso   1.000  C
  C115     1.0000 0.34360  0.26350  0.55790  Biso   1.000  C
  C116     1.0000 0.65640  0.26350  0.44210  Biso   1.000  C
  C117     1.0000 0.15640  0.23650  0.44210  Biso   1.000  C
  C118     1.0000 0.84360  0.23650  0.55790  Biso   1.000  C
  C119     1.0000 0.65640  0.73650  0.44210  Biso   1.000  C
  C120     1.0000 0.34360  0.73650  0.55790  Biso   1.000  C
  H69      1.0000 0.85630  0.80180  0.61320  Biso   1.000  H
  H70      1.0000 0.14370  0.80180  0.38680  Biso   1.000  H
  H71      1.0000 0.35630  0.30180  0.61320  Biso   1.000  H
  H72      1.0000 0.64370  0.30180  0.38680  Biso   1.000  H
  H73      1.0000 0.14370  0.19820  0.38680  Biso   1.000  H
  H74      1.0000 0.85630  0.19820  0.61320  Biso   1.000  H
  H75      1.0000 0.64370  0.69820  0.38680  Biso   1.000  H
  H76      1.0000 0.35630  0.69820  0.61320  Biso   1.000  H
  C121     1.0000 0.84146  0.69010  0.59840  Biso   1.000  C
  C122     1.0000 0.15854  0.69010  0.40160  Biso   1.000  C
  C123     1.0000 0.34146  0.19010  0.59840  Biso   1.000  C
  C124     1.0000 0.65854  0.19010  0.40160  Biso   1.000  C
  C125     1.0000 0.15854  0.30990  0.40160  Biso   1.000  C
  C126     1.0000 0.84146  0.30990  0.59840  Biso   1.000  C
  C127     1.0000 0.65854  0.80990  0.40160  Biso   1.000  C
  C128     1.0000 0.34146  0.80990  0.59840  Biso   1.000  C
  H77      1.0000 0.85250  0.67780  0.68090  Biso   1.000  H
  H78      1.0000 0.14750  0.67780  0.31910  Biso   1.000  H
  H79      1.0000 0.35250  0.17780  0.68090  Biso   1.000  H
  H80      1.0000 0.64750  0.17780  0.31910  Biso   1.000  H
  H81      1.0000 0.14750  0.32220  0.31910  Biso   1.000  H
  H82      1.0000 0.85250  0.32220  0.68090  Biso   1.000  H
  H83      1.0000 0.64750  0.82220  0.31910  Biso   1.000  H
  H84      1.0000 0.35250  0.82220  0.68090  Biso   1.000  H
  C129     1.0000 0.79044  0.74170  0.22390  Biso   1.000  C
  C130     1.0000 0.20956  0.74170  0.77610  Biso   1.000  C
  C131     1.0000 0.29044  0.24170  0.22390  Biso   1.000  C
  C132     1.0000 0.70956  0.24170  0.77610  Biso   1.000  C
  C133     1.0000 0.20956  0.25830  0.77610  Biso   1.000  C
  C134     1.0000 0.79044  0.25830  0.22390  Biso   1.000  C
  C135     1.0000 0.70956  0.75830  0.77610  Biso   1.000  C
  C136     1.0000 0.29044  0.75830  0.22390  Biso   1.000  C
  O17      1.0000 0.78581  0.68706  0.15210  Biso   1.000  O
  O18      1.0000 0.21419  0.68706  0.84790  Biso   1.000  O
  O19      1.0000 0.28581  0.18706  0.15210  Biso   1.000  O
  O20      1.0000 0.71419  0.18706  0.84790  Biso   1.000  O
  O21      1.0000 0.21419  0.31294  0.84790  Biso   1.000  O
  O22      1.0000 0.78581  0.31294  0.15210  Biso   1.000  O
  O23      1.0000 0.71419  0.81294  0.84790  Biso   1.000  O
  O24      1.0000 0.28581  0.81294  0.15210  Biso   1.000  O
  O25      1.0000 0.77950  0.80885  0.19650  Biso   1.000  O
  O26      1.0000 0.22050  0.80885  0.80350  Biso   1.000  O
  O27      1.0000 0.27950  0.30885  0.19650  Biso   1.000  O
  O28      1.0000 0.72050  0.30885  0.80350  Biso   1.000  O
  O29      1.0000 0.22050  0.19115  0.80350  Biso   1.000  O
  O30      1.0000 0.77950  0.19115  0.19650  Biso   1.000  O
  O31      1.0000 0.72050  0.69115  0.80350  Biso   1.000  O
  O32      1.0000 0.27950  0.69115  0.19650  Biso   1.000  O
  O33      1.0000 0.75675  0.56070  0.94780  Biso   1.000  O
  O34      1.0000 0.24325  0.56070  0.05220  Biso   1.000  O
  O35      1.0000 0.25675  0.06070  0.94780  Biso   1.000  O
  O36      1.0000 0.74325  0.06070  0.05220  Biso   1.000  O
  O37      1.0000 0.24325  0.43930  0.05220  Biso   1.000  O
  O38      1.0000 0.75675  0.43930  0.94780  Biso   1.000  O
  O39      1.0000 0.74325  0.93930  0.05220  Biso   1.000  O
  O40      1.0000 0.25675  0.93930  0.94780  Biso   1.000  O
  C137     1.0000 0.75490  0.50000  0.00010  Biso   1.000  C
  C138     1.0000 0.24510  0.50000  0.99990  Biso   1.000  C
  C139     1.0000 0.25490  0.00000  0.00010  Biso   1.000  C
  C140     1.0000 0.74510  0.00000  0.99990  Biso   1.000  C
  H85      1.0000 0.75180  0.50000  0.08680  Biso   1.000  H
  H86      1.0000 0.24820  0.50000  0.91320  Biso   1.000  H
  H87      1.0000 0.25180  0.00000  0.08680  Biso   1.000  H
  H88      1.0000 0.74820  0.00000  0.91320  Biso   1.000  H
  Br1      1.0000 0.68714  0.50000  0.33560  Biso   1.000  Br
  Br2      1.0000 0.31286  0.50000  0.66440  Biso   1.000  Br
  Br3      1.0000 0.18714  0.00000  0.33560  Biso   1.000  Br
  Br4      1.0000 0.81286  0.00000  0.66440  Biso   1.000  Br
  Cu1      1.0000 0.58943  0.50000  0.24437  Biso   1.000  Cu
  Cu2      1.0000 0.41057  0.50000  0.75563  Biso   1.000  Cu
  Cu3      1.0000 0.08943  0.00000  0.24437  Biso   1.000  Cu
  Cu4      1.0000 0.91057  0.00000  0.75563  Biso   1.000  Cu
  N17      1.0000 0.90920  0.50000  0.05420  Biso   1.000  N
  N18      1.0000 0.09080  0.50000  0.94580  Biso   1.000  N
  N19      1.0000 0.40920  0.00000  0.05420  Biso   1.000  N
  N20      1.0000 0.59080  0.00000  0.94580  Biso   1.000  N
  O41      1.0000 0.90850  0.50000  0.92830  Biso   1.000  O
  O42      1.0000 0.09150  0.50000  0.07170  Biso   1.000  O
  O43      1.0000 0.40850  0.00000  0.92830  Biso   1.000  O
  O44      1.0000 0.59150  0.00000  0.07170  Biso   1.000  O
  O45      1.0000 0.91010  0.56630  0.11750  Biso   1.000  O
  O46      1.0000 0.08990  0.56630  0.88250  Biso   1.000  O
  O47      1.0000 0.41010  0.06630  0.11750  Biso   1.000  O
  O48      1.0000 0.58990  0.06630  0.88250  Biso   1.000  O
  O49      1.0000 0.08990  0.43370  0.88250  Biso   1.000  O
  O50      1.0000 0.91010  0.43370  0.11750  Biso   1.000  O
  O51      1.0000 0.58990  0.93370  0.88250  Biso   1.000  O
  O52      1.0000 0.41010  0.93370  0.11750  Biso   1.000  O
  Cu5      1.0000 0.85770  0.50000  0.31540  Biso   1.000  Cu
  Cu6      1.0000 0.14230  0.50000  0.68460  Biso   1.000  Cu
  Cu7      1.0000 0.35770  0.00000  0.31540  Biso   1.000  Cu
  Cu8      1.0000 0.64230  0.00000  0.68460  Biso   1.000  Cu
  Br5      1.0000 0.88160  0.50000  0.12170  Biso   1.000  Br
  Br6      1.0000 0.11840  0.50000  0.87830  Biso   1.000  Br
  Br7      1.0000 0.38160  0.00000  0.12170  Biso   1.000  Br
  Br8      1.0000 0.61840  0.00000  0.87830  Biso   1.000  Br
  H89      1.0000 0.54810  0.50000  0.20240  Biso   1.000  H
  H90      1.0000 0.45190  0.50000  0.79760  Biso   1.000  H
  H91      1.0000 0.04810  0.00000  0.20240  Biso   1.000  H
  H92      1.0000 0.95190  0.00000  0.79760  Biso   1.000  H
