data_image0
_cell_length_a       18.2348
_cell_length_b       18.2348
_cell_length_c       16.395
_cell_angle_alpha    90
_cell_angle_beta     90
_cell_angle_gamma    120

_symmetry_space_group_name_H-M    "P 1"
_symmetry_int_tables_number       1

loop_
  _symmetry_equiv_pos_as_xyz
  'x, y, z'

loop_
  _atom_site_label
  _atom_site_occupancy
  _atom_site_fract_x
  _atom_site_fract_y
  _atom_site_fract_z
  _atom_site_thermal_displace_type
  _atom_site_B_iso_or_equiv
  _atom_site_type_symbol
  Cu1      1.0000 0.64439  0.00000  0.66670  Biso   1.000  Cu
  Cu2      1.0000 0.00000  0.64439  0.33337  Biso   1.000  Cu
  Cu3      1.0000 0.35561  0.35561  0.00003  Biso   1.000  Cu
  Cu4      1.0000 0.57197  0.57197  0.00000  Biso   1.000  Cu
  Cu5      1.0000 0.42803  0.00000  0.66667  Biso   1.000  Cu
  Cu6      1.0000 0.00000  0.42803  0.33333  Biso   1.000  Cu
  Cu7      1.0000 0.45204  0.48901  0.85845  Biso   1.000  Cu
  Cu8      1.0000 0.51099  0.96303  0.52512  Biso   1.000  Cu
  Cu9      1.0000 0.03697  0.54796  0.19178  Biso   1.000  Cu
  Cu10     1.0000 0.48901  0.45204  0.14155  Biso   1.000  Cu
  Cu11     1.0000 0.96303  0.51099  0.47488  Biso   1.000  Cu
  Cu12     1.0000 0.54796  0.03697  0.80822  Biso   1.000  Cu
  N1       1.0000 0.52660  0.63190  0.94930  Biso   1.000  N
  N2       1.0000 0.36810  0.89470  0.61597  Biso   1.000  N
  N3       1.0000 0.10530  0.47340  0.28263  Biso   1.000  N
  N4       1.0000 0.63190  0.52660  0.05070  Biso   1.000  N
  N5       1.0000 0.89470  0.36810  0.38403  Biso   1.000  N
  N6       1.0000 0.47340  0.10530  0.71737  Biso   1.000  N
  N7       1.0000 0.48460  0.60090  0.87841  Biso   1.000  N
  N8       1.0000 0.39910  0.88370  0.54508  Biso   1.000  N
  N9       1.0000 0.11630  0.51540  0.21174  Biso   1.000  N
  N10      1.0000 0.60090  0.48460  0.12159  Biso   1.000  N
  N11      1.0000 0.88370  0.39910  0.45492  Biso   1.000  N
  N12      1.0000 0.51540  0.11630  0.78826  Biso   1.000  N
  N13      1.0000 0.60800  0.93090  0.75710  Biso   1.000  N
  N14      1.0000 0.06910  0.67710  0.42377  Biso   1.000  N
  N15      1.0000 0.32290  0.39200  0.09043  Biso   1.000  N
  N16      1.0000 0.93090  0.60800  0.24290  Biso   1.000  N
  N17      1.0000 0.67710  0.06910  0.57623  Biso   1.000  N
  N18      1.0000 0.39200  0.32290  0.90957  Biso   1.000  N
  N19      1.0000 0.56980  0.94930  0.81910  Biso   1.000  N
  N20      1.0000 0.05070  0.62050  0.48577  Biso   1.000  N
  N21      1.0000 0.37950  0.43020  0.15243  Biso   1.000  N
  N22      1.0000 0.94930  0.56980  0.18090  Biso   1.000  N
  N23      1.0000 0.62050  0.05070  0.51423  Biso   1.000  N
  N24      1.0000 0.43020  0.37950  0.84757  Biso   1.000  N
  C1       1.0000 0.48700  0.66480  0.83700  Biso   1.000  C
  C2       1.0000 0.33520  0.82220  0.50367  Biso   1.000  C
  C3       1.0000 0.17780  0.51300  0.17033  Biso   1.000  C
  C4       1.0000 0.66480  0.48700  0.16300  Biso   1.000  C
  C5       1.0000 0.82220  0.33520  0.49633  Biso   1.000  C
  C6       1.0000 0.51300  0.17780  0.82967  Biso   1.000  C
  C7       1.0000 0.53370  0.74010  0.87880  Biso   1.000  C
  C8       1.0000 0.25990  0.79360  0.54547  Biso   1.000  C
  C9       1.0000 0.20640  0.46630  0.21213  Biso   1.000  C
  C10      1.0000 0.74010  0.53370  0.12120  Biso   1.000  C
  C11      1.0000 0.79360  0.25990  0.45453  Biso   1.000  C
  C12      1.0000 0.46630  0.20640  0.78787  Biso   1.000  C
  C13      1.0000 0.55760  0.71610  0.95090  Biso   1.000  C
  C14      1.0000 0.28390  0.84150  0.61757  Biso   1.000  C
  C15      1.0000 0.15850  0.44240  0.28423  Biso   1.000  C
  C16      1.0000 0.71610  0.55760  0.04910  Biso   1.000  C
  C17      1.0000 0.84150  0.28390  0.38243  Biso   1.000  C
  C18      1.0000 0.44240  0.15850  0.71577  Biso   1.000  C
  C19      1.0000 0.44610  0.65050  0.75630  Biso   1.000  C
  C20      1.0000 0.34950  0.79560  0.42297  Biso   1.000  C
  C21      1.0000 0.20440  0.55390  0.08963  Biso   1.000  C
  C22      1.0000 0.65050  0.44610  0.24370  Biso   1.000  C
  C23      1.0000 0.79560  0.34950  0.57703  Biso   1.000  C
  C24      1.0000 0.55390  0.20440  0.91037  Biso   1.000  C
  C25      1.0000 0.44390  0.59700  0.69450  Biso   1.000  C
  C26      1.0000 0.40300  0.84690  0.36117  Biso   1.000  C
  C27      1.0000 0.15310  0.55610  0.02783  Biso   1.000  C
  C28      1.0000 0.59700  0.44390  0.30550  Biso   1.000  C
  C29      1.0000 0.84690  0.40300  0.63883  Biso   1.000  C
  C30      1.0000 0.55610  0.15310  0.97217  Biso   1.000  C
  H1       1.0000 0.47610  0.56980  0.70270  Biso   1.000  H
  H2       1.0000 0.43020  0.90630  0.36937  Biso   1.000  H
  H3       1.0000 0.09370  0.52390  0.03603  Biso   1.000  H
  H4       1.0000 0.56980  0.47610  0.29730  Biso   1.000  H
  H5       1.0000 0.90630  0.43020  0.63063  Biso   1.000  H
  H6       1.0000 0.52390  0.09370  0.96397  Biso   1.000  H
  C31      1.0000 0.39850  0.57980  0.62130  Biso   1.000  C
  C32      1.0000 0.42020  0.81870  0.28797  Biso   1.000  C
  C33      1.0000 0.18130  0.60150  0.95463  Biso   1.000  C
  C34      1.0000 0.57980  0.39850  0.37870  Biso   1.000  C
  C35      1.0000 0.81870  0.42020  0.71203  Biso   1.000  C
  C36      1.0000 0.60150  0.18130  0.04537  Biso   1.000  C
  H7       1.0000 0.39890  0.54090  0.58300  Biso   1.000  H
  H8       1.0000 0.45910  0.85800  0.24967  Biso   1.000  H
  H9       1.0000 0.14200  0.60110  0.91633  Biso   1.000  H
  H10      1.0000 0.54090  0.39890  0.41700  Biso   1.000  H
  H11      1.0000 0.85800  0.45910  0.75033  Biso   1.000  H
  H12      1.0000 0.60110  0.14200  0.08367  Biso   1.000  H
  C37      1.0000 0.39100  0.68440  0.73680  Biso   1.000  C
  C38      1.0000 0.31560  0.70660  0.40347  Biso   1.000  C
  C39      1.0000 0.29340  0.60900  0.07013  Biso   1.000  C
  C40      1.0000 0.68440  0.39100  0.26320  Biso   1.000  C
  C41      1.0000 0.70660  0.31560  0.59653  Biso   1.000  C
  C42      1.0000 0.60900  0.29340  0.92987  Biso   1.000  C
  H13      1.0000 0.38330  0.71670  0.77790  Biso   1.000  H
  H14      1.0000 0.28330  0.66660  0.44457  Biso   1.000  H
  H15      1.0000 0.33340  0.61670  0.11123  Biso   1.000  H
  H16      1.0000 0.71670  0.38330  0.22210  Biso   1.000  H
  H17      1.0000 0.66660  0.28330  0.55543  Biso   1.000  H
  H18      1.0000 0.61670  0.33340  0.88877  Biso   1.000  H
  C43      1.0000 0.35370  0.62020  0.60610  Biso   1.000  C
  C44      1.0000 0.37980  0.73350  0.27277  Biso   1.000  C
  C45      1.0000 0.26650  0.64630  0.93943  Biso   1.000  C
  C46      1.0000 0.62020  0.35370  0.39390  Biso   1.000  C
  C47      1.0000 0.73350  0.37980  0.72723  Biso   1.000  C
  C48      1.0000 0.64630  0.26650  0.06057  Biso   1.000  C
  H19      1.0000 0.32560  0.61120  0.55520  Biso   1.000  H
  H20      1.0000 0.38880  0.71440  0.22187  Biso   1.000  H
  H21      1.0000 0.28560  0.67440  0.88853  Biso   1.000  H
  H22      1.0000 0.61120  0.32560  0.44480  Biso   1.000  H
  H23      1.0000 0.71440  0.38880  0.77813  Biso   1.000  H
  H24      1.0000 0.67440  0.28560  0.11147  Biso   1.000  H
  C49      1.0000 0.34820  0.67370  0.66250  Biso   1.000  C
  C50      1.0000 0.32630  0.67450  0.32917  Biso   1.000  C
  C51      1.0000 0.32550  0.65180  0.99583  Biso   1.000  C
  C52      1.0000 0.67370  0.34820  0.33750  Biso   1.000  C
  C53      1.0000 0.67450  0.32630  0.67083  Biso   1.000  C
  C54      1.0000 0.65180  0.32550  0.00417  Biso   1.000  C
  H25      1.0000 0.31720  0.70170  0.65160  Biso   1.000  H
  H26      1.0000 0.29830  0.61550  0.31827  Biso   1.000  H
  H27      1.0000 0.38450  0.68280  0.98493  Biso   1.000  H
  H28      1.0000 0.70170  0.31720  0.34840  Biso   1.000  H
  H29      1.0000 0.61550  0.29830  0.68173  Biso   1.000  H
  H30      1.0000 0.68280  0.38450  0.01507  Biso   1.000  H
  C55      1.0000 0.55940  0.82420  0.84720  Biso   1.000  C
  C56      1.0000 0.17580  0.73520  0.51387  Biso   1.000  C
  C57      1.0000 0.26480  0.44060  0.18053  Biso   1.000  C
  C58      1.0000 0.82420  0.55940  0.15280  Biso   1.000  C
  C59      1.0000 0.73520  0.17580  0.48613  Biso   1.000  C
  C60      1.0000 0.44060  0.26480  0.81947  Biso   1.000  C
  C61      1.0000 0.60260  0.85700  0.77380  Biso   1.000  C
  C62      1.0000 0.14300  0.74560  0.44047  Biso   1.000  C
  C63      1.0000 0.25440  0.39740  0.10713  Biso   1.000  C
  C64      1.0000 0.85700  0.60260  0.22620  Biso   1.000  C
  C65      1.0000 0.74560  0.14300  0.55953  Biso   1.000  C
  C66      1.0000 0.39740  0.25440  0.89287  Biso   1.000  C
  C67      1.0000 0.53930  0.88440  0.87340  Biso   1.000  C
  C68      1.0000 0.11560  0.65490  0.54007  Biso   1.000  C
  C69      1.0000 0.34510  0.46070  0.20673  Biso   1.000  C
  C70      1.0000 0.88440  0.53930  0.12660  Biso   1.000  C
  C71      1.0000 0.65490  0.11560  0.45993  Biso   1.000  C
  C72      1.0000 0.46070  0.34510  0.79327  Biso   1.000  C
  C73      1.0000 0.63860  0.81840  0.71930  Biso   1.000  C
  C74      1.0000 0.18160  0.82020  0.38597  Biso   1.000  C
  C75      1.0000 0.17980  0.36140  0.05263  Biso   1.000  C
  C76      1.0000 0.81840  0.63860  0.28070  Biso   1.000  C
  C77      1.0000 0.82020  0.18160  0.61403  Biso   1.000  C
  C78      1.0000 0.36140  0.17980  0.94737  Biso   1.000  C
  C79      1.0000 0.68810  0.78720  0.75050  Biso   1.000  C
  C80      1.0000 0.21280  0.90090  0.41717  Biso   1.000  C
  C81      1.0000 0.09910  0.31190  0.08383  Biso   1.000  C
  C82      1.0000 0.78720  0.68810  0.24950  Biso   1.000  C
  C83      1.0000 0.90090  0.21280  0.58283  Biso   1.000  C
  C84      1.0000 0.31190  0.09910  0.91617  Biso   1.000  C
  H31      1.0000 0.69740  0.78790  0.80760  Biso   1.000  H
  H32      1.0000 0.21210  0.90950  0.47427  Biso   1.000  H
  H33      1.0000 0.09050  0.30260  0.14093  Biso   1.000  H
  H34      1.0000 0.78790  0.69740  0.19240  Biso   1.000  H
  H35      1.0000 0.90950  0.21210  0.52573  Biso   1.000  H
  H36      1.0000 0.30260  0.09050  0.85907  Biso   1.000  H
  C85      1.0000 0.72470  0.75430  0.69590  Biso   1.000  C
  C86      1.0000 0.24570  0.97040  0.36257  Biso   1.000  C
  C87      1.0000 0.02960  0.27530  0.02923  Biso   1.000  C
  C88      1.0000 0.75430  0.72470  0.30410  Biso   1.000  C
  C89      1.0000 0.97040  0.24570  0.63743  Biso   1.000  C
  C90      1.0000 0.27530  0.02960  0.97077  Biso   1.000  C
  H37      1.0000 0.75980  0.73350  0.71580  Biso   1.000  H
  H38      1.0000 0.26650  0.02630  0.38247  Biso   1.000  H
  H39      1.0000 0.97370  0.24020  0.04913  Biso   1.000  H
  H40      1.0000 0.73350  0.75980  0.28420  Biso   1.000  H
  H41      1.0000 0.02630  0.26650  0.61753  Biso   1.000  H
  H42      1.0000 0.24020  0.97370  0.95087  Biso   1.000  H
  C91      1.0000 0.70880  0.75300  0.61460  Biso   1.000  C
  C92      1.0000 0.24700  0.95580  0.28127  Biso   1.000  C
  C93      1.0000 0.04420  0.29120  0.94793  Biso   1.000  C
  C94      1.0000 0.75300  0.70880  0.38540  Biso   1.000  C
  C95      1.0000 0.95580  0.24700  0.71873  Biso   1.000  C
  C96      1.0000 0.29120  0.04420  0.05207  Biso   1.000  C
  H43      1.0000 0.73200  0.72900  0.57860  Biso   1.000  H
  H44      1.0000 0.27100  0.00300  0.24527  Biso   1.000  H
  H45      1.0000 0.99700  0.26800  0.91193  Biso   1.000  H
  H46      1.0000 0.72900  0.73200  0.42140  Biso   1.000  H
  H47      1.0000 0.00300  0.27100  0.75473  Biso   1.000  H
  H48      1.0000 0.26800  0.99700  0.08807  Biso   1.000  H
  C97      1.0000 0.62310  0.81720  0.63620  Biso   1.000  C
  C98      1.0000 0.18280  0.80590  0.30287  Biso   1.000  C
  C99      1.0000 0.19410  0.37690  0.96953  Biso   1.000  C
  C100     1.0000 0.81720  0.62310  0.36380  Biso   1.000  C
  C101     1.0000 0.80590  0.18280  0.69713  Biso   1.000  C
  C102     1.0000 0.37690  0.19410  0.03047  Biso   1.000  C
  H49      1.0000 0.58790  0.83790  0.61610  Biso   1.000  H
  H50      1.0000 0.16210  0.75000  0.28277  Biso   1.000  H
  H51      1.0000 0.25000  0.41210  0.94943  Biso   1.000  H
  H52      1.0000 0.83790  0.58790  0.38390  Biso   1.000  H
  H53      1.0000 0.75000  0.16210  0.71723  Biso   1.000  H
  H54      1.0000 0.41210  0.25000  0.05057  Biso   1.000  H
  C103     1.0000 0.66010  0.78500  0.58190  Biso   1.000  C
  C104     1.0000 0.21500  0.87510  0.24857  Biso   1.000  C
  C105     1.0000 0.12490  0.33990  0.91523  Biso   1.000  C
  C106     1.0000 0.78500  0.66010  0.41810  Biso   1.000  C
  C107     1.0000 0.87510  0.21500  0.75143  Biso   1.000  C
  C108     1.0000 0.33990  0.12490  0.08477  Biso   1.000  C
  H55      1.0000 0.65210  0.78510  0.52470  Biso   1.000  H
  H56      1.0000 0.21490  0.86700  0.19137  Biso   1.000  H
  H57      1.0000 0.13300  0.34790  0.85803  Biso   1.000  H
  H58      1.0000 0.78510  0.65210  0.47530  Biso   1.000  H
  H59      1.0000 0.86700  0.21490  0.80863  Biso   1.000  H
  H60      1.0000 0.34790  0.13300  0.14197  Biso   1.000  H
  C109     1.0000 0.60780  0.76720  0.02060  Biso   1.000  C
  C110     1.0000 0.23280  0.84060  0.68727  Biso   1.000  C
  C111     1.0000 0.15940  0.39220  0.35393  Biso   1.000  C
  C112     1.0000 0.76720  0.60780  0.97940  Biso   1.000  C
  C113     1.0000 0.84060  0.23280  0.31273  Biso   1.000  C
  C114     1.0000 0.39220  0.15940  0.64607  Biso   1.000  C
  C115     1.0000 0.69590  0.86160  0.15730  Biso   1.000  C
  C116     1.0000 0.13840  0.83430  0.82397  Biso   1.000  C
  C117     1.0000 0.16570  0.30410  0.49063  Biso   1.000  C
  C118     1.0000 0.86160  0.69590  0.84270  Biso   1.000  C
  C119     1.0000 0.83430  0.13840  0.17603  Biso   1.000  C
  C120     1.0000 0.30410  0.16570  0.50937  Biso   1.000  C
  H61      1.0000 0.72850  0.89280  0.20310  Biso   1.000  H
  H62      1.0000 0.10720  0.83570  0.86977  Biso   1.000  H
  H63      1.0000 0.16430  0.27150  0.53643  Biso   1.000  H
  H64      1.0000 0.89280  0.72850  0.79690  Biso   1.000  H
  H65      1.0000 0.83570  0.10720  0.13023  Biso   1.000  H
  H66      1.0000 0.27150  0.16430  0.46357  Biso   1.000  H
  C121     1.0000 0.68390  0.84310  0.01550  Biso   1.000  C
  C122     1.0000 0.15690  0.84080  0.68217  Biso   1.000  C
  C123     1.0000 0.15920  0.31610  0.34883  Biso   1.000  C
  C124     1.0000 0.84310  0.68390  0.98450  Biso   1.000  C
  C125     1.0000 0.84080  0.15690  0.31783  Biso   1.000  C
  C126     1.0000 0.31610  0.15920  0.65117  Biso   1.000  C
  H67      1.0000 0.70710  0.86350  0.96290  Biso   1.000  H
  H68      1.0000 0.13650  0.84360  0.62957  Biso   1.000  H
  H69      1.0000 0.15640  0.29290  0.29623  Biso   1.000  H
  H70      1.0000 0.86350  0.70710  0.03710  Biso   1.000  H
  H71      1.0000 0.84360  0.13650  0.37043  Biso   1.000  H
  H72      1.0000 0.29290  0.15640  0.70377  Biso   1.000  H
  C127     1.0000 0.72720  0.89020  0.08190  Biso   1.000  C
  C128     1.0000 0.10980  0.83700  0.74857  Biso   1.000  C
  C129     1.0000 0.16300  0.27280  0.41523  Biso   1.000  C
  C130     1.0000 0.89020  0.72720  0.91810  Biso   1.000  C
  C131     1.0000 0.83700  0.10980  0.25143  Biso   1.000  C
  C132     1.0000 0.27280  0.16300  0.58477  Biso   1.000  C
  H73      1.0000 0.77870  0.94230  0.07520  Biso   1.000  H
  H74      1.0000 0.05770  0.83640  0.74187  Biso   1.000  H
  H75      1.0000 0.16360  0.22130  0.40853  Biso   1.000  H
  H76      1.0000 0.94230  0.77870  0.92480  Biso   1.000  H
  H77      1.0000 0.83640  0.05770  0.25813  Biso   1.000  H
  H78      1.0000 0.22130  0.16360  0.59147  Biso   1.000  H
  C133     1.0000 0.57900  0.74140  0.10190  Biso   1.000  C
  C134     1.0000 0.25860  0.83760  0.76857  Biso   1.000  C
  C135     1.0000 0.16240  0.42100  0.43523  Biso   1.000  C
  C136     1.0000 0.74140  0.57900  0.89810  Biso   1.000  C
  C137     1.0000 0.83760  0.25860  0.23143  Biso   1.000  C
  C138     1.0000 0.42100  0.16240  0.56477  Biso   1.000  C
  H79      1.0000 0.52940  0.68790  0.10960  Biso   1.000  H
  H80      1.0000 0.31210  0.84150  0.77627  Biso   1.000  H
  H81      1.0000 0.15850  0.47060  0.44293  Biso   1.000  H
  H82      1.0000 0.68790  0.52940  0.89040  Biso   1.000  H
  H83      1.0000 0.84150  0.31210  0.22373  Biso   1.000  H
  H84      1.0000 0.47060  0.15850  0.55707  Biso   1.000  H
  C139     1.0000 0.61900  0.78960  0.17100  Biso   1.000  C
  C140     1.0000 0.21040  0.82940  0.83767  Biso   1.000  C
  C141     1.0000 0.17060  0.38100  0.50433  Biso   1.000  C
  C142     1.0000 0.78960  0.61900  0.82900  Biso   1.000  C
  C143     1.0000 0.82940  0.21040  0.16233  Biso   1.000  C
  C144     1.0000 0.38100  0.17060  0.49567  Biso   1.000  C
  H85      1.0000 0.59490  0.77380  0.22390  Biso   1.000  H
  H86      1.0000 0.22620  0.82110  0.89057  Biso   1.000  H
  H87      1.0000 0.17890  0.40510  0.55723  Biso   1.000  H
  H88      1.0000 0.77380  0.59490  0.77610  Biso   1.000  H
  H89      1.0000 0.82110  0.22620  0.10943  Biso   1.000  H
  H90      1.0000 0.40510  0.17890  0.44277  Biso   1.000  H
  C145     1.0000 0.48720  0.88320  0.94300  Biso   1.000  C
  C146     1.0000 0.11680  0.60400  0.60967  Biso   1.000  C
  C147     1.0000 0.39600  0.51280  0.27633  Biso   1.000  C
  C148     1.0000 0.88320  0.48720  0.05700  Biso   1.000  C
  C149     1.0000 0.60400  0.11680  0.39033  Biso   1.000  C
  C150     1.0000 0.51280  0.39600  0.72367  Biso   1.000  C
  C151     1.0000 0.41720  0.88650  0.92180  Biso   1.000  C
  C152     1.0000 0.11350  0.53070  0.58847  Biso   1.000  C
  C153     1.0000 0.46930  0.58280  0.25513  Biso   1.000  C
  C154     1.0000 0.88650  0.41720  0.07820  Biso   1.000  C
  C155     1.0000 0.53070  0.11350  0.41153  Biso   1.000  C
  C156     1.0000 0.58280  0.46930  0.74487  Biso   1.000  C
  H91      1.0000 0.39980  0.88680  0.86720  Biso   1.000  H
  H92      1.0000 0.11320  0.51300  0.53387  Biso   1.000  H
  H93      1.0000 0.48700  0.60020  0.20053  Biso   1.000  H
  H94      1.0000 0.88680  0.39980  0.13280  Biso   1.000  H
  H95      1.0000 0.51300  0.11320  0.46613  Biso   1.000  H
  H96      1.0000 0.60020  0.48700  0.79947  Biso   1.000  H
  C157     1.0000 0.37430  0.88940  0.99060  Biso   1.000  C
  C158     1.0000 0.11060  0.48490  0.65727  Biso   1.000  C
  C159     1.0000 0.51510  0.62570  0.32393  Biso   1.000  C
  C160     1.0000 0.88940  0.37430  0.00940  Biso   1.000  C
  C161     1.0000 0.48490  0.11060  0.34273  Biso   1.000  C
  C162     1.0000 0.62570  0.51510  0.67607  Biso   1.000  C
  H97      1.0000 0.32650  0.89580  0.98030  Biso   1.000  H
  H98      1.0000 0.10420  0.43070  0.64697  Biso   1.000  H
  H99      1.0000 0.56930  0.67350  0.31363  Biso   1.000  H
  H100     1.0000 0.89580  0.32650  0.01970  Biso   1.000  H
  H101     1.0000 0.43070  0.10420  0.35303  Biso   1.000  H
  H102     1.0000 0.67350  0.56930  0.68637  Biso   1.000  H
  C163     1.0000 0.46650  0.88660  0.08520  Biso   1.000  C
  C164     1.0000 0.11340  0.57990  0.75187  Biso   1.000  C
  C165     1.0000 0.42010  0.53350  0.41853  Biso   1.000  C
  C166     1.0000 0.88660  0.46650  0.91480  Biso   1.000  C
  C167     1.0000 0.57990  0.11340  0.24813  Biso   1.000  C
  C168     1.0000 0.53350  0.42010  0.58147  Biso   1.000  C
  H103     1.0000 0.48580  0.88800  0.13930  Biso   1.000  H
  H104     1.0000 0.11200  0.59780  0.80597  Biso   1.000  H
  H105     1.0000 0.40220  0.51420  0.47263  Biso   1.000  H
  H106     1.0000 0.88800  0.48580  0.86070  Biso   1.000  H
  H107     1.0000 0.59780  0.11200  0.19403  Biso   1.000  H
  H108     1.0000 0.51420  0.40220  0.52737  Biso   1.000  H
  C169     1.0000 0.51480  0.88700  0.01960  Biso   1.000  C
  C170     1.0000 0.11300  0.62780  0.68627  Biso   1.000  C
  C171     1.0000 0.37220  0.48520  0.35293  Biso   1.000  C
  C172     1.0000 0.88700  0.51480  0.98040  Biso   1.000  C
  C173     1.0000 0.62780  0.11300  0.31373  Biso   1.000  C
  C174     1.0000 0.48520  0.37220  0.64707  Biso   1.000  C
  H109     1.0000 0.56770  0.89010  0.02900  Biso   1.000  H
  H110     1.0000 0.10990  0.67760  0.69567  Biso   1.000  H
  H111     1.0000 0.32240  0.43230  0.36233  Biso   1.000  H
  H112     1.0000 0.89010  0.56770  0.97100  Biso   1.000  H
  H113     1.0000 0.67760  0.10990  0.30433  Biso   1.000  H
  H114     1.0000 0.43230  0.32240  0.63767  Biso   1.000  H
  C175     1.0000 0.39140  0.88430  0.07230  Biso   1.000  C
  C176     1.0000 0.11570  0.50710  0.73897  Biso   1.000  C
  C177     1.0000 0.49290  0.60860  0.40563  Biso   1.000  C
  C178     1.0000 0.88430  0.39140  0.92770  Biso   1.000  C
  C179     1.0000 0.50710  0.11570  0.26103  Biso   1.000  C
  C180     1.0000 0.60860  0.49290  0.59437  Biso   1.000  C
  H115     1.0000 0.35430  0.87950  0.11520  Biso   1.000  H
  H116     1.0000 0.12050  0.47480  0.78187  Biso   1.000  H
  H117     1.0000 0.52520  0.64570  0.44853  Biso   1.000  H
  H118     1.0000 0.87950  0.35430  0.88480  Biso   1.000  H
  H119     1.0000 0.47480  0.12050  0.21813  Biso   1.000  H
  H120     1.0000 0.64570  0.52520  0.55147  Biso   1.000  H
  C181     1.0000 0.46450  0.59800  0.70650  Biso   1.000  C
  C182     1.0000 0.40200  0.86650  0.37317  Biso   1.000  C
  C183     1.0000 0.13350  0.53550  0.03983  Biso   1.000  C
  C184     1.0000 0.59800  0.46450  0.29350  Biso   1.000  C
  C185     1.0000 0.86650  0.40200  0.62683  Biso   1.000  C
  C186     1.0000 0.53550  0.13350  0.96017  Biso   1.000  C
  H121     1.0000 0.48410  0.56200  0.72660  Biso   1.000  H
  H122     1.0000 0.43800  0.92210  0.39327  Biso   1.000  H
  H123     1.0000 0.07790  0.51590  0.05993  Biso   1.000  H
  H124     1.0000 0.56200  0.48410  0.27340  Biso   1.000  H
  H125     1.0000 0.92210  0.43800  0.60673  Biso   1.000  H
  H126     1.0000 0.51590  0.07790  0.94007  Biso   1.000  H
  C187     1.0000 0.44990  0.60630  0.62300  Biso   1.000  C
  C188     1.0000 0.39370  0.84360  0.28967  Biso   1.000  C
  C189     1.0000 0.15640  0.55010  0.95633  Biso   1.000  C
  C190     1.0000 0.60630  0.44990  0.37700  Biso   1.000  C
  C191     1.0000 0.84360  0.39370  0.71033  Biso   1.000  C
  C192     1.0000 0.55010  0.15640  0.04367  Biso   1.000  C
  H127     1.0000 0.46440  0.57710  0.58400  Biso   1.000  H
  H128     1.0000 0.42290  0.88730  0.25067  Biso   1.000  H
  H129     1.0000 0.11270  0.53560  0.91733  Biso   1.000  H
  H130     1.0000 0.57710  0.46440  0.41600  Biso   1.000  H
  H131     1.0000 0.88730  0.42290  0.74933  Biso   1.000  H
  H132     1.0000 0.53560  0.11270  0.08267  Biso   1.000  H
  C193     1.0000 0.43230  0.71370  0.72740  Biso   1.000  C
  C194     1.0000 0.28630  0.71860  0.39407  Biso   1.000  C
  C195     1.0000 0.28140  0.56770  0.06073  Biso   1.000  C
  C196     1.0000 0.71370  0.43230  0.27260  Biso   1.000  C
  C197     1.0000 0.71860  0.28630  0.60593  Biso   1.000  C
  C198     1.0000 0.56770  0.28140  0.93927  Biso   1.000  C
  H133     1.0000 0.44290  0.76050  0.76090  Biso   1.000  H
  H134     1.0000 0.23950  0.68240  0.42757  Biso   1.000  H
  H135     1.0000 0.31760  0.55710  0.09423  Biso   1.000  H
  H136     1.0000 0.76050  0.44290  0.23910  Biso   1.000  H
  H137     1.0000 0.68240  0.23950  0.57243  Biso   1.000  H
  H138     1.0000 0.55710  0.31760  0.90577  Biso   1.000  H
  C199     1.0000 0.41540  0.65490  0.59470  Biso   1.000  C
  C200     1.0000 0.34510  0.76050  0.26137  Biso   1.000  C
  C201     1.0000 0.23950  0.58460  0.92803  Biso   1.000  C
  C202     1.0000 0.65490  0.41540  0.40530  Biso   1.000  C
  C203     1.0000 0.76050  0.34510  0.73863  Biso   1.000  C
  C204     1.0000 0.58460  0.23950  0.07197  Biso   1.000  C
  H139     1.0000 0.40060  0.65250  0.53880  Biso   1.000  H
  H140     1.0000 0.34750  0.74810  0.20547  Biso   1.000  H
  H141     1.0000 0.25190  0.59940  0.87213  Biso   1.000  H
  H142     1.0000 0.65250  0.40060  0.46120  Biso   1.000  H
  H143     1.0000 0.74810  0.34750  0.79453  Biso   1.000  H
  H144     1.0000 0.59940  0.25190  0.12787  Biso   1.000  H
  C205     1.0000 0.40250  0.70720  0.64830  Biso   1.000  C
  C206     1.0000 0.29280  0.69530  0.31497  Biso   1.000  C
  C207     1.0000 0.30470  0.59750  0.98163  Biso   1.000  C
  C208     1.0000 0.70720  0.40250  0.35170  Biso   1.000  C
  C209     1.0000 0.69530  0.29280  0.68503  Biso   1.000  C
  C210     1.0000 0.59750  0.30470  0.01837  Biso   1.000  C
  H145     1.0000 0.37460  0.73690  0.63130  Biso   1.000  H
  H146     1.0000 0.26310  0.63770  0.29797  Biso   1.000  H
  H147     1.0000 0.36230  0.62540  0.96463  Biso   1.000  H
  H148     1.0000 0.73690  0.37460  0.36870  Biso   1.000  H
  H149     1.0000 0.63770  0.26310  0.70203  Biso   1.000  H
  H150     1.0000 0.62540  0.36230  0.03537  Biso   1.000  H
  C211     1.0000 0.64100  0.83000  0.70500  Biso   1.000  C
  C212     1.0000 0.17000  0.81100  0.37167  Biso   1.000  C
  C213     1.0000 0.18900  0.35900  0.03833  Biso   1.000  C
  C214     1.0000 0.83000  0.64100  0.29500  Biso   1.000  C
  C215     1.0000 0.81100  0.17000  0.62833  Biso   1.000  C
  C216     1.0000 0.35900  0.18900  0.96167  Biso   1.000  C
  C217     1.0000 0.66800  0.77300  0.72500  Biso   1.000  C
  C218     1.0000 0.22700  0.89500  0.39167  Biso   1.000  C
  C219     1.0000 0.10500  0.33200  0.05833  Biso   1.000  C
  C220     1.0000 0.77300  0.66800  0.27500  Biso   1.000  C
  C221     1.0000 0.89500  0.22700  0.60833  Biso   1.000  C
  C222     1.0000 0.33200  0.10500  0.94167  Biso   1.000  C
  H151     1.0000 0.67850  0.76710  0.78060  Biso   1.000  H
  H152     1.0000 0.23290  0.91140  0.44727  Biso   1.000  H
  H153     1.0000 0.08860  0.32150  0.11393  Biso   1.000  H
  H154     1.0000 0.76710  0.67850  0.21940  Biso   1.000  H
  H155     1.0000 0.91140  0.23290  0.55273  Biso   1.000  H
  H156     1.0000 0.32150  0.08860  0.88607  Biso   1.000  H
  C223     1.0000 0.68000  0.72400  0.66700  Biso   1.000  C
  C224     1.0000 0.27600  0.95600  0.33367  Biso   1.000  C
  C225     1.0000 0.04400  0.32000  0.00033  Biso   1.000  C
  C226     1.0000 0.72400  0.68000  0.33300  Biso   1.000  C
  C227     1.0000 0.95600  0.27600  0.66633  Biso   1.000  C
  C228     1.0000 0.32000  0.04400  0.99967  Biso   1.000  C
  H157     1.0000 0.72010  0.70690  0.67690  Biso   1.000  H
  H158     1.0000 0.29310  0.01320  0.34357  Biso   1.000  H
  H159     1.0000 0.98680  0.27990  0.01023  Biso   1.000  H
  H160     1.0000 0.70690  0.72010  0.32310  Biso   1.000  H
  H161     1.0000 0.01320  0.29310  0.65643  Biso   1.000  H
  H162     1.0000 0.27990  0.98680  0.98977  Biso   1.000  H
  C229     1.0000 0.63400  0.70100  0.59400  Biso   1.000  C
  C230     1.0000 0.29900  0.93300  0.26067  Biso   1.000  C
  C231     1.0000 0.06700  0.36600  0.92733  Biso   1.000  C
  C232     1.0000 0.70100  0.63400  0.40600  Biso   1.000  C
  C233     1.0000 0.93300  0.29900  0.73933  Biso   1.000  C
  C234     1.0000 0.36600  0.06700  0.07267  Biso   1.000  C
  H163     1.0000 0.59970  0.64900  0.56610  Biso   1.000  H
  H164     1.0000 0.35100  0.95070  0.23277  Biso   1.000  H
  H165     1.0000 0.04930  0.40030  0.89943  Biso   1.000  H
  H166     1.0000 0.64900  0.59970  0.43390  Biso   1.000  H
  H167     1.0000 0.95070  0.35100  0.76723  Biso   1.000  H
  H168     1.0000 0.40030  0.04930  0.10057  Biso   1.000  H
  C235     1.0000 0.62700  0.83000  0.62200  Biso   1.000  C
  C236     1.0000 0.17000  0.79700  0.28867  Biso   1.000  C
  C237     1.0000 0.20300  0.37300  0.95533  Biso   1.000  C
  C238     1.0000 0.83000  0.62700  0.37800  Biso   1.000  C
  C239     1.0000 0.79700  0.17000  0.71133  Biso   1.000  C
  C240     1.0000 0.37300  0.20300  0.04467  Biso   1.000  C
  H169     1.0000 0.59870  0.85560  0.59650  Biso   1.000  H
  H170     1.0000 0.14440  0.74310  0.26317  Biso   1.000  H
  H171     1.0000 0.25690  0.40130  0.92983  Biso   1.000  H
  H172     1.0000 0.85560  0.59870  0.40350  Biso   1.000  H
  H173     1.0000 0.74310  0.14440  0.73683  Biso   1.000  H
  H174     1.0000 0.40130  0.25690  0.07017  Biso   1.000  H
  C241     1.0000 0.57480  0.80120  0.07130  Biso   1.000  C
  C242     1.0000 0.19880  0.77360  0.73797  Biso   1.000  C
  C243     1.0000 0.22640  0.42520  0.40463  Biso   1.000  C
  C244     1.0000 0.80120  0.57480  0.92870  Biso   1.000  C
  C245     1.0000 0.77360  0.19880  0.26203  Biso   1.000  C
  C246     1.0000 0.42520  0.22640  0.59537  Biso   1.000  C
  H175     1.0000 0.52030  0.79540  0.06480  Biso   1.000  H
  H176     1.0000 0.20460  0.72490  0.73147  Biso   1.000  H
  H177     1.0000 0.27510  0.47970  0.39813  Biso   1.000  H
  H178     1.0000 0.79540  0.52030  0.93520  Biso   1.000  H
  H179     1.0000 0.72490  0.20460  0.26853  Biso   1.000  H
  H180     1.0000 0.47970  0.27510  0.60187  Biso   1.000  H
  C247     1.0000 0.63000  0.84600  0.13400  Biso   1.000  C
  C248     1.0000 0.15400  0.78400  0.80067  Biso   1.000  C
  C249     1.0000 0.21600  0.37000  0.46733  Biso   1.000  C
  C250     1.0000 0.84600  0.63000  0.86600  Biso   1.000  C
  C251     1.0000 0.78400  0.15400  0.19933  Biso   1.000  C
  C252     1.0000 0.37000  0.21600  0.53267  Biso   1.000  C
  H181     1.0000 0.60660  0.87070  0.16850  Biso   1.000  H
  H182     1.0000 0.12930  0.73590  0.83517  Biso   1.000  H
  H183     1.0000 0.26410  0.39340  0.50183  Biso   1.000  H
  H184     1.0000 0.87070  0.60660  0.83150  Biso   1.000  H
  H185     1.0000 0.73590  0.12930  0.16483  Biso   1.000  H
  H186     1.0000 0.39340  0.26410  0.49817  Biso   1.000  H
  C253     1.0000 0.73400  0.81800  0.09400  Biso   1.000  C
  C254     1.0000 0.18200  0.91600  0.76067  Biso   1.000  C
  C255     1.0000 0.08400  0.26600  0.42733  Biso   1.000  C
  C256     1.0000 0.81800  0.73400  0.90600  Biso   1.000  C
  C257     1.0000 0.91600  0.18200  0.23933  Biso   1.000  C
  C258     1.0000 0.26600  0.08400  0.57267  Biso   1.000  C
  H187     1.0000 0.78900  0.82700  0.10320  Biso   1.000  H
  H188     1.0000 0.17300  0.96200  0.76987  Biso   1.000  H
  H189     1.0000 0.03800  0.21100  0.43653  Biso   1.000  H
  H190     1.0000 0.82700  0.78900  0.89680  Biso   1.000  H
  H191     1.0000 0.96200  0.17300  0.23013  Biso   1.000  H
  H192     1.0000 0.21100  0.03800  0.56347  Biso   1.000  H
  C259     1.0000 0.68640  0.76790  0.02470  Biso   1.000  C
  C260     1.0000 0.23210  0.91850  0.69137  Biso   1.000  C
  C261     1.0000 0.08150  0.31360  0.35803  Biso   1.000  C
  C262     1.0000 0.76790  0.68640  0.97530  Biso   1.000  C
  C263     1.0000 0.91850  0.23210  0.30863  Biso   1.000  C
  C264     1.0000 0.31360  0.08150  0.64197  Biso   1.000  C
  H193     1.0000 0.70450  0.73970  0.98810  Biso   1.000  H
  H194     1.0000 0.26030  0.96480  0.65477  Biso   1.000  H
  H195     1.0000 0.03520  0.29550  0.32143  Biso   1.000  H
  H196     1.0000 0.73970  0.70450  0.01190  Biso   1.000  H
  H197     1.0000 0.96480  0.26030  0.34523  Biso   1.000  H
  H198     1.0000 0.29550  0.03520  0.67857  Biso   1.000  H
  C265     1.0000 0.40580  0.81340  0.96340  Biso   1.000  C
  C266     1.0000 0.18660  0.59240  0.63007  Biso   1.000  C
  C267     1.0000 0.40760  0.59420  0.29673  Biso   1.000  C
  C268     1.0000 0.81340  0.40580  0.03660  Biso   1.000  C
  C269     1.0000 0.59240  0.18660  0.36993  Biso   1.000  C
  C270     1.0000 0.59420  0.40760  0.70327  Biso   1.000  C
  H199     1.0000 0.38250  0.76560  0.92810  Biso   1.000  H
  H200     1.0000 0.23440  0.61690  0.59477  Biso   1.000  H
  H201     1.0000 0.38310  0.61750  0.26143  Biso   1.000  H
  H202     1.0000 0.76560  0.38250  0.07190  Biso   1.000  H
  H203     1.0000 0.61690  0.23440  0.40523  Biso   1.000  H
  H204     1.0000 0.61750  0.38310  0.73857  Biso   1.000  H
  C271     1.0000 0.35850  0.81020  0.03050  Biso   1.000  C
  C272     1.0000 0.18980  0.54830  0.69717  Biso   1.000  C
  C273     1.0000 0.45170  0.64150  0.36383  Biso   1.000  C
  C274     1.0000 0.81020  0.35850  0.96950  Biso   1.000  C
  C275     1.0000 0.54830  0.18980  0.30283  Biso   1.000  C
  C276     1.0000 0.64150  0.45170  0.63617  Biso   1.000  C
  H205     1.0000 0.30760  0.76070  0.04600  Biso   1.000  H
  H206     1.0000 0.23930  0.54690  0.71267  Biso   1.000  H
  H207     1.0000 0.45310  0.69240  0.37933  Biso   1.000  H
  H208     1.0000 0.76070  0.30760  0.95400  Biso   1.000  H
  H209     1.0000 0.54690  0.23930  0.28733  Biso   1.000  H
  H210     1.0000 0.69240  0.45310  0.62067  Biso   1.000  H
  C277     1.0000 0.47210  0.94940  0.07210  Biso   1.000  C
  C278     1.0000 0.05060  0.52270  0.73877  Biso   1.000  C
  C279     1.0000 0.47730  0.52790  0.40543  Biso   1.000  C
  C280     1.0000 0.94940  0.47210  0.92790  Biso   1.000  C
  C281     1.0000 0.52270  0.05060  0.26123  Biso   1.000  C
  C282     1.0000 0.52790  0.47730  0.59457  Biso   1.000  C
  H211     1.0000 0.49810  0.99110  0.11350  Biso   1.000  H
  H212     1.0000 0.00890  0.50700  0.78017  Biso   1.000  H
  H213     1.0000 0.49300  0.50190  0.44683  Biso   1.000  H
  H214     1.0000 0.99110  0.49810  0.88650  Biso   1.000  H
  H215     1.0000 0.50700  0.00890  0.21983  Biso   1.000  H
  H216     1.0000 0.50190  0.49300  0.55317  Biso   1.000  H
  C283     1.0000 0.50970  0.94440  0.00140  Biso   1.000  C
  C284     1.0000 0.05560  0.56530  0.66807  Biso   1.000  C
  C285     1.0000 0.43470  0.49030  0.33473  Biso   1.000  C
  C286     1.0000 0.94440  0.50970  0.99860  Biso   1.000  C
  C287     1.0000 0.56530  0.05560  0.33193  Biso   1.000  C
  C288     1.0000 0.49030  0.43470  0.66527  Biso   1.000  C
  H217     1.0000 0.56240  0.99390  0.99070  Biso   1.000  H
  H218     1.0000 0.00610  0.56850  0.65737  Biso   1.000  H
  H219     1.0000 0.43150  0.43760  0.32403  Biso   1.000  H
  H220     1.0000 0.99390  0.56240  0.00930  Biso   1.000  H
  H221     1.0000 0.56850  0.00610  0.34263  Biso   1.000  H
  H222     1.0000 0.43760  0.43150  0.67597  Biso   1.000  H
