data_image0
_cell_length_a       7.5735
_cell_length_b       14.0021
_cell_length_c       15.1354
_cell_angle_alpha    67.48
_cell_angle_beta     78.953
_cell_angle_gamma    74.525

_symmetry_space_group_name_H-M    "P 1"
_symmetry_int_tables_number       1

loop_
  _symmetry_equiv_pos_as_xyz
  'x, y, z'

loop_
  _atom_site_label
  _atom_site_occupancy
  _atom_site_fract_x
  _atom_site_fract_y
  _atom_site_fract_z
  _atom_site_thermal_displace_type
  _atom_site_B_iso_or_equiv
  _atom_site_type_symbol
  Cu1      1.0000 0.25599  0.96197  0.24374  Biso   1.000  Cu
  Cu2      1.0000 0.74401  0.03803  0.75626  Biso   1.000  Cu
  Cu3      1.0000 0.59986  0.69134  0.10359  Biso   1.000  Cu
  Cu4      1.0000 0.40014  0.30866  0.89641  Biso   1.000  Cu
  Cu5      1.0000 0.30585  0.09210  0.60458  Biso   1.000  Cu
  Cu6      1.0000 0.69415  0.90790  0.39542  Biso   1.000  Cu
  Cu7      1.0000 0.90994  0.32626  0.13466  Biso   1.000  Cu
  Cu8      1.0000 0.09006  0.67374  0.86534  Biso   1.000  Cu
  N1       1.0000 0.23320  0.09430  0.73292  Biso   1.000  N
  N2       1.0000 0.76680  0.90570  0.26708  Biso   1.000  N
  N3       1.0000 0.61090  0.53240  0.59855  Biso   1.000  N
  N4       1.0000 0.38910  0.46760  0.40145  Biso   1.000  N
  N5       1.0000 0.74350  0.44720  0.58840  Biso   1.000  N
  N6       1.0000 0.25650  0.55280  0.41160  Biso   1.000  N
  N7       1.0000 0.69880  0.56428  0.44484  Biso   1.000  N
  N8       1.0000 0.30120  0.43572  0.55516  Biso   1.000  N
  N9       1.0000 0.71600  0.60810  0.34471  Biso   1.000  N
  N10      1.0000 0.28400  0.39190  0.65529  Biso   1.000  N
  H1       1.0000 0.79130  0.57360  0.31160  Biso   1.000  H
  H2       1.0000 0.20870  0.42640  0.68840  Biso   1.000  H
  H3       1.0000 0.65140  0.66960  0.31610  Biso   1.000  H
  H4       1.0000 0.34860  0.33040  0.68390  Biso   1.000  H
  N11      1.0000 0.39850  0.86530  0.18090  Biso   1.000  N
  N12      1.0000 0.60150  0.13470  0.81910  Biso   1.000  N
  N13      1.0000 0.15680  0.22820  0.50257  Biso   1.000  N
  N14      1.0000 0.84320  0.77180  0.49743  Biso   1.000  N
  C1       1.0000 0.12030  0.10060  0.21780  Biso   1.000  C
  C2       1.0000 0.87970  0.89940  0.78220  Biso   1.000  C
  N15      1.0000 0.45490  0.01880  0.52700  Biso   1.000  N
  N16      1.0000 0.54510  0.98120  0.47300  Biso   1.000  N
  C3       1.0000 0.58380  0.60250  0.51180  Biso   1.000  C
  C4       1.0000 0.41620  0.39750  0.48820  Biso   1.000  C
  C5       1.0000 0.44980  0.70320  0.49550  Biso   1.000  C
  C6       1.0000 0.55020  0.29680  0.50450  Biso   1.000  C
  C7       1.0000 0.79610  0.46720  0.49610  Biso   1.000  C
  C8       1.0000 0.20390  0.53280  0.50390  Biso   1.000  C
  C9       1.0000 0.93720  0.39430  0.45810  Biso   1.000  C
  C10      1.0000 0.06280  0.60570  0.54190  Biso   1.000  C
  C11      1.0000 0.24830  0.02390  0.82130  Biso   1.000  C
  C12      1.0000 0.75170  0.97610  0.17870  Biso   1.000  C
  N17      1.0000 0.15920  0.06770  0.88742  Biso   1.000  N
  N18      1.0000 0.84080  0.93230  0.11258  Biso   1.000  N
  C13      1.0000 0.08860  0.16950  0.83460  Biso   1.000  C
  C14      1.0000 0.91140  0.83050  0.16540  Biso   1.000  C
  N19      1.0000 0.13080  0.18860  0.74223  Biso   1.000  N
  N20      1.0000 0.86920  0.81140  0.25777  Biso   1.000  N
  C15      1.0000 0.97740  0.25220  0.87220  Biso   1.000  C
  C16      1.0000 0.02260  0.74780  0.12780  Biso   1.000  C
  C17      1.0000 0.86160  0.33820  0.81250  Biso   1.000  C
  C18      1.0000 0.13840  0.66180  0.18750  Biso   1.000  C
  H5       1.0000 0.85180  0.34230  0.75070  Biso   1.000  H
  H6       1.0000 0.14820  0.65770  0.24930  Biso   1.000  H
  C19      1.0000 0.76190  0.41680  0.84670  Biso   1.000  C
  C20      1.0000 0.23810  0.58320  0.15330  Biso   1.000  C
  H7       1.0000 0.68430  0.47530  0.80820  Biso   1.000  H
  H8       1.0000 0.31570  0.52470  0.19180  Biso   1.000  H
  C21      1.0000 0.35150  0.72940  0.57290  Biso   1.000  C
  C22      1.0000 0.64850  0.27060  0.42710  Biso   1.000  C
  H9       1.0000 0.37320  0.68430  0.63530  Biso   1.000  H
  H10      1.0000 0.62680  0.31570  0.36470  Biso   1.000  H
  C23      1.0000 0.37790  0.85680  0.78570  Biso   1.000  C
  C24      1.0000 0.62210  0.14320  0.21430  Biso   1.000  C
  H11      1.0000 0.32510  0.88650  0.72790  Biso   1.000  H
  H12      1.0000 0.67490  0.11350  0.27210  Biso   1.000  H
  C25      1.0000 0.43590  0.86520  0.93070  Biso   1.000  C
  C26      1.0000 0.56410  0.13480  0.06930  Biso   1.000  C
  H13      1.0000 0.42130  0.90370  0.97080  Biso   1.000  H
  H14      1.0000 0.57870  0.09630  0.02920  Biso   1.000  H
  C27      1.0000 0.35460  0.91420  0.84490  Biso   1.000  C
  C28      1.0000 0.64540  0.08580  0.15510  Biso   1.000  C
  C29      1.0000 0.02760  0.30350  0.52580  Biso   1.000  C
  C30      1.0000 0.97240  0.69650  0.47420  Biso   1.000  C
  H15      1.0000 0.99650  0.29470  0.59050  Biso   1.000  H
  H16      1.0000 0.00350  0.70530  0.40950  Biso   1.000  H
  N21      1.0000 0.53350  0.76610  0.95860  Biso   1.000  N
  N22      1.0000 0.46650  0.23390  0.04140  Biso   1.000  N
  C31      1.0000 0.19900  0.24150  0.40920  Biso   1.000  C
  C32      1.0000 0.80100  0.75850  0.59080  Biso   1.000  C
  H17      1.0000 0.28810  0.18980  0.39190  Biso   1.000  H
  H18      1.0000 0.71190  0.81020  0.60810  Biso   1.000  H
  C33      1.0000 0.11580  0.32880  0.33780  Biso   1.000  C
  C34      1.0000 0.88420  0.67120  0.66220  Biso   1.000  C
  H19      1.0000 0.14800  0.33530  0.27360  Biso   1.000  H
  H20      1.0000 0.85200  0.66470  0.72640  Biso   1.000  H
  C35      1.0000 0.48060  0.75510  0.81330  Biso   1.000  C
  C36      1.0000 0.51940  0.24490  0.18670  Biso   1.000  C
  H21      1.0000 0.49890  0.71510  0.77420  Biso   1.000  H
  H22      1.0000 0.50110  0.28490  0.22580  Biso   1.000  H
  C37      1.0000 0.41110  0.77440  0.40440  Biso   1.000  C
  C38      1.0000 0.58890  0.22560  0.59560  Biso   1.000  C
  H23      1.0000 0.47680  0.75810  0.35170  Biso   1.000  H
  H24      1.0000 0.52320  0.24190  0.64830  Biso   1.000  H
  C39      1.0000 0.98470  0.40620  0.36230  Biso   1.000  C
  C40      1.0000 0.01530  0.59380  0.63770  Biso   1.000  C
  H25      1.0000 0.92840  0.46590  0.31480  Biso   1.000  H
  H26      1.0000 0.07160  0.53410  0.68520  Biso   1.000  H
  N23      1.0000 0.28490  0.86530  0.38800  Biso   1.000  N
  N24      1.0000 0.71510  0.13470  0.61200  Biso   1.000  N
  C41      1.0000 0.19270  0.88840  0.46480  Biso   1.000  C
  C42      1.0000 0.80730  0.11160  0.53520  Biso   1.000  C
  H27      1.0000 0.10600  0.95170  0.45490  Biso   1.000  H
  H28      1.0000 0.89400  0.04830  0.54510  Biso   1.000  H
  C43      1.0000 0.22090  0.82280  0.55710  Biso   1.000  C
  C44      1.0000 0.77910  0.17720  0.44290  Biso   1.000  C
  H29      1.0000 0.15300  0.84080  0.60860  Biso   1.000  H
  H30      1.0000 0.84700  0.15920  0.39140  Biso   1.000  H
  C45      1.0000 0.55590  0.71320  0.89920  Biso   1.000  C
  C46      1.0000 0.44410  0.28680  0.10080  Biso   1.000  C
  H31      1.0000 0.62610  0.64440  0.91680  Biso   1.000  H
  H32      1.0000 0.37390  0.35560  0.08320  Biso   1.000  H
  C47      1.0000 0.77870  0.40770  0.93810  Biso   1.000  C
  C48      1.0000 0.22130  0.59230  0.06190  Biso   1.000  C
  H33      1.0000 0.70970  0.46100  0.96070  Biso   1.000  H
  H34      1.0000 0.29030  0.53900  0.03930  Biso   1.000  H
  C49      1.0000 0.98550  0.24970  0.96330  Biso   1.000  C
  C50      1.0000 0.01450  0.75030  0.03670  Biso   1.000  C
  H35      1.0000 0.06180  0.19200  0.00350  Biso   1.000  H
  H36      1.0000 0.93820  0.80800  0.99650  Biso   1.000  H
  N25      1.0000 0.88890  0.32630  0.99680  Biso   1.000  N
  N26      1.0000 0.11110  0.67370  0.00320  Biso   1.000  N
  C51      1.0000 0.48380  0.79820  0.15510  Biso   1.000  C
  C52      1.0000 0.51620  0.20180  0.84490  Biso   1.000  C
  N27      1.0000 0.03970  0.18660  0.19610  Biso   1.000  N
  N28      1.0000 0.96030  0.81340  0.80390  Biso   1.000  N
  C53      1.0000 0.72450  0.55080  0.12560  Biso   1.000  C
  C54      1.0000 0.27550  0.44920  0.87440  Biso   1.000  C
  N29      1.0000 0.79630  0.46450  0.13410  Biso   1.000  N
  N30      1.0000 0.20370  0.53550  0.86590  Biso   1.000  N
  N31      1.0000 0.14430  0.01240  0.98790  Biso   1.000  N
  N32      1.0000 0.85570  0.98760  0.01210  Biso   1.000  N
  N33      1.0000 0.02240  0.00160  0.00170  Biso   1.000  N
  N34      1.0000 0.97760  0.99840  0.99830  Biso   1.000  N
