data_image0
_cell_length_a       12.8738
_cell_length_b       7.1809
_cell_length_c       14.0659
_cell_angle_alpha    90
_cell_angle_beta     98.657
_cell_angle_gamma    90

_symmetry_space_group_name_H-M    "P 1"
_symmetry_int_tables_number       1

loop_
  _symmetry_equiv_pos_as_xyz
  'x, y, z'

loop_
  _atom_site_label
  _atom_site_occupancy
  _atom_site_fract_x
  _atom_site_fract_y
  _atom_site_fract_z
  _atom_site_thermal_displace_type
  _atom_site_B_iso_or_equiv
  _atom_site_type_symbol
  I1       1.0000 0.99638  0.68997  0.67762  Biso   1.000  I
  I2       1.0000 0.50362  0.18997  0.82238  Biso   1.000  I
  I3       1.0000 0.00362  0.31003  0.32238  Biso   1.000  I
  I4       1.0000 0.49638  0.81003  0.17762  Biso   1.000  I
  Cu1      1.0000 0.16286  0.57242  0.78489  Biso   1.000  Cu
  Cu2      1.0000 0.33714  0.07242  0.71511  Biso   1.000  Cu
  Cu3      1.0000 0.83714  0.42758  0.21511  Biso   1.000  Cu
  Cu4      1.0000 0.66286  0.92758  0.28489  Biso   1.000  Cu
  S1       1.0000 0.19673  0.27091  0.70530  Biso   1.000  S
  S2       1.0000 0.30327  0.77091  0.79470  Biso   1.000  S
  S3       1.0000 0.80327  0.72909  0.29470  Biso   1.000  S
  S4       1.0000 0.69673  0.22909  0.20530  Biso   1.000  S
  N1       1.0000 0.16444  0.41600  0.90718  Biso   1.000  N
  N2       1.0000 0.33556  0.91600  0.59282  Biso   1.000  N
  N3       1.0000 0.83556  0.58400  0.09282  Biso   1.000  N
  N4       1.0000 0.66444  0.08400  0.40718  Biso   1.000  N
  C1       1.0000 0.11779  0.17050  0.78908  Biso   1.000  C
  C2       1.0000 0.38221  0.67050  0.71092  Biso   1.000  C
  C3       1.0000 0.88221  0.82950  0.21092  Biso   1.000  C
  C4       1.0000 0.61779  0.32950  0.28908  Biso   1.000  C
  C5       1.0000 0.11388  0.23150  0.59226  Biso   1.000  C
  C6       1.0000 0.38612  0.73150  0.90774  Biso   1.000  C
  C7       1.0000 0.88612  0.76850  0.40774  Biso   1.000  C
  C8       1.0000 0.61388  0.26850  0.09226  Biso   1.000  C
  C9       1.0000 0.18097  0.47180  0.99602  Biso   1.000  C
  C10      1.0000 0.31903  0.97180  0.50398  Biso   1.000  C
  C11      1.0000 0.81903  0.52820  0.00398  Biso   1.000  C
  C12      1.0000 0.68097  0.02820  0.49602  Biso   1.000  C
  C13      1.0000 0.17240  0.21550  0.88927  Biso   1.000  C
  C14      1.0000 0.32760  0.71550  0.61073  Biso   1.000  C
  C15      1.0000 0.82760  0.78450  0.11073  Biso   1.000  C
  C16      1.0000 0.67240  0.28450  0.38927  Biso   1.000  C
  H1       1.0000 0.04620  0.22430  0.77860  Biso   1.000  H
  H2       1.0000 0.45380  0.72430  0.72140  Biso   1.000  H
  H3       1.0000 0.95380  0.77570  0.22140  Biso   1.000  H
  H4       1.0000 0.54620  0.27570  0.27860  Biso   1.000  H
  H5       1.0000 0.11210  0.03390  0.78000  Biso   1.000  H
  H6       1.0000 0.38790  0.53390  0.72000  Biso   1.000  H
  H7       1.0000 0.88790  0.96610  0.22000  Biso   1.000  H
  H8       1.0000 0.61210  0.46610  0.28000  Biso   1.000  H
  H9       1.0000 0.09540  0.09920  0.58620  Biso   1.000  H
  H10      1.0000 0.40460  0.59920  0.91380  Biso   1.000  H
  H11      1.0000 0.90460  0.90080  0.41380  Biso   1.000  H
  H12      1.0000 0.59540  0.40080  0.08620  Biso   1.000  H
  H13      1.0000 0.15140  0.26790  0.53950  Biso   1.000  H
  H14      1.0000 0.34860  0.76790  0.96050  Biso   1.000  H
  H15      1.0000 0.84860  0.73210  0.46050  Biso   1.000  H
  H16      1.0000 0.65140  0.23210  0.03950  Biso   1.000  H
  H17      1.0000 0.04970  0.30600  0.58950  Biso   1.000  H
  H18      1.0000 0.45030  0.80600  0.91050  Biso   1.000  H
  H19      1.0000 0.95030  0.69400  0.41050  Biso   1.000  H
  H20      1.0000 0.54970  0.19400  0.08950  Biso   1.000  H
  N5       1.0000 0.22225  0.37340  0.07715  Biso   1.000  N
  N6       1.0000 0.27775  0.87340  0.42285  Biso   1.000  N
  N7       1.0000 0.77775  0.62660  0.92285  Biso   1.000  N
  N8       1.0000 0.72225  0.12660  0.57715  Biso   1.000  N
  N9       1.0000 0.15369  0.64710  0.02277  Biso   1.000  N
  N10      1.0000 0.34631  0.14710  0.47723  Biso   1.000  N
  N11      1.0000 0.84631  0.35290  0.97723  Biso   1.000  N
  N12      1.0000 0.65369  0.85290  0.52277  Biso   1.000  N
  H21      1.0000 0.13930  0.14480  0.93720  Biso   1.000  H
  H22      1.0000 0.36070  0.64480  0.56280  Biso   1.000  H
  H23      1.0000 0.86070  0.85520  0.06280  Biso   1.000  H
  H24      1.0000 0.63930  0.35520  0.43720  Biso   1.000  H
  H25      1.0000 0.24720  0.17870  0.89580  Biso   1.000  H
  H26      1.0000 0.25280  0.67870  0.60420  Biso   1.000  H
  H27      1.0000 0.75280  0.82130  0.10420  Biso   1.000  H
  H28      1.0000 0.74720  0.32130  0.39580  Biso   1.000  H
  C17      1.0000 0.30990  0.24420  0.07820  Biso   1.000  C
  C18      1.0000 0.19010  0.74420  0.42180  Biso   1.000  C
  C19      1.0000 0.69010  0.75580  0.92180  Biso   1.000  C
  C20      1.0000 0.80990  0.25580  0.57820  Biso   1.000  C
  C21      1.0000 0.22712  0.49380  0.16175  Biso   1.000  C
  C22      1.0000 0.27288  0.99380  0.33825  Biso   1.000  C
  C23      1.0000 0.77288  0.50620  0.83825  Biso   1.000  C
  C24      1.0000 0.72712  0.00620  0.66175  Biso   1.000  C
  C25      1.0000 0.15100  0.64760  0.12672  Biso   1.000  C
  C26      1.0000 0.34900  0.14760  0.37328  Biso   1.000  C
  C27      1.0000 0.84900  0.35240  0.87328  Biso   1.000  C
  C28      1.0000 0.65100  0.85240  0.62672  Biso   1.000  C
  C29      1.0000 0.06959  0.74870  0.96509  Biso   1.000  C
  C30      1.0000 0.43041  0.24870  0.53491  Biso   1.000  C
  C31      1.0000 0.93041  0.25130  0.03491  Biso   1.000  C
  C32      1.0000 0.56959  0.75130  0.46509  Biso   1.000  C
  H29      1.0000 0.28360  0.12370  0.05230  Biso   1.000  H
  H30      1.0000 0.21640  0.62370  0.44770  Biso   1.000  H
  H31      1.0000 0.71640  0.87630  0.94770  Biso   1.000  H
  H32      1.0000 0.78360  0.37630  0.55230  Biso   1.000  H
  H33      1.0000 0.34520  0.22790  0.14440  Biso   1.000  H
  H34      1.0000 0.15480  0.72790  0.35560  Biso   1.000  H
  H35      1.0000 0.65480  0.77210  0.85560  Biso   1.000  H
  H36      1.0000 0.84520  0.27210  0.64440  Biso   1.000  H
  H37      1.0000 0.35990  0.29440  0.03870  Biso   1.000  H
  H38      1.0000 0.14010  0.79440  0.46130  Biso   1.000  H
  H39      1.0000 0.64010  0.70560  0.96130  Biso   1.000  H
  H40      1.0000 0.85990  0.20560  0.53870  Biso   1.000  H
  H41      1.0000 0.29890  0.54330  0.18130  Biso   1.000  H
  H42      1.0000 0.20110  0.04330  0.31870  Biso   1.000  H
  H43      1.0000 0.70110  0.45670  0.81870  Biso   1.000  H
  H44      1.0000 0.79890  0.95670  0.68130  Biso   1.000  H
  H45      1.0000 0.20470  0.42640  0.21660  Biso   1.000  H
  H46      1.0000 0.29530  0.92640  0.28340  Biso   1.000  H
  H47      1.0000 0.79530  0.57360  0.78340  Biso   1.000  H
  H48      1.0000 0.70470  0.07360  0.71660  Biso   1.000  H
  H49      1.0000 0.07960  0.62000  0.14100  Biso   1.000  H
  H50      1.0000 0.42040  0.12000  0.35900  Biso   1.000  H
  H51      1.0000 0.92040  0.38000  0.85900  Biso   1.000  H
  H52      1.0000 0.57960  0.88000  0.64100  Biso   1.000  H
  H53      1.0000 0.17470  0.76880  0.15590  Biso   1.000  H
  H54      1.0000 0.32530  0.26880  0.34410  Biso   1.000  H
  H55      1.0000 0.82530  0.23120  0.84410  Biso   1.000  H
  H56      1.0000 0.67470  0.73120  0.65590  Biso   1.000  H
  H57      1.0000 0.08670  0.76620  0.90010  Biso   1.000  H
  H58      1.0000 0.41330  0.26620  0.59990  Biso   1.000  H
  H59      1.0000 0.91330  0.23380  0.09990  Biso   1.000  H
  H60      1.0000 0.58670  0.73380  0.40010  Biso   1.000  H
  H61      1.0000 0.06120  0.87040  0.99450  Biso   1.000  H
  H62      1.0000 0.43880  0.37040  0.50550  Biso   1.000  H
  H63      1.0000 0.93880  0.12960  0.00550  Biso   1.000  H
  H64      1.0000 0.56120  0.62960  0.49450  Biso   1.000  H
  H65      1.0000 0.00400  0.67810  0.96170  Biso   1.000  H
  H66      1.0000 0.49600  0.17810  0.53830  Biso   1.000  H
  H67      1.0000 0.99600  0.32190  0.03830  Biso   1.000  H
  H68      1.0000 0.50400  0.82190  0.46170  Biso   1.000  H
