data_image0
_cell_length_a       7.4671
_cell_length_b       10.8704
_cell_length_c       11.3583
_cell_angle_alpha    88.26
_cell_angle_beta     86.739
_cell_angle_gamma    79.951

_symmetry_space_group_name_H-M    "P 1"
_symmetry_int_tables_number       1

loop_
  _symmetry_equiv_pos_as_xyz
  'x, y, z'

loop_
  _atom_site_label
  _atom_site_occupancy
  _atom_site_fract_x
  _atom_site_fract_y
  _atom_site_fract_z
  _atom_site_thermal_displace_type
  _atom_site_B_iso_or_equiv
  _atom_site_type_symbol
  I1       1.0000 0.33567  0.51815  0.67088  Biso   1.000  I
  I2       1.0000 0.66433  0.48185  0.32912  Biso   1.000  I
  I3       1.0000 0.15116  0.71377  0.33998  Biso   1.000  I
  I4       1.0000 0.84884  0.28623  0.66002  Biso   1.000  I
  I5       1.0000 0.11055  0.90565  0.66952  Biso   1.000  I
  I6       1.0000 0.88945  0.09435  0.33048  Biso   1.000  I
  Cu1      1.0000 0.50000  0.50000  0.00000  Biso   1.000  Cu
  Cu2      1.0000 0.33255  0.51526  0.43891  Biso   1.000  Cu
  Cu3      1.0000 0.66745  0.48474  0.56109  Biso   1.000  Cu
  Cu4      1.0000 0.09377  0.68993  0.56964  Biso   1.000  Cu
  Cu5      1.0000 0.90623  0.31007  0.43036  Biso   1.000  Cu
  Cu6      1.0000 0.05011  0.91619  0.45505  Biso   1.000  Cu
  Cu7      1.0000 0.94989  0.08381  0.54495  Biso   1.000  Cu
  S1       1.0000 0.20745  0.34081  0.39483  Biso   1.000  S
  S2       1.0000 0.79255  0.65919  0.60517  Biso   1.000  S
  N1       1.0000 0.41460  0.34780  0.99580  Biso   1.000  N
  N2       1.0000 0.58540  0.65220  0.00420  Biso   1.000  N
  N3       1.0000 0.68560  0.20920  0.95700  Biso   1.000  N
  N4       1.0000 0.31440  0.79080  0.04300  Biso   1.000  N
  N5       1.0000 0.43320  0.15180  0.89990  Biso   1.000  N
  N6       1.0000 0.56680  0.84820  0.10010  Biso   1.000  N
  C1       1.0000 0.50280  0.24370  0.95430  Biso   1.000  C
  C2       1.0000 0.49720  0.75630  0.04570  Biso   1.000  C
  C3       1.0000 0.79750  0.26830  0.03010  Biso   1.000  C
  C4       1.0000 0.20250  0.73170  0.96990  Biso   1.000  C
  H1       1.0000 0.86310  0.32330  0.98090  Biso   1.000  H
  H2       1.0000 0.13690  0.67670  0.01910  Biso   1.000  H
  H3       1.0000 0.88530  0.20400  0.06840  Biso   1.000  H
  H4       1.0000 0.11470  0.79600  0.93160  Biso   1.000  H
  H5       1.0000 0.72000  0.31750  0.09040  Biso   1.000  H
  H6       1.0000 0.28000  0.68250  0.90960  Biso   1.000  H
  C5       1.0000 0.74630  0.08170  0.91650  Biso   1.000  C
  C6       1.0000 0.25370  0.91830  0.08350  Biso   1.000  C
  H7       1.0000 0.77370  0.02250  0.98360  Biso   1.000  H
  H8       1.0000 0.22630  0.97750  0.01640  Biso   1.000  H
  H9       1.0000 0.85560  0.07630  0.86200  Biso   1.000  H
  H10      1.0000 0.14440  0.92370  0.13800  Biso   1.000  H
  C7       1.0000 0.58430  0.05670  0.85380  Biso   1.000  C
  C8       1.0000 0.41570  0.94330  0.14620  Biso   1.000  C
  H11      1.0000 0.60350  0.06660  0.76730  Biso   1.000  H
  H12      1.0000 0.39650  0.93340  0.23270  Biso   1.000  H
  H13      1.0000 0.56030  0.97130  0.87240  Biso   1.000  H
  H14      1.0000 0.43970  0.02870  0.12760  Biso   1.000  H
  C9       1.0000 0.28170  0.18430  0.82010  Biso   1.000  C
  C10      1.0000 0.71830  0.81570  0.17990  Biso   1.000  C
  H15      1.0000 0.16550  0.18530  0.86510  Biso   1.000  H
  H16      1.0000 0.83450  0.81470  0.13490  Biso   1.000  H
  H17      1.0000 0.29440  0.12210  0.75810  Biso   1.000  H
  H18      1.0000 0.70560  0.87790  0.24190  Biso   1.000  H
  H19      1.0000 0.28460  0.26710  0.78420  Biso   1.000  H
  H20      1.0000 0.71540  0.73290  0.21580  Biso   1.000  H
  C11      1.0000 0.22070  0.35420  0.02920  Biso   1.000  C
  C12      1.0000 0.77930  0.64580  0.97080  Biso   1.000  C
  H21      1.0000 0.18680  0.27080  0.02160  Biso   1.000  H
  H22      1.0000 0.81320  0.72920  0.97840  Biso   1.000  H
  H23      1.0000 0.14690  0.41330  0.97540  Biso   1.000  H
  H24      1.0000 0.85310  0.58670  0.02460  Biso   1.000  H
  C13      1.0000 0.18080  0.39700  0.15480  Biso   1.000  C
  C14      1.0000 0.81920  0.60300  0.84520  Biso   1.000  C
  H25      1.0000 0.04750  0.41180  0.17250  Biso   1.000  H
  H26      1.0000 0.95250  0.58820  0.82750  Biso   1.000  H
  H27      1.0000 0.22430  0.47710  0.16350  Biso   1.000  H
  H28      1.0000 0.77570  0.52290  0.83650  Biso   1.000  H
  C15      1.0000 0.27380  0.29960  0.24390  Biso   1.000  C
  C16      1.0000 0.72620  0.70040  0.75610  Biso   1.000  C
  H29      1.0000 0.40760  0.29210  0.23190  Biso   1.000  H
  H30      1.0000 0.59240  0.70790  0.76810  Biso   1.000  H
  H31      1.0000 0.24150  0.21710  0.22880  Biso   1.000  H
  H32      1.0000 0.75850  0.78290  0.77120  Biso   1.000  H
  C17      1.0000 0.34480  0.21020  0.46830  Biso   1.000  C
  C18      1.0000 0.65520  0.78980  0.53170  Biso   1.000  C
  H33      1.0000 0.31050  0.13200  0.44430  Biso   1.000  H
  H34      1.0000 0.68950  0.86800  0.55570  Biso   1.000  H
  H35      1.0000 0.32430  0.21840  0.55390  Biso   1.000  H
  H36      1.0000 0.67570  0.78160  0.44610  Biso   1.000  H
  H37      1.0000 0.47380  0.20960  0.44630  Biso   1.000  H
  H38      1.0000 0.52620  0.79040  0.55370  Biso   1.000  H
