data_image0
_cell_length_a       21.6096
_cell_length_b       7.216
_cell_length_c       17.6529
_cell_angle_alpha    90
_cell_angle_beta     90
_cell_angle_gamma    90

_symmetry_space_group_name_H-M    "P 1"
_symmetry_int_tables_number       1

loop_
  _symmetry_equiv_pos_as_xyz
  'x, y, z'

loop_
  _atom_site_label
  _atom_site_occupancy
  _atom_site_fract_x
  _atom_site_fract_y
  _atom_site_fract_z
  _atom_site_thermal_displace_type
  _atom_site_B_iso_or_equiv
  _atom_site_type_symbol
  Cu1      1.0000 0.16563  0.25725  0.05297  Biso   1.000  Cu
  Cu2      1.0000 0.66563  0.75725  0.44703  Biso   1.000  Cu
  Cu3      1.0000 0.16563  0.74275  0.55297  Biso   1.000  Cu
  Cu4      1.0000 0.33437  0.75725  0.05297  Biso   1.000  Cu
  Cu5      1.0000 0.83437  0.74275  0.94703  Biso   1.000  Cu
  Cu6      1.0000 0.33437  0.24275  0.55297  Biso   1.000  Cu
  Cu7      1.0000 0.83437  0.25725  0.44703  Biso   1.000  Cu
  Cu8      1.0000 0.66563  0.24275  0.94703  Biso   1.000  Cu
  O1       1.0000 0.22840  0.48970  0.27920  Biso   1.000  O
  O2       1.0000 0.72840  0.98970  0.22080  Biso   1.000  O
  O3       1.0000 0.22840  0.51030  0.77920  Biso   1.000  O
  O4       1.0000 0.27160  0.98970  0.27920  Biso   1.000  O
  O5       1.0000 0.77160  0.51030  0.72080  Biso   1.000  O
  O6       1.0000 0.27160  0.01030  0.77920  Biso   1.000  O
  O7       1.0000 0.77160  0.48970  0.22080  Biso   1.000  O
  O8       1.0000 0.72840  0.01030  0.72080  Biso   1.000  O
  H1       1.0000 0.21400  0.59400  0.28300  Biso   1.000  H
  H2       1.0000 0.71400  0.09400  0.21700  Biso   1.000  H
  H3       1.0000 0.21400  0.40600  0.78300  Biso   1.000  H
  H4       1.0000 0.28600  0.09400  0.28300  Biso   1.000  H
  H5       1.0000 0.78600  0.40600  0.71700  Biso   1.000  H
  H6       1.0000 0.28600  0.90600  0.78300  Biso   1.000  H
  H7       1.0000 0.78600  0.59400  0.21700  Biso   1.000  H
  H8       1.0000 0.71400  0.90600  0.71700  Biso   1.000  H
  H9       1.0000 0.26450  0.45400  0.28100  Biso   1.000  H
  H10      1.0000 0.76450  0.95400  0.21900  Biso   1.000  H
  H11      1.0000 0.26450  0.54600  0.78100  Biso   1.000  H
  H12      1.0000 0.23550  0.95400  0.28100  Biso   1.000  H
  H13      1.0000 0.73550  0.54600  0.71900  Biso   1.000  H
  H14      1.0000 0.23550  0.04600  0.78100  Biso   1.000  H
  H15      1.0000 0.73550  0.45400  0.21900  Biso   1.000  H
  H16      1.0000 0.76450  0.04600  0.71900  Biso   1.000  H
  O9       1.0000 0.16440  0.28960  0.17660  Biso   1.000  O
  O10      1.0000 0.66440  0.78960  0.32340  Biso   1.000  O
  O11      1.0000 0.16440  0.71040  0.67660  Biso   1.000  O
  O12      1.0000 0.33560  0.78960  0.17660  Biso   1.000  O
  O13      1.0000 0.83560  0.71040  0.82340  Biso   1.000  O
  O14      1.0000 0.33560  0.21040  0.67660  Biso   1.000  O
  O15      1.0000 0.83560  0.28960  0.32340  Biso   1.000  O
  O16      1.0000 0.66440  0.21040  0.82340  Biso   1.000  O
  H17      1.0000 0.15300  0.19700  0.19900  Biso   1.000  H
  H18      1.0000 0.65300  0.69700  0.30100  Biso   1.000  H
  H19      1.0000 0.15300  0.80300  0.69900  Biso   1.000  H
  H20      1.0000 0.34700  0.69700  0.19900  Biso   1.000  H
  H21      1.0000 0.84700  0.80300  0.80100  Biso   1.000  H
  H22      1.0000 0.34700  0.30300  0.69900  Biso   1.000  H
  H23      1.0000 0.84700  0.19700  0.30100  Biso   1.000  H
  H24      1.0000 0.65300  0.30300  0.80100  Biso   1.000  H
  H25      1.0000 0.18800  0.34400  0.20500  Biso   1.000  H
  H26      1.0000 0.68800  0.84400  0.29500  Biso   1.000  H
  H27      1.0000 0.18800  0.65600  0.70500  Biso   1.000  H
  H28      1.0000 0.31200  0.84400  0.20500  Biso   1.000  H
  H29      1.0000 0.81200  0.65600  0.79500  Biso   1.000  H
  H30      1.0000 0.31200  0.15600  0.70500  Biso   1.000  H
  H31      1.0000 0.81200  0.34400  0.29500  Biso   1.000  H
  H32      1.0000 0.68800  0.15600  0.79500  Biso   1.000  H
  O17      1.0000 0.10900  0.93580  0.77230  Biso   1.000  O
  O18      1.0000 0.60900  0.43580  0.72770  Biso   1.000  O
  O19      1.0000 0.10900  0.06420  0.27230  Biso   1.000  O
  O20      1.0000 0.39100  0.43580  0.77230  Biso   1.000  O
  O21      1.0000 0.89100  0.06420  0.22770  Biso   1.000  O
  O22      1.0000 0.39100  0.56420  0.27230  Biso   1.000  O
  O23      1.0000 0.89100  0.93580  0.72770  Biso   1.000  O
  O24      1.0000 0.60900  0.56420  0.22770  Biso   1.000  O
  O25      1.0000 0.15820  0.19490  0.80630  Biso   1.000  O
  O26      1.0000 0.65820  0.69490  0.69370  Biso   1.000  O
  O27      1.0000 0.15820  0.80510  0.30630  Biso   1.000  O
  O28      1.0000 0.34180  0.69490  0.80630  Biso   1.000  O
  O29      1.0000 0.84180  0.80510  0.19370  Biso   1.000  O
  O30      1.0000 0.34180  0.30510  0.30630  Biso   1.000  O
  O31      1.0000 0.84180  0.19490  0.69370  Biso   1.000  O
  O32      1.0000 0.65820  0.30510  0.19370  Biso   1.000  O
  N1       1.0000 0.07820  0.24810  0.03380  Biso   1.000  N
  N2       1.0000 0.57820  0.74810  0.46620  Biso   1.000  N
  N3       1.0000 0.07820  0.75190  0.53380  Biso   1.000  N
  N4       1.0000 0.42180  0.74810  0.03380  Biso   1.000  N
  N5       1.0000 0.92180  0.75190  0.96620  Biso   1.000  N
  N6       1.0000 0.42180  0.25190  0.53380  Biso   1.000  N
  N7       1.0000 0.92180  0.24810  0.46620  Biso   1.000  N
  N8       1.0000 0.57820  0.25190  0.96620  Biso   1.000  N
  N9       1.0000 0.75290  0.24420  0.96740  Biso   1.000  N
  N10      1.0000 0.25290  0.74420  0.53260  Biso   1.000  N
  N11      1.0000 0.75290  0.75580  0.46740  Biso   1.000  N
  N12      1.0000 0.74710  0.74420  0.96740  Biso   1.000  N
  N13      1.0000 0.24710  0.75580  0.03260  Biso   1.000  N
  N14      1.0000 0.74710  0.25580  0.46740  Biso   1.000  N
  N15      1.0000 0.24710  0.24420  0.53260  Biso   1.000  N
  N16      1.0000 0.25290  0.25580  0.03260  Biso   1.000  N
  C1       1.0000 0.05420  0.28650  0.96460  Biso   1.000  C
  C2       1.0000 0.55420  0.78650  0.53540  Biso   1.000  C
  C3       1.0000 0.05420  0.71350  0.46460  Biso   1.000  C
  C4       1.0000 0.44580  0.78650  0.96460  Biso   1.000  C
  C5       1.0000 0.94580  0.71350  0.03540  Biso   1.000  C
  C6       1.0000 0.44580  0.21350  0.46460  Biso   1.000  C
  C7       1.0000 0.94580  0.28650  0.53540  Biso   1.000  C
  C8       1.0000 0.55420  0.21350  0.03540  Biso   1.000  C
  H33      1.0000 0.08130  0.31410  0.92520  Biso   1.000  H
  H34      1.0000 0.58130  0.81410  0.57480  Biso   1.000  H
  H35      1.0000 0.08130  0.68590  0.42520  Biso   1.000  H
  H36      1.0000 0.41870  0.81410  0.92520  Biso   1.000  H
  H37      1.0000 0.91870  0.68590  0.07480  Biso   1.000  H
  H38      1.0000 0.41870  0.18590  0.42520  Biso   1.000  H
  H39      1.0000 0.91870  0.31410  0.57480  Biso   1.000  H
  H40      1.0000 0.58130  0.18590  0.07480  Biso   1.000  H
  C9       1.0000 0.99190  0.28640  0.94980  Biso   1.000  C
  C10      1.0000 0.49190  0.78640  0.55020  Biso   1.000  C
  C11      1.0000 0.99190  0.71360  0.44980  Biso   1.000  C
  C12      1.0000 0.50810  0.78640  0.94980  Biso   1.000  C
  C13      1.0000 0.00810  0.71360  0.05020  Biso   1.000  C
  C14      1.0000 0.50810  0.21360  0.44980  Biso   1.000  C
  C15      1.0000 0.00810  0.28640  0.55020  Biso   1.000  C
  C16      1.0000 0.49190  0.21360  0.05020  Biso   1.000  C
  H41      1.0000 0.97760  0.31460  0.90150  Biso   1.000  H
  H42      1.0000 0.47760  0.81460  0.59850  Biso   1.000  H
  H43      1.0000 0.97760  0.68540  0.40150  Biso   1.000  H
  H44      1.0000 0.52240  0.81460  0.90150  Biso   1.000  H
  H45      1.0000 0.02240  0.68540  0.09850  Biso   1.000  H
  H46      1.0000 0.52240  0.18540  0.40150  Biso   1.000  H
  H47      1.0000 0.02240  0.31460  0.59850  Biso   1.000  H
  H48      1.0000 0.47760  0.18540  0.09850  Biso   1.000  H
  C17      1.0000 0.94970  0.24370  0.00780  Biso   1.000  C
  C18      1.0000 0.44970  0.74370  0.49220  Biso   1.000  C
  C19      1.0000 0.94970  0.75630  0.50780  Biso   1.000  C
  C20      1.0000 0.55030  0.74370  0.00780  Biso   1.000  C
  C21      1.0000 0.05030  0.75630  0.99220  Biso   1.000  C
  C22      1.0000 0.55030  0.25630  0.50780  Biso   1.000  C
  C23      1.0000 0.05030  0.24370  0.49220  Biso   1.000  C
  C24      1.0000 0.44970  0.25630  0.99220  Biso   1.000  C
  C25      1.0000 0.97450  0.20030  0.07840  Biso   1.000  C
  C26      1.0000 0.47450  0.70030  0.42160  Biso   1.000  C
  C27      1.0000 0.97450  0.79970  0.57840  Biso   1.000  C
  C28      1.0000 0.52550  0.70030  0.07840  Biso   1.000  C
  C29      1.0000 0.02550  0.79970  0.92160  Biso   1.000  C
  C30      1.0000 0.52550  0.29970  0.57840  Biso   1.000  C
  C31      1.0000 0.02550  0.20030  0.42160  Biso   1.000  C
  C32      1.0000 0.47450  0.29970  0.92160  Biso   1.000  C
  H49      1.0000 0.94860  0.16850  0.11840  Biso   1.000  H
  H50      1.0000 0.44860  0.66850  0.38160  Biso   1.000  H
  H51      1.0000 0.94860  0.83150  0.61840  Biso   1.000  H
  H52      1.0000 0.55140  0.66850  0.11840  Biso   1.000  H
  H53      1.0000 0.05140  0.83150  0.88160  Biso   1.000  H
  H54      1.0000 0.55140  0.33150  0.61840  Biso   1.000  H
  H55      1.0000 0.05140  0.16850  0.38160  Biso   1.000  H
  H56      1.0000 0.44860  0.33150  0.88160  Biso   1.000  H
  C33      1.0000 0.03740  0.20490  0.08850  Biso   1.000  C
  C34      1.0000 0.53740  0.70490  0.41150  Biso   1.000  C
  C35      1.0000 0.03740  0.79510  0.58850  Biso   1.000  C
  C36      1.0000 0.46260  0.70490  0.08850  Biso   1.000  C
  C37      1.0000 0.96260  0.79510  0.91150  Biso   1.000  C
  C38      1.0000 0.46260  0.29510  0.58850  Biso   1.000  C
  C39      1.0000 0.96260  0.20490  0.41150  Biso   1.000  C
  C40      1.0000 0.53740  0.29510  0.91150  Biso   1.000  C
  H57      1.0000 0.05280  0.17630  0.13630  Biso   1.000  H
  H58      1.0000 0.55280  0.67630  0.36370  Biso   1.000  H
  H59      1.0000 0.05280  0.82370  0.63630  Biso   1.000  H
  H60      1.0000 0.44720  0.67630  0.13630  Biso   1.000  H
  H61      1.0000 0.94720  0.82370  0.86370  Biso   1.000  H
  H62      1.0000 0.44720  0.32370  0.63630  Biso   1.000  H
  H63      1.0000 0.94720  0.17630  0.36370  Biso   1.000  H
  H64      1.0000 0.55280  0.32370  0.86370  Biso   1.000  H
  C41      1.0000 0.88140  0.24430  0.99420  Biso   1.000  C
  C42      1.0000 0.38140  0.74430  0.50580  Biso   1.000  C
  C43      1.0000 0.88140  0.75570  0.49420  Biso   1.000  C
  C44      1.0000 0.61860  0.74430  0.99420  Biso   1.000  C
  C45      1.0000 0.11860  0.75570  0.00580  Biso   1.000  C
  C46      1.0000 0.61860  0.25570  0.49420  Biso   1.000  C
  C47      1.0000 0.11860  0.24430  0.50580  Biso   1.000  C
  C48      1.0000 0.38140  0.25570  0.00580  Biso   1.000  C
  C49      1.0000 0.85730  0.24170  0.92200  Biso   1.000  C
  C50      1.0000 0.35730  0.74170  0.57800  Biso   1.000  C
  C51      1.0000 0.85730  0.75830  0.42200  Biso   1.000  C
  C52      1.0000 0.64270  0.74170  0.92200  Biso   1.000  C
  C53      1.0000 0.14270  0.75830  0.07800  Biso   1.000  C
  C54      1.0000 0.64270  0.25830  0.42200  Biso   1.000  C
  C55      1.0000 0.14270  0.24170  0.57800  Biso   1.000  C
  C56      1.0000 0.35730  0.25830  0.07800  Biso   1.000  C
  H65      1.0000 0.88380  0.23850  0.88050  Biso   1.000  H
  H66      1.0000 0.38380  0.73850  0.61950  Biso   1.000  H
  H67      1.0000 0.88380  0.76150  0.38050  Biso   1.000  H
  H68      1.0000 0.61620  0.73850  0.88050  Biso   1.000  H
  H69      1.0000 0.11620  0.76150  0.11950  Biso   1.000  H
  H70      1.0000 0.61620  0.26150  0.38050  Biso   1.000  H
  H71      1.0000 0.11620  0.23850  0.61950  Biso   1.000  H
  H72      1.0000 0.38380  0.26150  0.11950  Biso   1.000  H
  C57      1.0000 0.77600  0.24750  0.03810  Biso   1.000  C
  C58      1.0000 0.27600  0.74750  0.46190  Biso   1.000  C
  C59      1.0000 0.77600  0.75250  0.53810  Biso   1.000  C
  C60      1.0000 0.72400  0.74750  0.03810  Biso   1.000  C
  C61      1.0000 0.22400  0.75250  0.96190  Biso   1.000  C
  C62      1.0000 0.72400  0.25250  0.53810  Biso   1.000  C
  C63      1.0000 0.22400  0.24750  0.46190  Biso   1.000  C
  C64      1.0000 0.27600  0.25250  0.96190  Biso   1.000  C
  H73      1.0000 0.74860  0.25140  0.07870  Biso   1.000  H
  H74      1.0000 0.24860  0.75140  0.42130  Biso   1.000  H
  H75      1.0000 0.74860  0.74860  0.57870  Biso   1.000  H
  H76      1.0000 0.75140  0.75140  0.07870  Biso   1.000  H
  H77      1.0000 0.25140  0.74860  0.92130  Biso   1.000  H
  H78      1.0000 0.75140  0.24860  0.57870  Biso   1.000  H
  H79      1.0000 0.25140  0.25140  0.42130  Biso   1.000  H
  H80      1.0000 0.24860  0.24860  0.92130  Biso   1.000  H
  C65      1.0000 0.79390  0.24370  0.91060  Biso   1.000  C
  C66      1.0000 0.29390  0.74370  0.58940  Biso   1.000  C
  C67      1.0000 0.79390  0.75630  0.41060  Biso   1.000  C
  C68      1.0000 0.70610  0.74370  0.91060  Biso   1.000  C
  C69      1.0000 0.20610  0.75630  0.08940  Biso   1.000  C
  C70      1.0000 0.70610  0.25630  0.41060  Biso   1.000  C
  C71      1.0000 0.20610  0.24370  0.58940  Biso   1.000  C
  C72      1.0000 0.29390  0.25630  0.08940  Biso   1.000  C
  H81      1.0000 0.77920  0.24490  0.86120  Biso   1.000  H
  H82      1.0000 0.27920  0.74490  0.63880  Biso   1.000  H
  H83      1.0000 0.77920  0.75510  0.36120  Biso   1.000  H
  H84      1.0000 0.72080  0.74490  0.86120  Biso   1.000  H
  H85      1.0000 0.22080  0.75510  0.13880  Biso   1.000  H
  H86      1.0000 0.72080  0.25510  0.36120  Biso   1.000  H
  H87      1.0000 0.22080  0.24490  0.63880  Biso   1.000  H
  H88      1.0000 0.27920  0.25510  0.13880  Biso   1.000  H
  C73      1.0000 0.83880  0.24520  0.05280  Biso   1.000  C
  C74      1.0000 0.33880  0.74520  0.44720  Biso   1.000  C
  C75      1.0000 0.83880  0.75480  0.55280  Biso   1.000  C
  C76      1.0000 0.66120  0.74520  0.05280  Biso   1.000  C
  C77      1.0000 0.16120  0.75480  0.94720  Biso   1.000  C
  C78      1.0000 0.66120  0.25480  0.55280  Biso   1.000  C
  C79      1.0000 0.16120  0.24520  0.44720  Biso   1.000  C
  C80      1.0000 0.33880  0.25480  0.94720  Biso   1.000  C
  H89      1.0000 0.85260  0.24420  0.10270  Biso   1.000  H
  H90      1.0000 0.35260  0.74420  0.39730  Biso   1.000  H
  H91      1.0000 0.85260  0.75580  0.60270  Biso   1.000  H
  H92      1.0000 0.64740  0.74420  0.10270  Biso   1.000  H
  H93      1.0000 0.14740  0.75580  0.89730  Biso   1.000  H
  H94      1.0000 0.64740  0.25580  0.60270  Biso   1.000  H
  H95      1.0000 0.14740  0.24420  0.39730  Biso   1.000  H
  H96      1.0000 0.35260  0.25580  0.89730  Biso   1.000  H
  C81      1.0000 0.00000  0.51110  0.75000  Biso   1.000  C
  C82      1.0000 0.50000  0.01110  0.75000  Biso   1.000  C
  C83      1.0000 0.00000  0.48890  0.25000  Biso   1.000  C
  C84      1.0000 0.50000  0.98890  0.25000  Biso   1.000  C
  H97      1.0000 0.00000  0.64000  0.75000  Biso   1.000  H
  H98      1.0000 0.50000  0.14000  0.75000  Biso   1.000  H
  H99      1.0000 0.00000  0.36000  0.25000  Biso   1.000  H
  H100     1.0000 0.50000  0.86000  0.25000  Biso   1.000  H
  C85      1.0000 0.05370  0.41500  0.76550  Biso   1.000  C
  C86      1.0000 0.55370  0.91500  0.73450  Biso   1.000  C
  C87      1.0000 0.05370  0.58500  0.26550  Biso   1.000  C
  C88      1.0000 0.44630  0.91500  0.76550  Biso   1.000  C
  C89      1.0000 0.94630  0.58500  0.23450  Biso   1.000  C
  C90      1.0000 0.44630  0.08500  0.26550  Biso   1.000  C
  C91      1.0000 0.94630  0.41500  0.73450  Biso   1.000  C
  C92      1.0000 0.55370  0.08500  0.23450  Biso   1.000  C
  H101     1.0000 0.08990  0.48000  0.77580  Biso   1.000  H
  H102     1.0000 0.58990  0.98000  0.72420  Biso   1.000  H
  H103     1.0000 0.08990  0.52000  0.27580  Biso   1.000  H
  H104     1.0000 0.41010  0.98000  0.77580  Biso   1.000  H
  H105     1.0000 0.91010  0.52000  0.22420  Biso   1.000  H
  H106     1.0000 0.41010  0.02000  0.27580  Biso   1.000  H
  H107     1.0000 0.91010  0.48000  0.72420  Biso   1.000  H
  H108     1.0000 0.58990  0.02000  0.22420  Biso   1.000  H
  C93      1.0000 0.05450  0.22180  0.76570  Biso   1.000  C
  C94      1.0000 0.55450  0.72180  0.73430  Biso   1.000  C
  C95      1.0000 0.05450  0.77820  0.26570  Biso   1.000  C
  C96      1.0000 0.44550  0.72180  0.76570  Biso   1.000  C
  C97      1.0000 0.94550  0.77820  0.23430  Biso   1.000  C
  C98      1.0000 0.44550  0.27820  0.26570  Biso   1.000  C
  C99      1.0000 0.94550  0.22180  0.73430  Biso   1.000  C
  C100     1.0000 0.55450  0.27820  0.23430  Biso   1.000  C
  C101     1.0000 0.00000  0.12910  0.75000  Biso   1.000  C
  C102     1.0000 0.50000  0.62910  0.75000  Biso   1.000  C
  C103     1.0000 0.00000  0.87090  0.25000  Biso   1.000  C
  C104     1.0000 0.50000  0.37090  0.25000  Biso   1.000  C
  H109     1.0000 0.00000  0.00020  0.75000  Biso   1.000  H
  H110     1.0000 0.50000  0.50020  0.75000  Biso   1.000  H
  H111     1.0000 0.00000  0.99980  0.25000  Biso   1.000  H
  H112     1.0000 0.50000  0.49980  0.25000  Biso   1.000  H
  C105     1.0000 0.11270  0.10890  0.78230  Biso   1.000  C
  C106     1.0000 0.61270  0.60890  0.71770  Biso   1.000  C
  C107     1.0000 0.11270  0.89110  0.28230  Biso   1.000  C
  C108     1.0000 0.38730  0.60890  0.78230  Biso   1.000  C
  C109     1.0000 0.88730  0.89110  0.21770  Biso   1.000  C
  C110     1.0000 0.38730  0.39110  0.28230  Biso   1.000  C
  C111     1.0000 0.88730  0.10890  0.71770  Biso   1.000  C
  C112     1.0000 0.61270  0.39110  0.21770  Biso   1.000  C
