data_image0
_cell_length_a       9.824
_cell_length_b       10.017
_cell_length_c       11.36
_cell_angle_alpha    111.68
_cell_angle_beta     96.45
_cell_angle_gamma    94.56

_symmetry_space_group_name_H-M    "P 1"
_symmetry_int_tables_number       1

loop_
  _symmetry_equiv_pos_as_xyz
  'x, y, z'

loop_
  _atom_site_label
  _atom_site_occupancy
  _atom_site_fract_x
  _atom_site_fract_y
  _atom_site_fract_z
  _atom_site_thermal_displace_type
  _atom_site_B_iso_or_equiv
  _atom_site_type_symbol
  C1       1.0000 0.45700  0.34110  0.66750  Biso   1.000  C
  C2       1.0000 0.54300  0.65890  0.33250  Biso   1.000  C
  H1       1.0000 0.48520  0.34730  0.75050  Biso   1.000  H
  H2       1.0000 0.51480  0.65270  0.24950  Biso   1.000  H
  C3       1.0000 0.54520  0.33700  0.57940  Biso   1.000  C
  C4       1.0000 0.45480  0.66300  0.42060  Biso   1.000  C
  H3       1.0000 0.64060  0.33820  0.59050  Biso   1.000  H
  H4       1.0000 0.35940  0.66180  0.40950  Biso   1.000  H
  C5       1.0000 0.46130  0.33080  0.47300  Biso   1.000  C
  C6       1.0000 0.53870  0.66920  0.52700  Biso   1.000  C
  H5       1.0000 0.48990  0.32790  0.39690  Biso   1.000  H
  H6       1.0000 0.51010  0.67210  0.60310  Biso   1.000  H
  C7       1.0000 0.20600  0.30710  0.40670  Biso   1.000  C
  C8       1.0000 0.79400  0.69290  0.59330  Biso   1.000  C
  H7       1.0000 0.16270  0.20810  0.38110  Biso   1.000  H
  H8       1.0000 0.83730  0.79190  0.61890  Biso   1.000  H
  H9       1.0000 0.23090  0.31910  0.33070  Biso   1.000  H
  H10      1.0000 0.76910  0.68090  0.66930  Biso   1.000  H
  C9       1.0000 0.10120  0.40920  0.45940  Biso   1.000  C
  C10      1.0000 0.89880  0.59080  0.54060  Biso   1.000  C
  C11      1.0000 0.96160  0.35880  0.41680  Biso   1.000  C
  C12      1.0000 0.03840  0.64120  0.58320  Biso   1.000  C
  H11      1.0000 0.93490  0.26320  0.36040  Biso   1.000  H
  H12      1.0000 0.06510  0.73680  0.63960  Biso   1.000  H
  C13      1.0000 0.13910  0.55120  0.54290  Biso   1.000  C
  C14      1.0000 0.86090  0.44880  0.45710  Biso   1.000  C
  H13      1.0000 0.23210  0.58700  0.57240  Biso   1.000  H
  H14      1.0000 0.76790  0.41300  0.42760  Biso   1.000  H
  C15      1.0000 0.96350  0.52040  0.83310  Biso   1.000  C
  C16      1.0000 0.03650  0.47960  0.16690  Biso   1.000  C
  H15      1.0000 0.00520  0.60970  0.83910  Biso   1.000  H
  H16      1.0000 0.99480  0.39030  0.16090  Biso   1.000  H
  C17      1.0000 0.83930  0.49990  0.87330  Biso   1.000  C
  C18      1.0000 0.16070  0.50010  0.12670  Biso   1.000  C
  H17      1.0000 0.78300  0.56950  0.91030  Biso   1.000  H
  H18      1.0000 0.21700  0.43050  0.08970  Biso   1.000  H
  C19      1.0000 0.81750  0.35750  0.84740  Biso   1.000  C
  C20      1.0000 0.18250  0.64250  0.15260  Biso   1.000  C
  H19      1.0000 0.74090  0.30970  0.86320  Biso   1.000  H
  H20      1.0000 0.25910  0.69030  0.13680  Biso   1.000  H
  C21      1.0000 0.95430  0.14800  0.76390  Biso   1.000  C
  C22      1.0000 0.04570  0.85200  0.23610  Biso   1.000  C
  H21      1.0000 0.87810  0.09270  0.78010  Biso   1.000  H
  H22      1.0000 0.12190  0.90730  0.21990  Biso   1.000  H
  H23      1.0000 0.03620  0.14910  0.82070  Biso   1.000  H
  H24      1.0000 0.96380  0.85090  0.17930  Biso   1.000  H
  C23      1.0000 0.97720  0.07210  0.62650  Biso   1.000  C
  C24      1.0000 0.02280  0.92790  0.37350  Biso   1.000  C
  C25      1.0000 0.10340  0.02880  0.59890  Biso   1.000  C
  C26      1.0000 0.89660  0.97120  0.40110  Biso   1.000  C
  H25      1.0000 0.17510  0.04890  0.66630  Biso   1.000  H
  H26      1.0000 0.82490  0.95110  0.33370  Biso   1.000  H
  C27      1.0000 0.87230  0.04400  0.52590  Biso   1.000  C
  C28      1.0000 0.12770  0.95600  0.47410  Biso   1.000  C
  H27      1.0000 0.78630  0.07320  0.54120  Biso   1.000  H
  H28      1.0000 0.21370  0.92680  0.45880  Biso   1.000  H
  Cu1      1.0000 0.17034  0.36422  0.70000  Biso   1.000  Cu
  Cu2      1.0000 0.82966  0.63578  0.30000  Biso   1.000  Cu
  Mo1      1.0000 0.46300  0.00218  0.79644  Biso   1.000  Mo
  Mo2      1.0000 0.53700  0.99782  0.20356  Biso   1.000  Mo
  Mo3      1.0000 0.59710  0.24013  0.08003  Biso   1.000  Mo
  Mo4      1.0000 0.40290  0.75987  0.91997  Biso   1.000  Mo
  Mo5      1.0000 0.71724  0.92818  0.96571  Biso   1.000  Mo
  Mo6      1.0000 0.28276  0.07182  0.03429  Biso   1.000  Mo
  N1       1.0000 0.32700  0.33490  0.61710  Biso   1.000  N
  N2       1.0000 0.67300  0.66510  0.38290  Biso   1.000  N
  N3       1.0000 0.33100  0.32960  0.49660  Biso   1.000  N
  N4       1.0000 0.66900  0.67040  0.50340  Biso   1.000  N
  N5       1.0000 0.01590  0.39840  0.78530  Biso   1.000  N
  N6       1.0000 0.98410  0.60160  0.21470  Biso   1.000  N
  N7       1.0000 0.92480  0.29350  0.79420  Biso   1.000  N
  N8       1.0000 0.07520  0.70650  0.20580  Biso   1.000  N
  O1       1.0000 0.54520  0.19570  0.89860  Biso   1.000  O
  O2       1.0000 0.45480  0.80430  0.10140  Biso   1.000  O
  O3       1.0000 0.43060  0.00310  0.64940  Biso   1.000  O
  O4       1.0000 0.56940  0.99690  0.35060  Biso   1.000  O
  O5       1.0000 0.63810  0.94080  0.80270  Biso   1.000  O
  O6       1.0000 0.36190  0.05920  0.19730  Biso   1.000  O
  O7       1.0000 0.38090  0.81040  0.77310  Biso   1.000  O
  O8       1.0000 0.61910  0.18960  0.22690  Biso   1.000  O
  O9       1.0000 0.50000  0.00000  0.00000  Biso   1.000  O
  O10      1.0000 0.29250  0.06260  0.86810  Biso   1.000  O
  O11      1.0000 0.70750  0.93740  0.13190  Biso   1.000  O
  O12      1.0000 0.40830  0.25580  0.09820  Biso   1.000  O
  O13      1.0000 0.59170  0.74420  0.90180  Biso   1.000  O
  O14      1.0000 0.75350  0.13280  0.02860  Biso   1.000  O
  O15      1.0000 0.24650  0.86720  0.97140  Biso   1.000  O
  O16      1.0000 0.67300  0.41200  0.13270  Biso   1.000  O
  O17      1.0000 0.32700  0.58800  0.86730  Biso   1.000  O
  O18      1.0000 0.87000  0.86790  0.93280  Biso   1.000  O
  O19      1.0000 0.13000  0.13210  0.06720  Biso   1.000  O
