data_image0
_cell_length_a       4.388
_cell_length_b       11.856
_cell_length_c       11.482
_cell_angle_alpha    74.795
_cell_angle_beta     81.55
_cell_angle_gamma    77.453

_symmetry_space_group_name_H-M    "P 1"
_symmetry_int_tables_number       1

loop_
  _symmetry_equiv_pos_as_xyz
  'x, y, z'

loop_
  _atom_site_label
  _atom_site_occupancy
  _atom_site_fract_x
  _atom_site_fract_y
  _atom_site_fract_z
  _atom_site_thermal_displace_type
  _atom_site_B_iso_or_equiv
  _atom_site_type_symbol
  I1       1.0000 0.27737  0.42375  0.65935  Biso   1.000  I
  I2       1.0000 0.72263  0.57625  0.34065  Biso   1.000  I
  Cu1      1.0000 0.84738  0.39623  0.53239  Biso   1.000  Cu
  Cu2      1.0000 0.15262  0.60377  0.46761  Biso   1.000  Cu
  S1       1.0000 0.96010  0.20594  0.50808  Biso   1.000  S
  S2       1.0000 0.03990  0.79406  0.49192  Biso   1.000  S
  S3       1.0000 0.36750  0.07006  0.34278  Biso   1.000  S
  S4       1.0000 0.63250  0.92994  0.65722  Biso   1.000  S
  S5       1.0000 0.37470  0.32011  0.29879  Biso   1.000  S
  S6       1.0000 0.62530  0.67989  0.70121  Biso   1.000  S
  S7       1.0000 0.83000  0.04028  0.12304  Biso   1.000  S
  S8       1.0000 0.17000  0.95972  0.87696  Biso   1.000  S
  S9       1.0000 0.85630  0.32137  0.08134  Biso   1.000  S
  S10      1.0000 0.14370  0.67863  0.91866  Biso   1.000  S
  C1       1.0000 0.22340  0.20120  0.38810  Biso   1.000  C
  C2       1.0000 0.77660  0.79880  0.61190  Biso   1.000  C
  C3       1.0000 0.61060  0.12780  0.21760  Biso   1.000  C
  C4       1.0000 0.38940  0.87220  0.78240  Biso   1.000  C
  C5       1.0000 0.61770  0.24470  0.19800  Biso   1.000  C
  C6       1.0000 0.38230  0.75530  0.80200  Biso   1.000  C
  C7       1.0000 0.70610  0.90010  0.18160  Biso   1.000  C
  C8       1.0000 0.29390  0.09990  0.81840  Biso   1.000  C
  C9       1.0000 0.63420  0.35380  0.95150  Biso   1.000  C
  C10      1.0000 0.36580  0.64620  0.04850  Biso   1.000  C
  H1       1.0000 0.48670  0.91130  0.17710  Biso   1.000  H
  H2       1.0000 0.51330  0.08870  0.82290  Biso   1.000  H
  H3       1.0000 0.81330  0.84530  0.13510  Biso   1.000  H
  H4       1.0000 0.18670  0.15470  0.86490  Biso   1.000  H
  H5       1.0000 0.75080  0.86960  0.26370  Biso   1.000  H
  H6       1.0000 0.24920  0.13040  0.73630  Biso   1.000  H
  H7       1.0000 0.43440  0.40070  0.96700  Biso   1.000  H
  H8       1.0000 0.56560  0.59930  0.03300  Biso   1.000  H
  H9       1.0000 0.74450  0.39620  0.88230  Biso   1.000  H
  H10      1.0000 0.25550  0.60380  0.11770  Biso   1.000  H
  H11      1.0000 0.60780  0.28130  0.93720  Biso   1.000  H
  H12      1.0000 0.39220  0.71870  0.06280  Biso   1.000  H
