data_image0
_cell_length_a       3.6827
_cell_length_b       9.9775
_cell_length_c       17.214
_cell_angle_alpha    90
_cell_angle_beta     93.909
_cell_angle_gamma    90

_symmetry_space_group_name_H-M    "P 1"
_symmetry_int_tables_number       1

loop_
  _symmetry_equiv_pos_as_xyz
  'x, y, z'

loop_
  _atom_site_label
  _atom_site_occupancy
  _atom_site_fract_x
  _atom_site_fract_y
  _atom_site_fract_z
  _atom_site_thermal_displace_type
  _atom_site_B_iso_or_equiv
  _atom_site_type_symbol
  Cu1      1.0000 0.87371  0.03106  0.27743  Biso   1.000  Cu
  Cu2      1.0000 0.37371  0.96894  0.77743  Biso   1.000  Cu
  O1       1.0000 0.42500  0.49970  0.19180  Biso   1.000  O
  O2       1.0000 0.92500  0.50030  0.69180  Biso   1.000  O
  O3       1.0000 0.61080  0.37020  0.29210  Biso   1.000  O
  O4       1.0000 0.11080  0.62980  0.79210  Biso   1.000  O
  H1       1.0000 0.57710  0.30960  0.26020  Biso   1.000  H
  H2       1.0000 0.07710  0.69040  0.76020  Biso   1.000  H
  O5       1.0000 0.35820  0.40930  0.50720  Biso   1.000  O
  O6       1.0000 0.85820  0.59070  0.00720  Biso   1.000  O
  O7       1.0000 0.61360  0.29310  0.60810  Biso   1.000  O
  O8       1.0000 0.11360  0.70690  0.10810  Biso   1.000  O
  H3       1.0000 0.52210  0.34120  0.64010  Biso   1.000  H
  H4       1.0000 0.02210  0.65880  0.14010  Biso   1.000  H
  N1       1.0000 0.84350  0.83530  0.31590  Biso   1.000  N
  N2       1.0000 0.34350  0.16470  0.81590  Biso   1.000  N
  N3       1.0000 0.03960  0.05670  0.39370  Biso   1.000  N
  N4       1.0000 0.53960  0.94330  0.89370  Biso   1.000  N
  C1       1.0000 0.71710  0.72880  0.27430  Biso   1.000  C
  C2       1.0000 0.21710  0.27120  0.77430  Biso   1.000  C
  H5       1.0000 0.63340  0.74150  0.22260  Biso   1.000  H
  H6       1.0000 0.13340  0.25850  0.72260  Biso   1.000  H
  C3       1.0000 0.70690  0.59910  0.30590  Biso   1.000  C
  C4       1.0000 0.20690  0.40090  0.80590  Biso   1.000  C
  C5       1.0000 0.82500  0.58300  0.38400  Biso   1.000  C
  C6       1.0000 0.32500  0.41700  0.88400  Biso   1.000  C
  H7       1.0000 0.82350  0.49860  0.40690  Biso   1.000  H
  H8       1.0000 0.32350  0.50140  0.90690  Biso   1.000  H
  C7       1.0000 0.94400  0.69280  0.42700  Biso   1.000  C
  C8       1.0000 0.44400  0.30720  0.92700  Biso   1.000  C
  H9       1.0000 0.01670  0.68300  0.47950  Biso   1.000  H
  H10      1.0000 0.51670  0.31700  0.97950  Biso   1.000  H
  C9       1.0000 0.95580  0.81760  0.39240  Biso   1.000  C
  C10      1.0000 0.45580  0.18240  0.89240  Biso   1.000  C
  C11      1.0000 0.08570  0.93840  0.43430  Biso   1.000  C
  C12      1.0000 0.58570  0.06160  0.93430  Biso   1.000  C
  C13      1.0000 0.23440  0.93710  0.50990  Biso   1.000  C
  C14      1.0000 0.73440  0.06290  0.00990  Biso   1.000  C
  H11      1.0000 0.25430  0.85630  0.53680  Biso   1.000  H
  H12      1.0000 0.75430  0.14370  0.03680  Biso   1.000  H
  C15      1.0000 0.35300  0.05220  0.54600  Biso   1.000  C
  C16      1.0000 0.85300  0.94780  0.04600  Biso   1.000  C
  H13      1.0000 0.45680  0.05110  0.59670  Biso   1.000  H
  H14      1.0000 0.95680  0.94890  0.09670  Biso   1.000  H
  C17      1.0000 0.31390  0.17090  0.50450  Biso   1.000  C
  C18      1.0000 0.81390  0.82910  0.00450  Biso   1.000  C
  C19      1.0000 0.15230  0.17070  0.43070  Biso   1.000  C
  C20      1.0000 0.65230  0.82930  0.93070  Biso   1.000  C
  H15      1.0000 0.11830  0.25200  0.40480  Biso   1.000  H
  H16      1.0000 0.61830  0.74800  0.90480  Biso   1.000  H
  C21      1.0000 0.56870  0.48690  0.25660  Biso   1.000  C
  C22      1.0000 0.06870  0.51310  0.75660  Biso   1.000  C
  C23      1.0000 0.43060  0.30480  0.54050  Biso   1.000  C
  C24      1.0000 0.93060  0.69520  0.04050  Biso   1.000  C
  Cl1      1.0000 0.36500  0.11180  0.20865  Biso   1.000  Cl
  Cl2      1.0000 0.86500  0.88820  0.70865  Biso   1.000  Cl
